MODEL 1
REMARK VINA RESULT:      -6.8      0.000      0.000
REMARK  Name = Progesterone.pdbqt.pdb
REMARK  1 active torsions:
REMARK  status: ('A' for Active; 'I' for Inactive)
REMARK    1  A    between atoms: C_7  and  C_21
REMARK                            x       y       z     vdW  Elec       q    Type
REMARK                         _______ _______ _______ _____ _____    ______ ____
ROOT
ATOM      1  O   UNL     1     -13.107   1.904  -1.524  0.00  0.00    +0.000 OA
ATOM      2  C   UNL     1     -16.138   8.934  -1.480  0.00  0.00    +0.000 C 
ATOM      3  C   UNL     1     -15.657  10.086  -2.520  0.00  0.00    +0.000 C 
ATOM      4  C   UNL     1     -16.039   7.495  -1.792  0.00  0.00    +0.000 C 
ATOM      5  C   UNL     1     -15.270   6.886  -2.931  0.00  0.00    +0.000 C 
ATOM      6  C   UNL     1     -15.295   5.383  -3.285  0.00  0.00    +0.000 C 
ATOM      7  C   UNL     1     -14.946  11.063  -1.631  0.00  0.00    +0.000 C 
ATOM      8  C   UNL     1     -14.803   9.372  -3.470  0.00  0.00    +0.000 C 
ATOM      9  C   UNL     1     -14.623   7.892  -3.701  0.00  0.00    +0.000 C 
ATOM     10  C   UNL     1     -15.849   9.407  -0.161  0.00  0.00    +0.000 C 
ATOM     11  C   UNL     1     -16.577   6.519  -0.920  0.00  0.00    +0.000 C 
ATOM     12  C   UNL     1     -15.090  10.704  -0.261  0.00  0.00    +0.000 C 
ATOM     13  C   UNL     1     -15.763   4.380  -2.052  0.00  0.00    +0.000 C 
ATOM     14  C   UNL     1     -16.941  10.694  -3.131  0.00  0.00    +0.000 C 
ATOM     15  C   UNL     1     -16.468   5.027  -1.007  0.00  0.00    +0.000 C 
ATOM     16  C   UNL     1     -13.910   4.898  -3.598  0.00  0.00    +0.000 C 
ATOM     17  C   UNL     1     -16.273   5.138  -4.464  0.00  0.00    +0.000 C 
ATOM     18  C   UNL     1     -13.073   3.707  -3.079  0.00  0.00    +0.000 C 
ATOM     19  C   UNL     1     -14.961   3.386  -1.732  0.00  0.00    +0.000 C 
ATOM     20  C   UNL     1     -13.646   2.855  -2.055  0.00  0.00    +0.000 C 
ENDROOT
BRANCH   7  21
ATOM     21  C   UNL     1     -14.252  12.232  -2.112  0.00  0.00    +0.000 C 
ATOM     22  O   UNL     1     -14.176  12.575  -3.280  0.00  0.00    +0.000 OA
ATOM     23  C   UNL     1     -13.607  13.244  -1.222  0.00  0.00    +0.000 C 
ENDBRANCH   7  21
TORSDOF 1
ENDMDL
MODEL 2
REMARK VINA RESULT:      -6.5      1.991      2.974
REMARK  Name = Progesterone.pdbqt.pdb
REMARK  1 active torsions:
REMARK  status: ('A' for Active; 'I' for Inactive)
REMARK    1  A    between atoms: C_7  and  C_21
REMARK                            x       y       z     vdW  Elec       q    Type
REMARK                         _______ _______ _______ _____ _____    ______ ____
ROOT
ATOM      1  O   UNL     1     -13.435   4.147  -1.727  0.00  0.00    +0.000 OA
ATOM      2  C   UNL     1     -14.861  11.614  -2.631  0.00  0.00    +0.000 C 
ATOM      3  C   UNL     1     -14.598  12.377  -4.041  0.00  0.00    +0.000 C 
ATOM      4  C   UNL     1     -15.156  10.170  -2.554  0.00  0.00    +0.000 C 
ATOM      5  C   UNL     1     -14.997   9.174  -3.669  0.00  0.00    +0.000 C 
ATOM      6  C   UNL     1     -15.433   7.695  -3.574  0.00  0.00    +0.000 C 
ATOM      7  C   UNL     1     -13.437  13.273  -3.725  0.00  0.00    +0.000 C 
ATOM      8  C   UNL     1     -14.311  11.294  -4.981  0.00  0.00    +0.000 C 
ATOM      9  C   UNL     1     -14.509   9.804  -4.847  0.00  0.00    +0.000 C 
ATOM     10  C   UNL     1     -14.016  12.230  -1.653  0.00  0.00    +0.000 C 
ATOM     11  C   UNL     1     -15.500   9.558  -1.327  0.00  0.00    +0.000 C 
ATOM     12  C   UNL     1     -13.123  13.229  -2.337  0.00  0.00    +0.000 C 
ATOM     13  C   UNL     1     -15.583   7.105  -2.033  0.00  0.00    +0.000 C 
ATOM     14  C   UNL     1     -15.879  13.184  -4.352  0.00  0.00    +0.000 C 
ATOM     15  C   UNL     1     -15.712   8.103  -1.035  0.00  0.00    +0.000 C 
ATOM     16  C   UNL     1     -14.382   6.803  -4.168  0.00  0.00    +0.000 C 
ATOM     17  C   UNL     1     -16.808   7.507  -4.268  0.00  0.00    +0.000 C 
ATOM     18  C   UNL     1     -13.650   5.549  -3.640  0.00  0.00    +0.000 C 
ATOM     19  C   UNL     1     -14.921   6.010  -1.728  0.00  0.00    +0.000 C 
ATOM     20  C   UNL     1     -13.946   5.091  -2.296  0.00  0.00    +0.000 C 
ENDROOT
BRANCH   7  21
ATOM     21  C   UNL     1     -12.768  14.099  -4.700  0.00  0.00    +0.000 C 
ATOM     22  O   UNL     1     -13.098  15.233  -5.007  0.00  0.00    +0.000 OA
ATOM     23  C   UNL     1     -11.511  13.707  -5.403  0.00  0.00    +0.000 C 
ENDBRANCH   7  21
TORSDOF 1
ENDMDL
MODEL 3
REMARK VINA RESULT:      -5.6      2.515      3.373
REMARK  Name = Progesterone.pdbqt.pdb
REMARK  1 active torsions:
REMARK  status: ('A' for Active; 'I' for Inactive)
REMARK    1  A    between atoms: C_7  and  C_21
REMARK                            x       y       z     vdW  Elec       q    Type
REMARK                         _______ _______ _______ _____ _____    ______ ____
ROOT
ATOM      1  O   UNL     1     -10.915   4.211  -5.353  0.00  0.00    +0.000 OA
ATOM      2  C   UNL     1     -15.197  10.259  -3.426  0.00  0.00    +0.000 C 
ATOM      3  C   UNL     1     -15.079  11.680  -4.203  0.00  0.00    +0.000 C 
ATOM      4  C   UNL     1     -14.867   8.973  -4.071  0.00  0.00    +0.000 C 
ATOM      5  C   UNL     1     -14.147   8.798  -5.379  0.00  0.00    +0.000 C 
ATOM      6  C   UNL     1     -13.931   7.434  -6.071  0.00  0.00    +0.000 C 
ATOM      7  C   UNL     1     -14.460  12.575  -3.172  0.00  0.00    +0.000 C 
ATOM      8  C   UNL     1     -14.234  11.382  -5.359  0.00  0.00    +0.000 C 
ATOM      9  C   UNL     1     -13.806  10.059  -5.943  0.00  0.00    +0.000 C 
ATOM     10  C   UNL     1     -14.837  10.492  -2.060  0.00  0.00    +0.000 C 
ATOM     11  C   UNL     1     -15.093   7.743  -3.410  0.00  0.00    +0.000 C 
ATOM     12  C   UNL     1     -14.358  11.912  -1.917  0.00  0.00    +0.000 C 
ATOM     13  C   UNL     1     -14.039   6.116  -5.072  0.00  0.00    +0.000 C 
ATOM     14  C   UNL     1     -16.522  12.114  -4.549  0.00  0.00    +0.000 C 
ATOM     15  C   UNL     1     -14.715   6.361  -3.851  0.00  0.00    +0.000 C 
ATOM     16  C   UNL     1     -12.530   7.333  -6.600  0.00  0.00    +0.000 C 
ATOM     17  C   UNL     1     -14.987   7.240  -7.192  0.00  0.00    +0.000 C 
ATOM     18  C   UNL     1     -11.423   6.267  -6.443  0.00  0.00    +0.000 C 
ATOM     19  C   UNL     1     -13.029   5.272  -5.058  0.00  0.00    +0.000 C 
ATOM     20  C   UNL     1     -11.689   5.115  -5.603  0.00  0.00    +0.000 C 
ENDROOT
BRANCH   7  21
ATOM     21  C   UNL     1     -14.068  13.941  -3.422  0.00  0.00    +0.000 C 
ATOM     22  O   UNL     1     -13.434  14.643  -2.652  0.00  0.00    +0.000 OA
ATOM     23  C   UNL     1     -14.308  14.655  -4.711  0.00  0.00    +0.000 C 
ENDBRANCH   7  21
TORSDOF 1
ENDMDL
MODEL 4
REMARK VINA RESULT:      -5.6     12.979     16.042
REMARK  Name = Progesterone.pdbqt.pdb
REMARK  1 active torsions:
REMARK  status: ('A' for Active; 'I' for Inactive)
REMARK    1  A    between atoms: C_7  and  C_21
REMARK                            x       y       z     vdW  Elec       q    Type
REMARK                         _______ _______ _______ _____ _____    ______ ____
ROOT
ATOM      1  O   UNL     1       2.515   7.922   2.689  0.00  0.00    +0.000 OA
ATOM      2  C   UNL     1      -2.629   2.714   0.446  0.00  0.00    +0.000 C 
ATOM      3  C   UNL     1      -3.276   1.641   1.480  0.00  0.00    +0.000 C 
ATOM      4  C   UNL     1      -2.125   4.030   0.883  0.00  0.00    +0.000 C 
ATOM      5  C   UNL     1      -1.883   4.459   2.304  0.00  0.00    +0.000 C 
ATOM      6  C   UNL     1      -1.467   5.888   2.716  0.00  0.00    +0.000 C 
ATOM      7  C   UNL     1      -2.684   0.340   1.026  0.00  0.00    +0.000 C 
ATOM      8  C   UNL     1      -2.830   2.103   2.795  0.00  0.00    +0.000 C 
ATOM      9  C   UNL     1      -2.206   3.412   3.211  0.00  0.00    +0.000 C 
ATOM     10  C   UNL     1      -1.926   1.968  -0.553  0.00  0.00    +0.000 C 
ATOM     11  C   UNL     1      -1.679   4.991  -0.055  0.00  0.00    +0.000 C 
ATOM     12  C   UNL     1      -1.939   0.511  -0.175  0.00  0.00    +0.000 C 
ATOM     13  C   UNL     1      -0.772   6.791   1.513  0.00  0.00    +0.000 C 
ATOM     14  C   UNL     1      -4.806   1.684   1.262  0.00  0.00    +0.000 C 
ATOM     15  C   UNL     1      -1.029   6.317   0.203  0.00  0.00    +0.000 C 
ATOM     16  C   UNL     1      -0.388   5.838   3.757  0.00  0.00    +0.000 C 
ATOM     17  C   UNL     1      -2.710   6.674   3.212  0.00  0.00    +0.000 C 
ATOM     18  C   UNL     1       0.998   6.512   3.865  0.00  0.00    +0.000 C 
ATOM     19  C   UNL     1       0.404   7.331   1.753  0.00  0.00    +0.000 C 
ATOM     20  C   UNL     1       1.445   7.351   2.770  0.00  0.00    +0.000 C 
ENDROOT
BRANCH   7  21
ATOM     21  C   UNL     1      -2.890  -0.918   1.701  0.00  0.00    +0.000 C 
ATOM     22  O   UNL     1      -3.611  -1.819   1.306  0.00  0.00    +0.000 OA
ATOM     23  C   UNL     1      -2.164  -1.328   2.940  0.00  0.00    +0.000 C 
ENDBRANCH   7  21
TORSDOF 1
ENDMDL
MODEL 5
REMARK VINA RESULT:      -5.5     21.529     23.043
REMARK  Name = Progesterone.pdbqt.pdb
REMARK  1 active torsions:
REMARK  status: ('A' for Active; 'I' for Inactive)
REMARK    1  A    between atoms: C_7  and  C_21
REMARK                            x       y       z     vdW  Elec       q    Type
REMARK                         _______ _______ _______ _____ _____    ______ ____
ROOT
ATOM      1  O   UNL     1      -7.191   2.978  15.661  0.00  0.00    +0.000 OA
ATOM      2  C   UNL     1     -10.421   7.404  21.008  0.00  0.00    +0.000 C 
ATOM      3  C   UNL     1      -9.652   8.685  21.645  0.00  0.00    +0.000 C 
ATOM      4  C   UNL     1     -10.128   6.898  19.653  0.00  0.00    +0.000 C 
ATOM      5  C   UNL     1      -8.952   7.283  18.799  0.00  0.00    +0.000 C 
ATOM      6  C   UNL     1      -8.755   6.816  17.340  0.00  0.00    +0.000 C 
ATOM      7  C   UNL     1      -9.387   8.249  23.056  0.00  0.00    +0.000 C 
ATOM      8  C   UNL     1      -8.464   8.838  20.806  0.00  0.00    +0.000 C 
ATOM      9  C   UNL     1      -8.123   8.223  19.472  0.00  0.00    +0.000 C 
ATOM     10  C   UNL     1     -10.678   6.489  22.079  0.00  0.00    +0.000 C 
ATOM     11  C   UNL     1     -10.896   5.858  19.079  0.00  0.00    +0.000 C 
ATOM     12  C   UNL     1     -10.015   7.001  23.329  0.00  0.00    +0.000 C 
ATOM     13  C   UNL     1      -9.592   5.449  16.922  0.00  0.00    +0.000 C 
ATOM     14  C   UNL     1     -10.645   9.869  21.588  0.00  0.00    +0.000 C 
ATOM     15  C   UNL     1     -10.675   5.141  17.781  0.00  0.00    +0.000 C 
ATOM     16  C   UNL     1      -7.328   6.412  17.111  0.00  0.00    +0.000 C 
ATOM     17  C   UNL     1      -9.200   7.938  16.365  0.00  0.00    +0.000 C 
ATOM     18  C   UNL     1      -6.679   5.140  16.520  0.00  0.00    +0.000 C 
ATOM     19  C   UNL     1      -8.914   4.449  16.401  0.00  0.00    +0.000 C 
ATOM     20  C   UNL     1      -7.544   4.050  16.111  0.00  0.00    +0.000 C 
ENDROOT
BRANCH   7  21
ATOM     21  C   UNL     1      -8.633   9.023  24.011  0.00  0.00    +0.000 C 
ATOM     22  O   UNL     1      -8.730  10.228  24.173  0.00  0.00    +0.000 OA
ATOM     23  C   UNL     1      -7.690   8.431  25.006  0.00  0.00    +0.000 C 
ENDBRANCH   7  21
TORSDOF 1
ENDMDL
MODEL 6
REMARK VINA RESULT:      -5.5      2.317      3.814
REMARK  Name = Progesterone.pdbqt.pdb
REMARK  1 active torsions:
REMARK  status: ('A' for Active; 'I' for Inactive)
REMARK    1  A    between atoms: C_7  and  C_21
REMARK                            x       y       z     vdW  Elec       q    Type
REMARK                         _______ _______ _______ _____ _____    ______ ____
ROOT
ATOM      1  O   UNL     1     -15.179   1.859  -6.488  0.00  0.00    +0.000 OA
ATOM      2  C   UNL     1     -15.476   8.612  -2.893  0.00  0.00    +0.000 C 
ATOM      3  C   UNL     1     -16.141   8.775  -1.420  0.00  0.00    +0.000 C 
ATOM      4  C   UNL     1     -14.887   7.341  -3.360  0.00  0.00    +0.000 C 
ATOM      5  C   UNL     1     -15.044   5.998  -2.702  0.00  0.00    +0.000 C 
ATOM      6  C   UNL     1     -14.309   4.720  -3.164  0.00  0.00    +0.000 C 
ATOM      7  C   UNL     1     -17.381   9.572  -1.699  0.00  0.00    +0.000 C 
ATOM      8  C   UNL     1     -16.372   7.398  -0.981  0.00  0.00    +0.000 C 
ATOM      9  C   UNL     1     -15.856   6.095  -1.539  0.00  0.00    +0.000 C 
ATOM     10  C   UNL     1     -16.234   9.428  -3.792  0.00  0.00    +0.000 C 
ATOM     11  C   UNL     1     -14.208   7.262  -4.598  0.00  0.00    +0.000 C 
ATOM     12  C   UNL     1     -17.420   9.993  -3.058  0.00  0.00    +0.000 C 
ATOM     13  C   UNL     1     -13.764   4.751  -4.728  0.00  0.00    +0.000 C 
ATOM     14  C   UNL     1     -15.128   9.568  -0.563  0.00  0.00    +0.000 C 
ATOM     15  C   UNL     1     -13.658   6.049  -5.286  0.00  0.00    +0.000 C 
ATOM     16  C   UNL     1     -15.249   3.550  -3.165  0.00  0.00    +0.000 C 
ATOM     17  C   UNL     1     -13.075   4.468  -2.257  0.00  0.00    +0.000 C 
ATOM     18  C   UNL     1     -15.605   2.491  -4.232  0.00  0.00    +0.000 C 
ATOM     19  C   UNL     1     -14.124   3.765  -5.523  0.00  0.00    +0.000 C 
ATOM     20  C   UNL     1     -14.981   2.590  -5.537  0.00  0.00    +0.000 C 
ENDROOT
BRANCH   7  21
ATOM     21  C   UNL     1     -18.369   9.900  -0.701  0.00  0.00    +0.000 C 
ATOM     22  O   UNL     1     -18.247  10.761   0.154  0.00  0.00    +0.000 OA
ATOM     23  C   UNL     1     -19.729   9.287  -0.641  0.00  0.00    +0.000 C 
ENDBRANCH   7  21
TORSDOF 1
ENDMDL
MODEL 7
REMARK VINA RESULT:      -5.0      2.928      3.559
REMARK  Name = Progesterone.pdbqt.pdb
REMARK  1 active torsions:
REMARK  status: ('A' for Active; 'I' for Inactive)
REMARK    1  A    between atoms: C_7  and  C_21
REMARK                            x       y       z     vdW  Elec       q    Type
REMARK                         _______ _______ _______ _____ _____    ______ ____
ROOT
ATOM      1  O   UNL     1     -18.294   0.979  -4.055  0.00  0.00    +0.000 OA
ATOM      2  C   UNL     1     -17.021   7.697  -0.611  0.00  0.00    +0.000 C 
ATOM      3  C   UNL     1     -17.273   9.113  -1.366  0.00  0.00    +0.000 C 
ATOM      4  C   UNL     1     -17.753   6.467  -0.969  0.00  0.00    +0.000 C 
ATOM      5  C   UNL     1     -18.597   6.265  -2.198  0.00  0.00    +0.000 C 
ATOM      6  C   UNL     1     -19.440   4.999  -2.467  0.00  0.00    +0.000 C 
ATOM      7  C   UNL     1     -15.884   9.649  -1.546  0.00  0.00    +0.000 C 
ATOM      8  C   UNL     1     -17.961   8.738  -2.601  0.00  0.00    +0.000 C 
ATOM      9  C   UNL     1     -18.607   7.436  -3.004  0.00  0.00    +0.000 C 
ATOM     10  C   UNL     1     -15.630   7.636  -0.280  0.00  0.00    +0.000 C 
ATOM     11  C   UNL     1     -17.601   5.279  -0.217  0.00  0.00    +0.000 C 
ATOM     12  C   UNL     1     -14.931   8.826  -0.882  0.00  0.00    +0.000 C 
ATOM     13  C   UNL     1     -18.967   3.649  -1.630  0.00  0.00    +0.000 C 
ATOM     14  C   UNL     1     -18.106   9.986  -0.399  0.00  0.00    +0.000 C 
ATOM     15  C   UNL     1     -18.161   3.917  -0.496  0.00  0.00    +0.000 C 
ATOM     16  C   UNL     1     -19.292   4.569  -3.897  0.00  0.00    +0.000 C 
ATOM     17  C   UNL     1     -20.923   5.266  -2.096  0.00  0.00    +0.000 C 
ATOM     18  C   UNL     1     -18.933   3.217  -4.555  0.00  0.00    +0.000 C 
ATOM     19  C   UNL     1     -18.718   2.556  -2.319  0.00  0.00    +0.000 C 
ATOM     20  C   UNL     1     -18.624   2.092  -3.695  0.00  0.00    +0.000 C 
ENDROOT
BRANCH   7  21
ATOM     21  C   UNL     1     -15.575  10.864  -2.259  0.00  0.00    +0.000 C 
ATOM     22  O   UNL     1     -16.201  11.300  -3.210  0.00  0.00    +0.000 OA
ATOM     23  C   UNL     1     -14.490  11.810  -1.863  0.00  0.00    +0.000 C 
ENDBRANCH   7  21
TORSDOF 1
ENDMDL
MODEL 8
REMARK VINA RESULT:      -4.9      2.065      3.594
REMARK  Name = Progesterone.pdbqt.pdb
REMARK  1 active torsions:
REMARK  status: ('A' for Active; 'I' for Inactive)
REMARK    1  A    between atoms: C_7  and  C_21
REMARK                            x       y       z     vdW  Elec       q    Type
REMARK                         _______ _______ _______ _____ _____    ______ ____
ROOT
ATOM      1  O   UNL     1     -17.494   0.757  -3.016  0.00  0.00    +0.000 OA
ATOM      2  C   UNL     1     -15.342   8.102  -2.825  0.00  0.00    +0.000 C 
ATOM      3  C   UNL     1     -16.422   9.315  -2.769  0.00  0.00    +0.000 C 
ATOM      4  C   UNL     1     -15.637   6.755  -2.300  0.00  0.00    +0.000 C 
ATOM      5  C   UNL     1     -16.991   6.235  -1.907  0.00  0.00    +0.000 C 
ATOM      6  C   UNL     1     -17.230   4.857  -1.250  0.00  0.00    +0.000 C 
ATOM      7  C   UNL     1     -16.277   9.954  -4.118  0.00  0.00    +0.000 C 
ATOM      8  C   UNL     1     -17.699   8.641  -2.533  0.00  0.00    +0.000 C 
ATOM      9  C   UNL     1     -17.993   7.224  -2.107  0.00  0.00    +0.000 C 
ATOM     10  C   UNL     1     -14.596   8.256  -4.037  0.00  0.00    +0.000 C 
ATOM     11  C   UNL     1     -14.638   5.754  -2.252  0.00  0.00    +0.000 C 
ATOM     12  C   UNL     1     -15.194   9.379  -4.841  0.00  0.00    +0.000 C 
ATOM     13  C   UNL     1     -16.020   3.749  -1.485  0.00  0.00    +0.000 C 
ATOM     14  C   UNL     1     -15.966  10.260  -1.634  0.00  0.00    +0.000 C 
ATOM     15  C   UNL     1     -14.779   4.311  -1.871  0.00  0.00    +0.000 C 
ATOM     16  C   UNL     1     -18.420   4.183  -1.869  0.00  0.00    +0.000 C 
ATOM     17  C   UNL     1     -17.397   5.028   0.283  0.00  0.00    +0.000 C 
ATOM     18  C   UNL     1     -18.631   2.779  -2.478  0.00  0.00    +0.000 C 
ATOM     19  C   UNL     1     -16.350   2.578  -1.989  0.00  0.00    +0.000 C 
ATOM     20  C   UNL     1     -17.499   1.876  -2.540  0.00  0.00    +0.000 C 
ENDROOT
BRANCH   7  21
ATOM     21  C   UNL     1     -17.103  11.039  -4.589  0.00  0.00    +0.000 C 
ATOM     22  O   UNL     1     -17.552  11.935  -3.894  0.00  0.00    +0.000 OA
ATOM     23  C   UNL     1     -17.445  11.264  -6.025  0.00  0.00    +0.000 C 
ENDBRANCH   7  21
TORSDOF 1
ENDMDL
MODEL 9
REMARK VINA RESULT:      -4.8     17.561     20.228
REMARK  Name = Progesterone.pdbqt.pdb
REMARK  1 active torsions:
REMARK  status: ('A' for Active; 'I' for Inactive)
REMARK    1  A    between atoms: C_7  and  C_21
REMARK                            x       y       z     vdW  Elec       q    Type
REMARK                         _______ _______ _______ _____ _____    ______ ____
ROOT
ATOM      1  O   UNL     1      -9.795  23.009   5.399  0.00  0.00    +0.000 OA
ATOM      2  C   UNL     1      -5.976  20.064  11.345  0.00  0.00    +0.000 C 
ATOM      3  C   UNL     1      -5.209  18.635  11.254  0.00  0.00    +0.000 C 
ATOM      4  C   UNL     1      -6.209  20.915  10.162  0.00  0.00    +0.000 C 
ATOM      5  C   UNL     1      -6.036  20.502   8.727  0.00  0.00    +0.000 C 
ATOM      6  C   UNL     1      -6.178  21.466   7.528  0.00  0.00    +0.000 C 
ATOM      7  C   UNL     1      -6.033  17.755  12.146  0.00  0.00    +0.000 C 
ATOM      8  C   UNL     1      -5.256  18.298   9.831  0.00  0.00    +0.000 C 
ATOM      9  C   UNL     1      -5.610  19.148   8.636  0.00  0.00    +0.000 C 
ATOM     10  C   UNL     1      -6.985  19.939  12.353  0.00  0.00    +0.000 C 
ATOM     11  C   UNL     1      -6.770  22.207  10.289  0.00  0.00    +0.000 C 
ATOM     12  C   UNL     1      -7.034  18.509  12.821  0.00  0.00    +0.000 C 
ATOM     13  C   UNL     1      -7.053  22.840   7.832  0.00  0.00    +0.000 C 
ATOM     14  C   UNL     1      -3.788  18.859  11.821  0.00  0.00    +0.000 C 
ATOM     15  C   UNL     1      -7.187  23.156   9.206  0.00  0.00    +0.000 C 
ATOM     16  C   UNL     1      -6.959  20.814   6.425  0.00  0.00    +0.000 C 
ATOM     17  C   UNL     1      -4.773  21.919   7.050  0.00  0.00    +0.000 C 
ATOM     18  C   UNL     1      -8.192  21.261   5.606  0.00  0.00    +0.000 C 
ATOM     19  C   UNL     1      -8.065  23.112   7.035  0.00  0.00    +0.000 C 
ATOM     20  C   UNL     1      -8.807  22.534   5.925  0.00  0.00    +0.000 C 
ENDROOT
BRANCH   7  21
ATOM     21  C   UNL     1      -5.800  16.343  12.323  0.00  0.00    +0.000 C 
ATOM     22  O   UNL     1      -6.072  15.477  11.508  0.00  0.00    +0.000 OA
ATOM     23  C   UNL     1      -5.099  15.755  13.503  0.00  0.00    +0.000 C 
ENDBRANCH   7  21
TORSDOF 1
ENDMDL
