MODEL 1
REMARK VINA RESULT:      -5.6      0.000      0.000
REMARK  Name = Quercetin.pdbqt.pdb
REMARK  6 active torsions:
REMARK  status: ('A' for Active; 'I' for Inactive)
REMARK    1  A    between atoms: C_5  and  C_12
REMARK    2  A    between atoms: C_6  and  O_22
REMARK    3  A    between atoms: C_8  and  O_24
REMARK    4  A    between atoms: C_10  and  O_26
REMARK    5  A    between atoms: C_15  and  O_18
REMARK    6  A    between atoms: C_17  and  O_20
REMARK                            x       y       z     vdW  Elec       q    Type
REMARK                         _______ _______ _______ _____ _____    ______ ____
ROOT
ATOM      1  O   UNL     1     -13.485  18.822  20.959  0.00  0.00    +0.000 OA
ATOM      2  O   UNL     1     -13.298  18.160  24.965  0.00  0.00    +0.000 OA
ATOM      3  C   UNL     1     -14.601  18.695  23.108  0.00  0.00    +0.000 A 
ATOM      4  C   UNL     1     -14.608  18.915  21.735  0.00  0.00    +0.000 A 
ATOM      5  C   UNL     1     -12.283  18.476  21.558  0.00  0.00    +0.000 A 
ATOM      6  C   UNL     1     -12.125  18.247  22.880  0.00  0.00    +0.000 A 
ATOM      7  C   UNL     1     -13.330  18.349  23.752  0.00  0.00    +0.000 A 
ATOM      8  C   UNL     1     -15.789  18.809  23.841  0.00  0.00    +0.000 A 
ATOM      9  C   UNL     1     -15.795  19.248  21.086  0.00  0.00    +0.000 A 
ATOM     10  C   UNL     1     -16.971  19.358  21.823  0.00  0.00    +0.000 A 
ATOM     11  C   UNL     1     -16.977  19.141  23.197  0.00  0.00    +0.000 A 
ENDROOT
BRANCH   5  12
ATOM     12  C   UNL     1     -11.184  18.396  20.584  0.00  0.00    +0.000 A 
ATOM     13  C   UNL     1     -11.069  17.305  19.717  0.00  0.00    +0.000 A 
ATOM     14  C   UNL     1     -10.274  19.455  20.479  0.00  0.00    +0.000 A 
ATOM     15  C   UNL     1     -10.043  17.274  18.781  0.00  0.00    +0.000 A 
ATOM     16  C   UNL     1      -9.255  19.429  19.527  0.00  0.00    +0.000 A 
ATOM     17  C   UNL     1      -9.158  18.340  18.671  0.00  0.00    +0.000 A 
BRANCH  15  18
ATOM     18  O   UNL     1      -9.900  16.164  18.001  0.00  0.00    +0.000 OA
ATOM     19  H   UNL     1     -10.320  16.361  17.143  0.00  0.00    +0.000 HD
ENDBRANCH  15  18
BRANCH  17  20
ATOM     20  O   UNL     1      -8.196  18.342  17.704  0.00  0.00    +0.000 OA
ATOM     21  H   UNL     1      -7.820  19.242  17.687  0.00  0.00    +0.000 HD
ENDBRANCH  17  20
ENDBRANCH   5  12
BRANCH   6  22
ATOM     22  O   UNL     1     -10.929  17.940  23.501  0.00  0.00    +0.000 OA
ATOM     23  H   UNL     1     -11.056  17.878  24.461  0.00  0.00    +0.000 HD
ENDBRANCH   6  22
BRANCH   8  24
ATOM     24  O   UNL     1     -15.856  18.609  25.193  0.00  0.00    +0.000 OA
ATOM     25  H   UNL     1     -16.666  19.056  25.532  0.00  0.00    +0.000 HD
ENDBRANCH   8  24
BRANCH  10  26
ATOM     26  O   UNL     1     -18.120  19.686  21.165  0.00  0.00    +0.000 OA
ATOM     27  H   UNL     1     -18.604  20.335  21.706  0.00  0.00    +0.000 HD
ENDBRANCH  10  26
TORSDOF 6
ENDMDL
MODEL 2
REMARK VINA RESULT:      -5.6     15.869     17.370
REMARK  Name = Quercetin.pdbqt.pdb
REMARK  6 active torsions:
REMARK  status: ('A' for Active; 'I' for Inactive)
REMARK    1  A    between atoms: C_5  and  C_12
REMARK    2  A    between atoms: C_6  and  O_22
REMARK    3  A    between atoms: C_8  and  O_24
REMARK    4  A    between atoms: C_10  and  O_26
REMARK    5  A    between atoms: C_15  and  O_18
REMARK    6  A    between atoms: C_17  and  O_20
REMARK                            x       y       z     vdW  Elec       q    Type
REMARK                         _______ _______ _______ _____ _____    ______ ____
ROOT
ATOM      1  O   UNL     1     -21.152   5.437  17.246  0.00  0.00    +0.000 OA
ATOM      2  O   UNL     1     -24.228   7.893  18.262  0.00  0.00    +0.000 OA
ATOM      3  C   UNL     1     -22.085   7.672  17.372  0.00  0.00    +0.000 A 
ATOM      4  C   UNL     1     -21.062   6.787  17.047  0.00  0.00    +0.000 A 
ATOM      5  C   UNL     1     -22.321   4.915  17.782  0.00  0.00    +0.000 A 
ATOM      6  C   UNL     1     -23.387   5.654  18.156  0.00  0.00    +0.000 A 
ATOM      7  C   UNL     1     -23.315   7.130  17.958  0.00  0.00    +0.000 A 
ATOM      8  C   UNL     1     -21.923   9.044  17.142  0.00  0.00    +0.000 A 
ATOM      9  C   UNL     1     -19.876   7.264  16.491  0.00  0.00    +0.000 A 
ATOM     10  C   UNL     1     -19.726   8.628  16.265  0.00  0.00    +0.000 A 
ATOM     11  C   UNL     1     -20.740   9.524  16.586  0.00  0.00    +0.000 A 
ENDROOT
BRANCH   5  12
ATOM     12  C   UNL     1     -22.263   3.451  17.908  0.00  0.00    +0.000 A 
ATOM     13  C   UNL     1     -22.805   2.622  16.921  0.00  0.00    +0.000 A 
ATOM     14  C   UNL     1     -21.603   2.876  19.002  0.00  0.00    +0.000 A 
ATOM     15  C   UNL     1     -22.703   1.242  17.048  0.00  0.00    +0.000 A 
ATOM     16  C   UNL     1     -21.488   1.491  19.118  0.00  0.00    +0.000 A 
ATOM     17  C   UNL     1     -22.027   0.682  18.127  0.00  0.00    +0.000 A 
BRANCH  15  18
ATOM     18  O   UNL     1     -23.309   0.451  16.117  0.00  0.00    +0.000 OA
ATOM     19  H   UNL     1     -22.826  -0.396  16.103  0.00  0.00    +0.000 HD
ENDBRANCH  15  18
BRANCH  17  20
ATOM     20  O   UNL     1     -21.864  -0.669  18.213  0.00  0.00    +0.000 OA
ATOM     21  H   UNL     1     -21.157  -0.905  17.584  0.00  0.00    +0.000 HD
ENDBRANCH  17  20
ENDBRANCH   5  12
BRANCH   6  22
ATOM     22  O   UNL     1     -24.544   5.157  18.727  0.00  0.00    +0.000 OA
ATOM     23  H   UNL     1     -24.586   4.194  18.616  0.00  0.00    +0.000 HD
ENDBRANCH   6  22
BRANCH   8  24
ATOM     24  O   UNL     1     -22.885   9.971  17.439  0.00  0.00    +0.000 OA
ATOM     25  H   UNL     1     -23.713   9.491  17.677  0.00  0.00    +0.000 HD
ENDBRANCH   8  24
BRANCH  10  26
ATOM     26  O   UNL     1     -18.556   9.070  15.720  0.00  0.00    +0.000 OA
ATOM     27  H   UNL     1     -17.820   8.682  16.227  0.00  0.00    +0.000 HD
ENDBRANCH  10  26
TORSDOF 6
ENDMDL
MODEL 3
REMARK VINA RESULT:      -5.6      3.928      6.592
REMARK  Name = Quercetin.pdbqt.pdb
REMARK  6 active torsions:
REMARK  status: ('A' for Active; 'I' for Inactive)
REMARK    1  A    between atoms: C_5  and  C_12
REMARK    2  A    between atoms: C_6  and  O_22
REMARK    3  A    between atoms: C_8  and  O_24
REMARK    4  A    between atoms: C_10  and  O_26
REMARK    5  A    between atoms: C_15  and  O_18
REMARK    6  A    between atoms: C_17  and  O_20
REMARK                            x       y       z     vdW  Elec       q    Type
REMARK                         _______ _______ _______ _____ _____    ______ ____
ROOT
ATOM      1  O   UNL     1     -14.125  16.795  25.304  0.00  0.00    +0.000 OA
ATOM      2  O   UNL     1     -13.363  19.161  28.520  0.00  0.00    +0.000 OA
ATOM      3  C   UNL     1     -13.334  17.026  27.585  0.00  0.00    +0.000 A 
ATOM      4  C   UNL     1     -13.616  16.263  26.458  0.00  0.00    +0.000 A 
ATOM      5  C   UNL     1     -14.358  18.161  25.241  0.00  0.00    +0.000 A 
ATOM      6  C   UNL     1     -14.143  19.020  26.261  0.00  0.00    +0.000 A 
ATOM      7  C   UNL     1     -13.596  18.468  27.533  0.00  0.00    +0.000 A 
ATOM      8  C   UNL     1     -12.815  16.414  28.733  0.00  0.00    +0.000 A 
ATOM      9  C   UNL     1     -13.384  14.889  26.468  0.00  0.00    +0.000 A 
ATOM     10  C   UNL     1     -12.867  14.290  27.612  0.00  0.00    +0.000 A 
ATOM     11  C   UNL     1     -12.581  15.042  28.747  0.00  0.00    +0.000 A 
ENDROOT
BRANCH   5  12
ATOM     12  C   UNL     1     -14.880  18.572  23.930  0.00  0.00    +0.000 A 
ATOM     13  C   UNL     1     -16.255  18.595  23.679  0.00  0.00    +0.000 A 
ATOM     14  C   UNL     1     -13.993  19.005  22.936  0.00  0.00    +0.000 A 
ATOM     15  C   UNL     1     -16.723  19.023  22.443  0.00  0.00    +0.000 A 
ATOM     16  C   UNL     1     -14.467  19.451  21.703  0.00  0.00    +0.000 A 
ATOM     17  C   UNL     1     -15.835  19.472  21.471  0.00  0.00    +0.000 A 
BRANCH  15  18
ATOM     18  O   UNL     1     -18.062  18.961  22.190  0.00  0.00    +0.000 OA
ATOM     19  H   UNL     1     -18.191  18.289  21.495  0.00  0.00    +0.000 HD
ENDBRANCH  15  18
BRANCH  17  20
ATOM     20  O   UNL     1     -16.299  19.961  20.285  0.00  0.00    +0.000 OA
ATOM     21  H   UNL     1     -15.543  20.394  19.848  0.00  0.00    +0.000 HD
ENDBRANCH  17  20
ENDBRANCH   5  12
BRANCH   6  22
ATOM     22  O   UNL     1     -14.405  20.377  26.231  0.00  0.00    +0.000 OA
ATOM     23  H   UNL     1     -14.482  20.723  27.134  0.00  0.00    +0.000 HD
ENDBRANCH   6  22
BRANCH   8  24
ATOM     24  O   UNL     1     -12.516  17.103  29.877  0.00  0.00    +0.000 OA
ATOM     25  H   UNL     1     -11.615  16.834  30.173  0.00  0.00    +0.000 HD
ENDBRANCH   8  24
BRANCH  10  26
ATOM     26  O   UNL     1     -12.648  12.944  27.598  0.00  0.00    +0.000 OA
ATOM     27  H   UNL     1     -12.554  12.662  26.670  0.00  0.00    +0.000 HD
ENDBRANCH  10  26
TORSDOF 6
ENDMDL
MODEL 4
REMARK VINA RESULT:      -5.4     24.760     26.795
REMARK  Name = Quercetin.pdbqt.pdb
REMARK  6 active torsions:
REMARK  status: ('A' for Active; 'I' for Inactive)
REMARK    1  A    between atoms: C_5  and  C_12
REMARK    2  A    between atoms: C_6  and  O_22
REMARK    3  A    between atoms: C_8  and  O_24
REMARK    4  A    between atoms: C_10  and  O_26
REMARK    5  A    between atoms: C_15  and  O_18
REMARK    6  A    between atoms: C_17  and  O_20
REMARK                            x       y       z     vdW  Elec       q    Type
REMARK                         _______ _______ _______ _____ _____    ______ ____
ROOT
ATOM      1  O   UNL     1      -4.301   3.124   2.793  0.00  0.00    +0.000 OA
ATOM      2  O   UNL     1      -1.432   0.284   3.267  0.00  0.00    +0.000 OA
ATOM      3  C   UNL     1      -1.954   2.529   2.918  0.00  0.00    +0.000 A 
ATOM      4  C   UNL     1      -2.975   3.459   2.758  0.00  0.00    +0.000 A 
ATOM      5  C   UNL     1      -4.653   1.800   3.014  0.00  0.00    +0.000 A 
ATOM      6  C   UNL     1      -3.770   0.791   3.174  0.00  0.00    +0.000 A 
ATOM      7  C   UNL     1      -2.318   1.125   3.132  0.00  0.00    +0.000 A 
ATOM      8  C   UNL     1      -0.617   2.943   2.869  0.00  0.00    +0.000 A 
ATOM      9  C   UNL     1      -2.671   4.803   2.549  0.00  0.00    +0.000 A 
ATOM     10  C   UNL     1      -1.340   5.204   2.503  0.00  0.00    +0.000 A 
ATOM     11  C   UNL     1      -0.308   4.284   2.661  0.00  0.00    +0.000 A 
ENDROOT
BRANCH   5  12
ATOM     12  C   UNL     1      -6.111   1.615   3.046  0.00  0.00    +0.000 A 
ATOM     13  C   UNL     1      -6.788   1.440   4.258  0.00  0.00    +0.000 A 
ATOM     14  C   UNL     1      -6.844   1.676   1.854  0.00  0.00    +0.000 A 
ATOM     15  C   UNL     1      -8.170   1.305   4.262  0.00  0.00    +0.000 A 
ATOM     16  C   UNL     1      -8.233   1.557   1.863  0.00  0.00    +0.000 A 
ATOM     17  C   UNL     1      -8.889   1.388   3.074  0.00  0.00    +0.000 A 
BRANCH  15  18
ATOM     18  O   UNL     1      -8.802   1.053   5.444  0.00  0.00    +0.000 OA
ATOM     19  H   UNL     1      -9.240   1.881   5.716  0.00  0.00    +0.000 HD
ENDBRANCH  15  18
BRANCH  17  20
ATOM     20  O   UNL     1     -10.252   1.328   3.087  0.00  0.00    +0.000 OA
ATOM     21  H   UNL     1     -10.538   1.693   3.945  0.00  0.00    +0.000 HD
ENDBRANCH  17  20
ENDBRANCH   5  12
BRANCH   6  22
ATOM     22  O   UNL     1      -4.100  -0.539   3.356  0.00  0.00    +0.000 OA
ATOM     23  H   UNL     1      -4.481  -0.672   4.238  0.00  0.00    +0.000 HD
ENDBRANCH   6  22
BRANCH   8  24
ATOM     24  O   UNL     1       0.438   2.084   3.016  0.00  0.00    +0.000 OA
ATOM     25  H   UNL     1       1.004   2.148   2.212  0.00  0.00    +0.000 HD
ENDBRANCH   8  24
BRANCH  10  26
ATOM     26  O   UNL     1      -1.068   6.525   2.298  0.00  0.00    +0.000 OA
ATOM     27  H   UNL     1      -1.814   6.916   1.809  0.00  0.00    +0.000 HD
ENDBRANCH  10  26
TORSDOF 6
ENDMDL
MODEL 5
REMARK VINA RESULT:      -5.2     12.613     15.006
REMARK  Name = Quercetin.pdbqt.pdb
REMARK  6 active torsions:
REMARK  status: ('A' for Active; 'I' for Inactive)
REMARK    1  A    between atoms: C_5  and  C_12
REMARK    2  A    between atoms: C_6  and  O_22
REMARK    3  A    between atoms: C_8  and  O_24
REMARK    4  A    between atoms: C_10  and  O_26
REMARK    5  A    between atoms: C_15  and  O_18
REMARK    6  A    between atoms: C_17  and  O_20
REMARK                            x       y       z     vdW  Elec       q    Type
REMARK                         _______ _______ _______ _____ _____    ______ ____
ROOT
ATOM      1  O   UNL     1      -2.207  15.173  11.252  0.00  0.00    +0.000 OA
ATOM      2  O   UNL     1      -5.654  15.274  13.405  0.00  0.00    +0.000 OA
ATOM      3  C   UNL     1      -4.528  15.848  11.446  0.00  0.00    +0.000 A 
ATOM      4  C   UNL     1      -3.324  15.787  10.754  0.00  0.00    +0.000 A 
ATOM      5  C   UNL     1      -2.276  14.564  12.497  0.00  0.00    +0.000 A 
ATOM      6  C   UNL     1      -3.373  14.555  13.284  0.00  0.00    +0.000 A 
ATOM      7  C   UNL     1      -4.603  15.225  12.771  0.00  0.00    +0.000 A 
ATOM      8  C   UNL     1      -5.631  16.496  10.875  0.00  0.00    +0.000 A 
ATOM      9  C   UNL     1      -3.211  16.370   9.493  0.00  0.00    +0.000 A 
ATOM     10  C   UNL     1      -4.313  17.011   8.934  0.00  0.00    +0.000 A 
ATOM     11  C   UNL     1      -5.524  17.079   9.616  0.00  0.00    +0.000 A 
ENDROOT
BRANCH   5  12
ATOM     12  C   UNL     1      -1.003  13.932  12.872  0.00  0.00    +0.000 A 
ATOM     13  C   UNL     1      -0.752  12.588  12.576  0.00  0.00    +0.000 A 
ATOM     14  C   UNL     1      -0.001  14.699  13.481  0.00  0.00    +0.000 A 
ATOM     15  C   UNL     1       0.474  12.026  12.908  0.00  0.00    +0.000 A 
ATOM     16  C   UNL     1       1.234  14.136  13.798  0.00  0.00    +0.000 A 
ATOM     17  C   UNL     1       1.468  12.803  13.493  0.00  0.00    +0.000 A 
BRANCH  15  18
ATOM     18  O   UNL     1       0.667  10.695  12.685  0.00  0.00    +0.000 OA
ATOM     19  H   UNL     1       1.504  10.450  13.123  0.00  0.00    +0.000 HD
ENDBRANCH  15  18
BRANCH  17  20
ATOM     20  O   UNL     1       2.697  12.269  13.753  0.00  0.00    +0.000 OA
ATOM     21  H   UNL     1       2.603  11.302  13.672  0.00  0.00    +0.000 HD
ENDBRANCH  17  20
ENDBRANCH   5  12
BRANCH   6  22
ATOM     22  O   UNL     1      -3.450  13.989  14.542  0.00  0.00    +0.000 OA
ATOM     23  H   UNL     1      -3.400  13.023  14.479  0.00  0.00    +0.000 HD
ENDBRANCH   6  22
BRANCH   8  24
ATOM     24  O   UNL     1      -6.845  16.595  11.499  0.00  0.00    +0.000 OA
ATOM     25  H   UNL     1      -6.743  16.277  12.426  0.00  0.00    +0.000 HD
ENDBRANCH   8  24
BRANCH  10  26
ATOM     26  O   UNL     1      -4.178  17.573   7.699  0.00  0.00    +0.000 OA
ATOM     27  H   UNL     1      -3.862  18.487   7.815  0.00  0.00    +0.000 HD
ENDBRANCH  10  26
TORSDOF 6
ENDMDL
MODEL 6
REMARK VINA RESULT:      -5.2     13.362     14.815
REMARK  Name = Quercetin.pdbqt.pdb
REMARK  6 active torsions:
REMARK  status: ('A' for Active; 'I' for Inactive)
REMARK    1  A    between atoms: C_5  and  C_12
REMARK    2  A    between atoms: C_6  and  O_22
REMARK    3  A    between atoms: C_8  and  O_24
REMARK    4  A    between atoms: C_10  and  O_26
REMARK    5  A    between atoms: C_15  and  O_18
REMARK    6  A    between atoms: C_17  and  O_20
REMARK                            x       y       z     vdW  Elec       q    Type
REMARK                         _______ _______ _______ _____ _____    ______ ____
ROOT
ATOM      1  O   UNL     1     -11.339   4.914  20.466  0.00  0.00    +0.000 OA
ATOM      2  O   UNL     1     -13.677   1.656  21.132  0.00  0.00    +0.000 OA
ATOM      3  C   UNL     1     -12.950   3.749  21.855  0.00  0.00    +0.000 A 
ATOM      4  C   UNL     1     -12.129   4.837  21.581  0.00  0.00    +0.000 A 
ATOM      5  C   UNL     1     -11.364   3.869  19.554  0.00  0.00    +0.000 A 
ATOM      6  C   UNL     1     -12.102   2.747  19.697  0.00  0.00    +0.000 A 
ATOM      7  C   UNL     1     -12.967   2.632  20.906  0.00  0.00    +0.000 A 
ATOM      8  C   UNL     1     -13.732   3.738  23.017  0.00  0.00    +0.000 A 
ATOM      9  C   UNL     1     -12.083   5.918  22.460  0.00  0.00    +0.000 A 
ATOM     10  C   UNL     1     -12.864   5.898  23.611  0.00  0.00    +0.000 A 
ATOM     11  C   UNL     1     -13.689   4.815  23.898  0.00  0.00    +0.000 A 
ENDROOT
BRANCH   5  12
ATOM     12  C   UNL     1     -10.480   4.118  18.406  0.00  0.00    +0.000 A 
ATOM     13  C   UNL     1      -9.216   3.525  18.330  0.00  0.00    +0.000 A 
ATOM     14  C   UNL     1     -10.932   4.910  17.343  0.00  0.00    +0.000 A 
ATOM     15  C   UNL     1      -8.416   3.748  17.216  0.00  0.00    +0.000 A 
ATOM     16  C   UNL     1     -10.133   5.118  16.219  0.00  0.00    +0.000 A 
ATOM     17  C   UNL     1      -8.883   4.519  16.157  0.00  0.00    +0.000 A 
BRANCH  15  18
ATOM     18  O   UNL     1      -7.155   3.228  17.199  0.00  0.00    +0.000 OA
ATOM     19  H   UNL     1      -6.797   3.376  16.304  0.00  0.00    +0.000 HD
ENDBRANCH  15  18
BRANCH  17  20
ATOM     20  O   UNL     1      -8.127   4.677  15.032  0.00  0.00    +0.000 OA
ATOM     21  H   UNL     1      -7.197   4.566  15.305  0.00  0.00    +0.000 HD
ENDBRANCH  17  20
ENDBRANCH   5  12
BRANCH   6  22
ATOM     22  O   UNL     1     -12.111   1.679  18.820  0.00  0.00    +0.000 OA
ATOM     23  H   UNL     1     -11.274   1.190  18.877  0.00  0.00    +0.000 HD
ENDBRANCH   6  22
BRANCH   8  24
ATOM     24  O   UNL     1     -14.560   2.701  23.351  0.00  0.00    +0.000 OA
ATOM     25  H   UNL     1     -14.377   2.448  24.286  0.00  0.00    +0.000 HD
ENDBRANCH   8  24
BRANCH  10  26
ATOM     26  O   UNL     1     -12.802   6.967  24.455  0.00  0.00    +0.000 OA
ATOM     27  H   UNL     1     -13.699   7.336  24.544  0.00  0.00    +0.000 HD
ENDBRANCH  10  26
TORSDOF 6
ENDMDL
MODEL 7
REMARK VINA RESULT:      -5.2     24.722     26.852
REMARK  Name = Quercetin.pdbqt.pdb
REMARK  6 active torsions:
REMARK  status: ('A' for Active; 'I' for Inactive)
REMARK    1  A    between atoms: C_5  and  C_12
REMARK    2  A    between atoms: C_6  and  O_22
REMARK    3  A    between atoms: C_8  and  O_24
REMARK    4  A    between atoms: C_10  and  O_26
REMARK    5  A    between atoms: C_15  and  O_18
REMARK    6  A    between atoms: C_17  and  O_20
REMARK                            x       y       z     vdW  Elec       q    Type
REMARK                         _______ _______ _______ _____ _____    ______ ____
ROOT
ATOM      1  O   UNL     1      -0.625   7.406   0.249  0.00  0.00    +0.000 OA
ATOM      2  O   UNL     1      -2.923   6.439   3.460  0.00  0.00    +0.000 OA
ATOM      3  C   UNL     1      -0.790   6.613   2.534  0.00  0.00    +0.000 A 
ATOM      4  C   UNL     1      -0.052   6.954   1.406  0.00  0.00    +0.000 A 
ATOM      5  C   UNL     1      -2.003   7.551   0.195  0.00  0.00    +0.000 A 
ATOM      6  C   UNL     1      -2.844   7.248   1.208  0.00  0.00    +0.000 A 
ATOM      7  C   UNL     1      -2.249   6.744   2.478  0.00  0.00    +0.000 A 
ATOM      8  C   UNL     1      -0.137   6.155   3.685  0.00  0.00    +0.000 A 
ATOM      9  C   UNL     1       1.337   6.840   1.418  0.00  0.00    +0.000 A 
ATOM     10  C   UNL     1       1.976   6.385   2.567  0.00  0.00    +0.000 A 
ATOM     11  C   UNL     1       1.250   6.040   3.702  0.00  0.00    +0.000 A 
ENDROOT
BRANCH   5  12
ATOM     12  C   UNL     1      -2.453   8.069  -1.105  0.00  0.00    +0.000 A 
ATOM     13  C   UNL     1      -2.381   9.434  -1.400  0.00  0.00    +0.000 A 
ATOM     14  C   UNL     1      -2.903   7.177  -2.087  0.00  0.00    +0.000 A 
ATOM     15  C   UNL     1      -2.778   9.890  -2.651  0.00  0.00    +0.000 A 
ATOM     16  C   UNL     1      -3.284   7.637  -3.347  0.00  0.00    +0.000 A 
ATOM     17  C   UNL     1      -3.203   8.994  -3.626  0.00  0.00    +0.000 A 
BRANCH  15  18
ATOM     18  O   UNL     1      -2.777  11.233  -2.890  0.00  0.00    +0.000 OA
ATOM     19  H   UNL     1      -3.433  11.399  -3.592  0.00  0.00    +0.000 HD
ENDBRANCH  15  18
BRANCH  17  20
ATOM     20  O   UNL     1      -3.522   9.435  -4.876  0.00  0.00    +0.000 OA
ATOM     21  H   UNL     1      -3.910   8.674  -5.348  0.00  0.00    +0.000 HD
ENDBRANCH  17  20
ENDBRANCH   5  12
BRANCH   6  22
ATOM     22  O   UNL     1      -4.222   7.347   1.160  0.00  0.00    +0.000 OA
ATOM     23  H   UNL     1      -4.536   7.972   1.833  0.00  0.00    +0.000 HD
ENDBRANCH   6  22
BRANCH   8  24
ATOM     24  O   UNL     1      -0.798   5.800   4.830  0.00  0.00    +0.000 OA
ATOM     25  H   UNL     1      -0.222   6.016   5.600  0.00  0.00    +0.000 HD
ENDBRANCH   8  24
BRANCH  10  26
ATOM     26  O   UNL     1       3.337   6.283   2.554  0.00  0.00    +0.000 OA
ATOM     27  H   UNL     1       3.690   6.844   3.268  0.00  0.00    +0.000 HD
ENDBRANCH  10  26
TORSDOF 6
ENDMDL
MODEL 8
REMARK VINA RESULT:      -5.2     24.850     26.145
REMARK  Name = Quercetin.pdbqt.pdb
REMARK  6 active torsions:
REMARK  status: ('A' for Active; 'I' for Inactive)
REMARK    1  A    between atoms: C_5  and  C_12
REMARK    2  A    between atoms: C_6  and  O_22
REMARK    3  A    between atoms: C_8  and  O_24
REMARK    4  A    between atoms: C_10  and  O_26
REMARK    5  A    between atoms: C_15  and  O_18
REMARK    6  A    between atoms: C_17  and  O_20
REMARK                            x       y       z     vdW  Elec       q    Type
REMARK                         _______ _______ _______ _____ _____    ______ ____
ROOT
ATOM      1  O   UNL     1      -7.151   1.539   1.797  0.00  0.00    +0.000 OA
ATOM      2  O   UNL     1      -9.040   0.979   5.352  0.00  0.00    +0.000 OA
ATOM      3  C   UNL     1      -9.198   1.135   3.031  0.00  0.00    +0.000 A 
ATOM      4  C   UNL     1      -8.503   1.336   1.844  0.00  0.00    +0.000 A 
ATOM      5  C   UNL     1      -6.429   1.530   2.981  0.00  0.00    +0.000 A 
ATOM      6  C   UNL     1      -6.973   1.360   4.206  0.00  0.00    +0.000 A 
ATOM      7  C   UNL     1      -8.446   1.144   4.289  0.00  0.00    +0.000 A 
ATOM      8  C   UNL     1     -10.584   0.934   3.005  0.00  0.00    +0.000 A 
ATOM      9  C   UNL     1      -9.183   1.337   0.627  0.00  0.00    +0.000 A 
ATOM     10  C   UNL     1     -10.559   1.135   0.612  0.00  0.00    +0.000 A 
ATOM     11  C   UNL     1     -11.267   0.934   1.792  0.00  0.00    +0.000 A 
ENDROOT
BRANCH   5  12
ATOM     12  C   UNL     1      -4.992   1.739   2.754  0.00  0.00    +0.000 A 
ATOM     13  C   UNL     1      -4.506   2.972   2.310  0.00  0.00    +0.000 A 
ATOM     14  C   UNL     1      -4.088   0.709   3.043  0.00  0.00    +0.000 A 
ATOM     15  C   UNL     1      -3.139   3.153   2.138  0.00  0.00    +0.000 A 
ATOM     16  C   UNL     1      -2.716   0.899   2.887  0.00  0.00    +0.000 A 
ATOM     17  C   UNL     1      -2.249   2.131   2.450  0.00  0.00    +0.000 A 
BRANCH  15  18
ATOM     18  O   UNL     1      -2.693   4.336   1.627  0.00  0.00    +0.000 OA
ATOM     19  H   UNL     1      -3.360   4.639   0.983  0.00  0.00    +0.000 HD
ENDBRANCH  15  18
BRANCH  17  20
ATOM     20  O   UNL     1      -0.904   2.333   2.351  0.00  0.00    +0.000 OA
ATOM     21  H   UNL     1      -0.670   2.985   3.038  0.00  0.00    +0.000 HD
ENDBRANCH  17  20
ENDBRANCH   5  12
BRANCH   6  22
ATOM     22  O   UNL     1      -6.278   1.387   5.400  0.00  0.00    +0.000 OA
ATOM     23  H   UNL     1      -5.803   0.551   5.531  0.00  0.00    +0.000 HD
ENDBRANCH   6  22
BRANCH   8  24
ATOM     24  O   UNL     1     -11.332   0.733   4.134  0.00  0.00    +0.000 OA
ATOM     25  H   UNL     1     -12.176   1.233   4.038  0.00  0.00    +0.000 HD
ENDBRANCH   8  24
BRANCH  10  26
ATOM     26  O   UNL     1     -11.202   1.141  -0.591  0.00  0.00    +0.000 OA
ATOM     27  H   UNL     1     -10.723   0.543  -1.193  0.00  0.00    +0.000 HD
ENDBRANCH  10  26
TORSDOF 6
ENDMDL
MODEL 9
REMARK VINA RESULT:      -5.1     13.425     16.210
REMARK  Name = Quercetin.pdbqt.pdb
REMARK  6 active torsions:
REMARK  status: ('A' for Active; 'I' for Inactive)
REMARK    1  A    between atoms: C_5  and  C_12
REMARK    2  A    between atoms: C_6  and  O_22
REMARK    3  A    between atoms: C_8  and  O_24
REMARK    4  A    between atoms: C_10  and  O_26
REMARK    5  A    between atoms: C_15  and  O_18
REMARK    6  A    between atoms: C_17  and  O_20
REMARK                            x       y       z     vdW  Elec       q    Type
REMARK                         _______ _______ _______ _____ _____    ______ ____
ROOT
ATOM      1  O   UNL     1      -2.082  14.616  11.921  0.00  0.00    +0.000 OA
ATOM      2  O   UNL     1      -0.689  17.393   9.299  0.00  0.00    +0.000 OA
ATOM      3  C   UNL     1      -2.520  16.435  10.379  0.00  0.00    +0.000 A 
ATOM      4  C   UNL     1      -2.942  15.466  11.281  0.00  0.00    +0.000 A 
ATOM      5  C   UNL     1      -0.721  14.731  11.677  0.00  0.00    +0.000 A 
ATOM      6  C   UNL     1      -0.170  15.616  10.818  0.00  0.00    +0.000 A 
ATOM      7  C   UNL     1      -1.085  16.550  10.100  0.00  0.00    +0.000 A 
ATOM      8  C   UNL     1      -3.458  17.271   9.759  0.00  0.00    +0.000 A 
ATOM      9  C   UNL     1      -4.298  15.323  11.570  0.00  0.00    +0.000 A 
ATOM     10  C   UNL     1      -5.222  16.158  10.950  0.00  0.00    +0.000 A 
ATOM     11  C   UNL     1      -4.813  17.132  10.045  0.00  0.00    +0.000 A 
ENDROOT
BRANCH   5  12
ATOM     12  C   UNL     1       0.063  13.764  12.459  0.00  0.00    +0.000 A 
ATOM     13  C   UNL     1      -0.083  12.388  12.257  0.00  0.00    +0.000 A 
ATOM     14  C   UNL     1       1.016  14.225  13.376  0.00  0.00    +0.000 A 
ATOM     15  C   UNL     1       0.697  11.498  12.983  0.00  0.00    +0.000 A 
ATOM     16  C   UNL     1       1.810  13.330  14.091  0.00  0.00    +0.000 A 
ATOM     17  C   UNL     1       1.655  11.968  13.875  0.00  0.00    +0.000 A 
BRANCH  15  18
ATOM     18  O   UNL     1       0.481  10.160  12.830  0.00  0.00    +0.000 OA
ATOM     19  H   UNL     1       0.313   9.794  13.719  0.00  0.00    +0.000 HD
ENDBRANCH  15  18
BRANCH  17  20
ATOM     20  O   UNL     1       2.471  11.095  14.534  0.00  0.00    +0.000 OA
ATOM     21  H   UNL     1       2.332  11.249  15.487  0.00  0.00    +0.000 HD
ENDBRANCH  17  20
ENDBRANCH   5  12
BRANCH   6  22
ATOM     22  O   UNL     1       1.178  15.720  10.532  0.00  0.00    +0.000 OA
ATOM     23  H   UNL     1       1.705  15.490  11.313  0.00  0.00    +0.000 HD
ENDBRANCH   6  22
BRANCH   8  24
ATOM     24  O   UNL     1      -3.114  18.244   8.860  0.00  0.00    +0.000 OA
ATOM     25  H   UNL     1      -3.817  18.291   8.171  0.00  0.00    +0.000 HD
ENDBRANCH   8  24
BRANCH  10  26
ATOM     26  O   UNL     1      -6.543  16.000  11.250  0.00  0.00    +0.000 OA
ATOM     27  H   UNL     1      -7.059  16.157  10.438  0.00  0.00    +0.000 HD
ENDBRANCH  10  26
TORSDOF 6
ENDMDL
