MODEL 1
REMARK VINA RESULT:      -6.5      0.000      0.000
REMARK  Name = 
REMARK  11 active torsions:
REMARK  status: ('A' for Active; 'I' for Inactive)
REMARK    1  A    between atoms: O_2  and  C_16
REMARK    2  A    between atoms: O_2  and  C_18
REMARK    3  A    between atoms: O_3  and  C_12
REMARK    4  A    between atoms: O_4  and  C_13
REMARK    5  A    between atoms: O_5  and  C_14
REMARK    6  A    between atoms: O_8  and  C_24
REMARK    7  A    between atoms: O_9  and  C_29
REMARK    8  A    between atoms: O_10  and  C_30
REMARK    9  A    between atoms: O_11  and  C_32
REMARK   10  A    between atoms: C_15  and  C_17
REMARK   11  A    between atoms: C_19  and  C_23
REMARK                            x       y       z     vdW  Elec       q    Type
REMARK                         _______ _______ _______ _____ _____    ______ ____
ROOT
ATOM      1  O   UNL     1     -24.258  13.347   6.089  0.00  0.00    +0.000 OA
ATOM      2  O   UNL     1     -21.989  12.852   9.416  0.00  0.00    +0.000 OA
ATOM      3  C   UNL     1     -22.871  14.334   7.803  0.00  0.00    +0.000 A 
ATOM      4  C   UNL     1     -23.723  14.429   6.763  0.00  0.00    +0.000 A 
ATOM      5  C   UNL     1     -22.567  12.977   8.344  0.00  0.00    +0.000 A 
ATOM      6  C   UNL     1     -23.031  11.824   7.539  0.00  0.00    +0.000 A 
ATOM      7  C   UNL     1     -23.868  12.086   6.454  0.00  0.00    +0.000 A 
ATOM      8  C   UNL     1     -22.683  10.496   7.825  0.00  0.00    +0.000 A 
ATOM      9  C   UNL     1     -24.362  11.042   5.669  0.00  0.00    +0.000 A 
ATOM     10  C   UNL     1     -23.173   9.446   7.040  0.00  0.00    +0.000 A 
ATOM     11  C   UNL     1     -24.012   9.732   5.968  0.00  0.00    +0.000 A 
ENDROOT
BRANCH   4  12
ATOM     12  C   UNL     1     -24.160  15.725   6.202  0.00  0.00    +0.000 A 
ATOM     13  C   UNL     1     -23.229  16.547   5.544  0.00  0.00    +0.000 A 
ATOM     14  C   UNL     1     -25.496  16.151   6.307  0.00  0.00    +0.000 A 
ATOM     15  C   UNL     1     -23.634  17.775   5.033  0.00  0.00    +0.000 A 
ATOM     16  C   UNL     1     -25.893  17.388   5.794  0.00  0.00    +0.000 A 
ATOM     17  C   UNL     1     -24.955  18.191   5.165  0.00  0.00    +0.000 A 
BRANCH  15  18
ATOM     18  O   UNL     1     -22.765  18.615   4.393  0.00  0.00    +0.000 OA
ATOM     19  H   UNL     1     -23.224  19.453   4.211  0.00  0.00    +0.000 HD
ENDBRANCH  15  18
BRANCH  17  20
ATOM     20  O   UNL     1     -25.343  19.401   4.668  0.00  0.00    +0.000 OA
ATOM     21  H   UNL     1     -26.208  19.579   5.088  0.00  0.00    +0.000 HD
ENDBRANCH  17  20
ENDBRANCH   4  12
BRANCH   8  22
ATOM     22  O   UNL     1     -21.843  10.201   8.860  0.00  0.00    +0.000 OA
ATOM     23  H   UNL     1     -21.732  10.964   9.449  0.00  0.00    +0.000 HD
ENDBRANCH   8  22
BRANCH  11  24
ATOM     24  O   UNL     1     -24.516   8.747   5.173  0.00  0.00    +0.000 OA
ATOM     25  H   UNL     1     -24.244   8.901   4.253  0.00  0.00    +0.000 HD
ENDBRANCH  11  24
BRANCH   3  26
ATOM     26  O   UNL     1     -22.339  15.428   8.469  0.00  0.00    +0.000 OA
BRANCH  26  32
ATOM     27  O   UNL     1     -23.787  17.259   9.002  0.00  0.00    +0.000 OA
ATOM     28  C   UNL     1     -21.584  17.168  10.860  0.00  0.00    +0.000 C 
ATOM     29  C   UNL     1     -22.191  18.494  10.387  0.00  0.00    +0.000 C 
ATOM     30  C   UNL     1     -22.616  16.041  10.799  0.00  0.00    +0.000 C 
ATOM     31  C   UNL     1     -22.800  18.302   8.993  0.00  0.00    +0.000 C 
ATOM     32  C   UNL     1     -23.275  15.986   9.403  0.00  0.00    +0.000 C 
ATOM     33  C   UNL     1     -23.485  19.571   8.499  0.00  0.00    +0.000 C 
BRANCH  28  34
ATOM     34  O   UNL     1     -21.117  17.337  12.212  0.00  0.00    +0.000 OA
ATOM     35  H   UNL     1     -21.555  18.155  12.528  0.00  0.00    +0.000 HD
ENDBRANCH  28  34
BRANCH  29  36
ATOM     36  O   UNL     1     -21.172  19.498  10.384  0.00  0.00    +0.000 OA
ATOM     37  H   UNL     1     -21.230  19.925   9.506  0.00  0.00    +0.000 HD
ENDBRANCH  29  36
BRANCH  30  38
ATOM     38  O   UNL     1     -23.581  16.282  11.847  0.00  0.00    +0.000 OA
ATOM     39  H   UNL     1     -24.402  16.586  11.420  0.00  0.00    +0.000 HD
ENDBRANCH  30  38
ENDBRANCH  26  32
ENDBRANCH   3  26
TORSDOF 10
ENDMDL
MODEL 2
REMARK VINA RESULT:      -6.4     16.630     19.607
REMARK  Name = 
REMARK  11 active torsions:
REMARK  status: ('A' for Active; 'I' for Inactive)
REMARK    1  A    between atoms: O_2  and  C_16
REMARK    2  A    between atoms: O_2  and  C_18
REMARK    3  A    between atoms: O_3  and  C_12
REMARK    4  A    between atoms: O_4  and  C_13
REMARK    5  A    between atoms: O_5  and  C_14
REMARK    6  A    between atoms: O_8  and  C_24
REMARK    7  A    between atoms: O_9  and  C_29
REMARK    8  A    between atoms: O_10  and  C_30
REMARK    9  A    between atoms: O_11  and  C_32
REMARK   10  A    between atoms: C_15  and  C_17
REMARK   11  A    between atoms: C_19  and  C_23
REMARK                            x       y       z     vdW  Elec       q    Type
REMARK                         _______ _______ _______ _____ _____    ______ ____
ROOT
ATOM      1  O   UNL     1     -13.128  19.219  21.099  0.00  0.00    +0.000 OA
ATOM      2  O   UNL     1     -13.554  17.792  24.874  0.00  0.00    +0.000 OA
ATOM      3  C   UNL     1     -12.308  17.793  22.868  0.00  0.00    +0.000 A 
ATOM      4  C   UNL     1     -12.177  18.392  21.668  0.00  0.00    +0.000 A 
ATOM      5  C   UNL     1     -13.503  18.127  23.696  0.00  0.00    +0.000 A 
ATOM      6  C   UNL     1     -14.576  18.900  23.031  0.00  0.00    +0.000 A 
ATOM      7  C   UNL     1     -14.312  19.413  21.761  0.00  0.00    +0.000 A 
ATOM      8  C   UNL     1     -15.824  19.148  23.619  0.00  0.00    +0.000 A 
ATOM      9  C   UNL     1     -15.270  20.174  21.087  0.00  0.00    +0.000 A 
ATOM     10  C   UNL     1     -16.790  19.907  22.948  0.00  0.00    +0.000 A 
ATOM     11  C   UNL     1     -16.500  20.414  21.686  0.00  0.00    +0.000 A 
ENDROOT
BRANCH   4  12
ATOM     12  C   UNL     1     -10.995  18.202  20.802  0.00  0.00    +0.000 A 
ATOM     13  C   UNL     1     -11.044  17.265  19.755  0.00  0.00    +0.000 A 
ATOM     14  C   UNL     1      -9.818  18.946  21.000  0.00  0.00    +0.000 A 
ATOM     15  C   UNL     1      -9.926  17.070  18.952  0.00  0.00    +0.000 A 
ATOM     16  C   UNL     1      -8.698  18.741  20.191  0.00  0.00    +0.000 A 
ATOM     17  C   UNL     1      -8.762  17.800  19.176  0.00  0.00    +0.000 A 
BRANCH  15  18
ATOM     18  O   UNL     1      -9.920  16.164  17.927  0.00  0.00    +0.000 OA
ATOM     19  H   UNL     1     -10.817  15.800  17.833  0.00  0.00    +0.000 HD
ENDBRANCH  15  18
BRANCH  17  20
ATOM     20  O   UNL     1      -7.667  17.597  18.388  0.00  0.00    +0.000 OA
ATOM     21  H   UNL     1      -7.356  16.698  18.619  0.00  0.00    +0.000 HD
ENDBRANCH  17  20
ENDBRANCH   4  12
BRANCH   8  22
ATOM     22  O   UNL     1     -16.131  18.638  24.848  0.00  0.00    +0.000 OA
ATOM     23  H   UNL     1     -15.890  19.257  25.555  0.00  0.00    +0.000 HD
ENDBRANCH   8  22
BRANCH  11  24
ATOM     24  O   UNL     1     -17.404  21.159  20.991  0.00  0.00    +0.000 OA
ATOM     25  H   UNL     1     -17.925  20.579  20.411  0.00  0.00    +0.000 HD
ENDBRANCH  11  24
BRANCH   3  26
ATOM     26  O   UNL     1     -11.347  16.963  23.426  0.00  0.00    +0.000 OA
BRANCH  26  32
ATOM     27  O   UNL     1     -12.344  14.934  24.218  0.00  0.00    +0.000 OA
ATOM     28  C   UNL     1      -9.476  14.653  24.117  0.00  0.00    +0.000 C 
ATOM     29  C   UNL     1     -10.318  13.988  25.211  0.00  0.00    +0.000 C 
ATOM     30  C   UNL     1     -10.297  14.856  22.842  0.00  0.00    +0.000 C 
ATOM     31  C   UNL     1     -11.594  14.807  25.436  0.00  0.00    +0.000 C 
ATOM     32  C   UNL     1     -11.624  15.580  23.164  0.00  0.00    +0.000 C 
ATOM     33  C   UNL     1     -12.508  14.153  26.465  0.00  0.00    +0.000 C 
BRANCH  28  34
ATOM     34  O   UNL     1      -8.339  13.813  23.841  0.00  0.00    +0.000 OA
ATOM     35  H   UNL     1      -8.085  14.029  22.920  0.00  0.00    +0.000 HD
ENDBRANCH  28  34
BRANCH  29  36
ATOM     36  O   UNL     1      -9.536  13.891  26.406  0.00  0.00    +0.000 OA
ATOM     37  H   UNL     1     -10.176  13.704  27.121  0.00  0.00    +0.000 HD
ENDBRANCH  29  36
BRANCH  30  38
ATOM     38  O   UNL     1     -10.515  13.554  22.257  0.00  0.00    +0.000 OA
ATOM     39  H   UNL     1      -9.690  13.046  22.363  0.00  0.00    +0.000 HD
ENDBRANCH  30  38
ENDBRANCH  26  32
ENDBRANCH   3  26
TORSDOF 10
ENDMDL
MODEL 3
REMARK VINA RESULT:      -6.1     11.886     14.935
REMARK  Name = 
REMARK  11 active torsions:
REMARK  status: ('A' for Active; 'I' for Inactive)
REMARK    1  A    between atoms: O_2  and  C_16
REMARK    2  A    between atoms: O_2  and  C_18
REMARK    3  A    between atoms: O_3  and  C_12
REMARK    4  A    between atoms: O_4  and  C_13
REMARK    5  A    between atoms: O_5  and  C_14
REMARK    6  A    between atoms: O_8  and  C_24
REMARK    7  A    between atoms: O_9  and  C_29
REMARK    8  A    between atoms: O_10  and  C_30
REMARK    9  A    between atoms: O_11  and  C_32
REMARK   10  A    between atoms: C_15  and  C_17
REMARK   11  A    between atoms: C_19  and  C_23
REMARK                            x       y       z     vdW  Elec       q    Type
REMARK                         _______ _______ _______ _____ _____    ______ ____
ROOT
ATOM      1  O   UNL     1     -14.387   6.284  -1.943  0.00  0.00    +0.000 OA
ATOM      2  O   UNL     1     -17.739   4.757  -3.644  0.00  0.00    +0.000 OA
ATOM      3  C   UNL     1     -16.697   6.589  -2.580  0.00  0.00    +0.000 A 
ATOM      4  C   UNL     1     -15.517   7.058  -2.128  0.00  0.00    +0.000 A 
ATOM      5  C   UNL     1     -16.768   5.165  -3.020  0.00  0.00    +0.000 A 
ATOM      6  C   UNL     1     -15.602   4.312  -2.695  0.00  0.00    +0.000 A 
ATOM      7  C   UNL     1     -14.466   4.937  -2.180  0.00  0.00    +0.000 A 
ATOM      8  C   UNL     1     -15.584   2.924  -2.893  0.00  0.00    +0.000 A 
ATOM      9  C   UNL     1     -13.322   4.195  -1.876  0.00  0.00    +0.000 A 
ATOM     10  C   UNL     1     -14.443   2.175  -2.587  0.00  0.00    +0.000 A 
ATOM     11  C   UNL     1     -13.320   2.823  -2.082  0.00  0.00    +0.000 A 
ENDROOT
BRANCH   4  12
ATOM     12  C   UNL     1     -15.311   8.471  -1.747  0.00  0.00    +0.000 A 
ATOM     13  C   UNL     1     -15.039   9.427  -2.741  0.00  0.00    +0.000 A 
ATOM     14  C   UNL     1     -15.388   8.883  -0.404  0.00  0.00    +0.000 A 
ATOM     15  C   UNL     1     -14.826  10.753  -2.383  0.00  0.00    +0.000 A 
ATOM     16  C   UNL     1     -15.168  10.217  -0.052  0.00  0.00    +0.000 A 
ATOM     17  C   UNL     1     -14.884  11.139  -1.047  0.00  0.00    +0.000 A 
BRANCH  15  18
ATOM     18  O   UNL     1     -14.549  11.718  -3.311  0.00  0.00    +0.000 OA
ATOM     19  H   UNL     1     -15.390  12.043  -3.677  0.00  0.00    +0.000 HD
ENDBRANCH  15  18
BRANCH  17  20
ATOM     20  O   UNL     1     -14.665  12.441  -0.702  0.00  0.00    +0.000 OA
ATOM     21  H   UNL     1     -13.691  12.532  -0.673  0.00  0.00    +0.000 HD
ENDBRANCH  17  20
ENDBRANCH   4  12
BRANCH   8  22
ATOM     22  O   UNL     1     -16.687   2.272  -3.366  0.00  0.00    +0.000 OA
ATOM     23  H   UNL     1     -16.844   1.449  -2.878  0.00  0.00    +0.000 HD
ENDBRANCH   8  22
BRANCH  11  24
ATOM     24  O   UNL     1     -12.183   2.140  -1.769  0.00  0.00    +0.000 OA
ATOM     25  H   UNL     1     -11.896   1.618  -2.537  0.00  0.00    +0.000 HD
ENDBRANCH  11  24
BRANCH   3  26
ATOM     26  O   UNL     1     -17.825   7.376  -2.759  0.00  0.00    +0.000 OA
BRANCH  26  32
ATOM     27  O   UNL     1     -19.780   6.565  -1.638  0.00  0.00    +0.000 OA
ATOM     28  C   UNL     1     -20.092   9.361  -2.272  0.00  0.00    +0.000 C 
ATOM     29  C   UNL     1     -21.273   8.384  -2.312  0.00  0.00    +0.000 C 
ATOM     30  C   UNL     1     -19.023   8.887  -1.287  0.00  0.00    +0.000 C 
ATOM     31  C   UNL     1     -20.752   6.974  -2.613  0.00  0.00    +0.000 C 
ATOM     32  C   UNL     1     -18.634   7.419  -1.574  0.00  0.00    +0.000 C 
ATOM     33  C   UNL     1     -21.875   5.943  -2.594  0.00  0.00    +0.000 C 
BRANCH  28  34
ATOM     34  O   UNL     1     -20.585  10.656  -1.879  0.00  0.00    +0.000 OA
ATOM     35  H   UNL     1     -21.332  10.835  -2.489  0.00  0.00    +0.000 HD
ENDBRANCH  28  34
BRANCH  29  36
ATOM     36  O   UNL     1     -22.207   8.823  -3.302  0.00  0.00    +0.000 OA
ATOM     37  H   UNL     1     -22.997   9.112  -2.804  0.00  0.00    +0.000 HD
ENDBRANCH  29  36
BRANCH  30  38
ATOM     38  O   UNL     1     -19.556   9.058   0.044  0.00  0.00    +0.000 OA
ATOM     39  H   UNL     1     -20.524   9.140  -0.039  0.00  0.00    +0.000 HD
ENDBRANCH  30  38
ENDBRANCH  26  32
ENDBRANCH   3  26
TORSDOF 10
ENDMDL
MODEL 4
REMARK VINA RESULT:      -5.9     15.975     19.908
REMARK  Name = 
REMARK  11 active torsions:
REMARK  status: ('A' for Active; 'I' for Inactive)
REMARK    1  A    between atoms: O_2  and  C_16
REMARK    2  A    between atoms: O_2  and  C_18
REMARK    3  A    between atoms: O_3  and  C_12
REMARK    4  A    between atoms: O_4  and  C_13
REMARK    5  A    between atoms: O_5  and  C_14
REMARK    6  A    between atoms: O_8  and  C_24
REMARK    7  A    between atoms: O_9  and  C_29
REMARK    8  A    between atoms: O_10  and  C_30
REMARK    9  A    between atoms: O_11  and  C_32
REMARK   10  A    between atoms: C_15  and  C_17
REMARK   11  A    between atoms: C_19  and  C_23
REMARK                            x       y       z     vdW  Elec       q    Type
REMARK                         _______ _______ _______ _____ _____    ______ ____
ROOT
ATOM      1  O   UNL     1     -15.602  18.750  25.914  0.00  0.00    +0.000 OA
ATOM      2  O   UNL     1     -12.301  16.395  26.074  0.00  0.00    +0.000 OA
ATOM      3  C   UNL     1     -13.906  17.496  24.736  0.00  0.00    +0.000 A 
ATOM      4  C   UNL     1     -14.936  18.365  24.766  0.00  0.00    +0.000 A 
ATOM      5  C   UNL     1     -13.367  16.998  26.035  0.00  0.00    +0.000 A 
ATOM      6  C   UNL     1     -14.164  17.304  27.245  0.00  0.00    +0.000 A 
ATOM      7  C   UNL     1     -15.240  18.182  27.107  0.00  0.00    +0.000 A 
ATOM      8  C   UNL     1     -13.881  16.769  28.510  0.00  0.00    +0.000 A 
ATOM      9  C   UNL     1     -16.017  18.534  28.212  0.00  0.00    +0.000 A 
ATOM     10  C   UNL     1     -14.658  17.115  29.620  0.00  0.00    +0.000 A 
ATOM     11  C   UNL     1     -15.721  17.998  29.458  0.00  0.00    +0.000 A 
ENDROOT
BRANCH   4  12
ATOM     12  C   UNL     1     -15.493  18.987  23.546  0.00  0.00    +0.000 A 
ATOM     13  C   UNL     1     -16.670  18.469  22.977  0.00  0.00    +0.000 A 
ATOM     14  C   UNL     1     -14.872  20.096  22.944  0.00  0.00    +0.000 A 
ATOM     15  C   UNL     1     -17.185  19.041  21.820  0.00  0.00    +0.000 A 
ATOM     16  C   UNL     1     -15.394  20.661  21.778  0.00  0.00    +0.000 A 
ATOM     17  C   UNL     1     -16.545  20.124  21.225  0.00  0.00    +0.000 A 
BRANCH  15  18
ATOM     18  O   UNL     1     -18.321  18.568  21.222  0.00  0.00    +0.000 OA
ATOM     19  H   UNL     1     -19.021  18.510  21.895  0.00  0.00    +0.000 HD
ENDBRANCH  15  18
BRANCH  17  20
ATOM     20  O   UNL     1     -17.053  20.674  20.083  0.00  0.00    +0.000 OA
ATOM     21  H   UNL     1     -16.282  20.768  19.487  0.00  0.00    +0.000 HD
ENDBRANCH  17  20
ENDBRANCH   4  12
BRANCH   8  22
ATOM     22  O   UNL     1     -12.855  15.883  28.679  0.00  0.00    +0.000 OA
ATOM     23  H   UNL     1     -12.909  15.447  29.544  0.00  0.00    +0.000 HD
ENDBRANCH   8  22
BRANCH  11  24
ATOM     24  O   UNL     1     -16.508  18.368  30.507  0.00  0.00    +0.000 OA
ATOM     25  H   UNL     1     -17.034  19.147  30.259  0.00  0.00    +0.000 HD
ENDBRANCH  11  24
BRANCH   3  26
ATOM     26  O   UNL     1     -13.248  17.116  23.576  0.00  0.00    +0.000 OA
BRANCH  26  32
ATOM     27  O   UNL     1     -12.147  18.825  22.309  0.00  0.00    +0.000 OA
ATOM     28  C   UNL     1     -10.928  16.265  21.785  0.00  0.00    +0.000 C 
ATOM     29  C   UNL     1     -11.067  17.334  20.696  0.00  0.00    +0.000 C 
ATOM     30  C   UNL     1     -10.865  16.902  23.174  0.00  0.00    +0.000 C 
ATOM     31  C   UNL     1     -12.276  18.222  21.011  0.00  0.00    +0.000 C 
ATOM     32  C   UNL     1     -12.047  17.877  23.375  0.00  0.00    +0.000 C 
ATOM     33  C   UNL     1     -12.422  19.353  19.999  0.00  0.00    +0.000 C 
BRANCH  28  34
ATOM     34  O   UNL     1      -9.726  15.511  21.534  0.00  0.00    +0.000 OA
ATOM     35  H   UNL     1      -9.003  16.065  21.896  0.00  0.00    +0.000 HD
ENDBRANCH  28  34
BRANCH  29  36
ATOM     36  O   UNL     1     -11.202  16.690  19.425  0.00  0.00    +0.000 OA
ATOM     37  H   UNL     1     -11.286  17.414  18.774  0.00  0.00    +0.000 HD
ENDBRANCH  29  36
BRANCH  30  38
ATOM     38  O   UNL     1      -9.588  17.566  23.287  0.00  0.00    +0.000 OA
ATOM     39  H   UNL     1      -9.383  17.641  24.237  0.00  0.00    +0.000 HD
ENDBRANCH  30  38
ENDBRANCH  26  32
ENDBRANCH   3  26
TORSDOF 10
ENDMDL
MODEL 5
REMARK VINA RESULT:      -5.7     19.374     21.065
REMARK  Name = 
REMARK  11 active torsions:
REMARK  status: ('A' for Active; 'I' for Inactive)
REMARK    1  A    between atoms: O_2  and  C_16
REMARK    2  A    between atoms: O_2  and  C_18
REMARK    3  A    between atoms: O_3  and  C_12
REMARK    4  A    between atoms: O_4  and  C_13
REMARK    5  A    between atoms: O_5  and  C_14
REMARK    6  A    between atoms: O_8  and  C_24
REMARK    7  A    between atoms: O_9  and  C_29
REMARK    8  A    between atoms: O_10  and  C_30
REMARK    9  A    between atoms: O_11  and  C_32
REMARK   10  A    between atoms: C_15  and  C_17
REMARK   11  A    between atoms: C_19  and  C_23
REMARK                            x       y       z     vdW  Elec       q    Type
REMARK                         _______ _______ _______ _____ _____    ______ ____
ROOT
ATOM      1  O   UNL     1     -10.723   6.203  19.745  0.00  0.00    +0.000 OA
ATOM      2  O   UNL     1     -10.495   2.463  18.189  0.00  0.00    +0.000 OA
ATOM      3  C   UNL     1      -9.784   4.713  18.092  0.00  0.00    +0.000 A 
ATOM      4  C   UNL     1      -9.834   5.898  18.731  0.00  0.00    +0.000 A 
ATOM      5  C   UNL     1     -10.664   3.611  18.580  0.00  0.00    +0.000 A 
ATOM      6  C   UNL     1     -11.702   3.981  19.570  0.00  0.00    +0.000 A 
ATOM      7  C   UNL     1     -11.658   5.269  20.105  0.00  0.00    +0.000 A 
ATOM      8  C   UNL     1     -12.706   3.101  19.998  0.00  0.00    +0.000 A 
ATOM      9  C   UNL     1     -12.591   5.674  21.061  0.00  0.00    +0.000 A 
ATOM     10  C   UNL     1     -13.646   3.502  20.954  0.00  0.00    +0.000 A 
ATOM     11  C   UNL     1     -13.575   4.789  21.478  0.00  0.00    +0.000 A 
ENDROOT
BRANCH   4  12
ATOM     12  C   UNL     1      -8.948   7.031  18.388  0.00  0.00    +0.000 A 
ATOM     13  C   UNL     1      -8.136   7.603  19.382  0.00  0.00    +0.000 A 
ATOM     14  C   UNL     1      -8.895   7.545  17.080  0.00  0.00    +0.000 A 
ATOM     15  C   UNL     1      -7.316   8.680  19.066  0.00  0.00    +0.000 A 
ATOM     16  C   UNL     1      -8.072   8.630  16.772  0.00  0.00    +0.000 A 
ATOM     17  C   UNL     1      -7.292   9.191  17.771  0.00  0.00    +0.000 A 
BRANCH  15  18
ATOM     18  O   UNL     1      -6.515   9.278  19.999  0.00  0.00    +0.000 OA
ATOM     19  H   UNL     1      -6.736  10.225  20.034  0.00  0.00    +0.000 HD
ENDBRANCH  15  18
BRANCH  17  20
ATOM     20  O   UNL     1      -6.491  10.254  17.472  0.00  0.00    +0.000 OA
ATOM     21  H   UNL     1      -5.691  10.127  18.021  0.00  0.00    +0.000 HD
ENDBRANCH  17  20
ENDBRANCH   4  12
BRANCH   8  22
ATOM     22  O   UNL     1     -12.801   1.842  19.476  0.00  0.00    +0.000 OA
ATOM     23  H   UNL     1     -12.346   1.195  20.037  0.00  0.00    +0.000 HD
ENDBRANCH   8  22
BRANCH  11  24
ATOM     24  O   UNL     1     -14.465   5.229  22.411  0.00  0.00    +0.000 OA
ATOM     25  H   UNL     1     -15.305   5.455  21.977  0.00  0.00    +0.000 HD
ENDBRANCH  11  24
BRANCH   3  26
ATOM     26  O   UNL     1      -8.889   4.420  17.074  0.00  0.00    +0.000 OA
BRANCH  26  32
ATOM     27  O   UNL     1      -6.629   4.799  17.769  0.00  0.00    +0.000 OA
ATOM     28  C   UNL     1      -6.670   3.230  15.350  0.00  0.00    +0.000 C 
ATOM     29  C   UNL     1      -5.577   4.269  15.623  0.00  0.00    +0.000 C 
ATOM     30  C   UNL     1      -7.247   2.685  16.657  0.00  0.00    +0.000 C 
ATOM     31  C   UNL     1      -6.136   5.361  16.542  0.00  0.00    +0.000 C 
ATOM     32  C   UNL     1      -7.677   3.844  17.583  0.00  0.00    +0.000 C 
ATOM     33  C   UNL     1      -5.070   6.388  16.909  0.00  0.00    +0.000 C 
BRANCH  28  34
ATOM     34  O   UNL     1      -6.097   2.157  14.579  0.00  0.00    +0.000 OA
ATOM     35  H   UNL     1      -6.750   1.982  13.869  0.00  0.00    +0.000 HD
ENDBRANCH  28  34
BRANCH  29  36
ATOM     36  O   UNL     1      -5.125   4.809  14.377  0.00  0.00    +0.000 OA
ATOM     37  H   UNL     1      -4.753   4.050  13.885  0.00  0.00    +0.000 HD
ENDBRANCH  29  36
BRANCH  30  38
ATOM     38  O   UNL     1      -6.233   1.853  17.262  0.00  0.00    +0.000 OA
ATOM     39  H   UNL     1      -5.825   2.370  17.981  0.00  0.00    +0.000 HD
ENDBRANCH  30  38
ENDBRANCH  26  32
ENDBRANCH   3  26
TORSDOF 10
ENDMDL
MODEL 6
REMARK VINA RESULT:      -5.7     11.769     13.440
REMARK  Name = 
REMARK  11 active torsions:
REMARK  status: ('A' for Active; 'I' for Inactive)
REMARK    1  A    between atoms: O_2  and  C_16
REMARK    2  A    between atoms: O_2  and  C_18
REMARK    3  A    between atoms: O_3  and  C_12
REMARK    4  A    between atoms: O_4  and  C_13
REMARK    5  A    between atoms: O_5  and  C_14
REMARK    6  A    between atoms: O_8  and  C_24
REMARK    7  A    between atoms: O_9  and  C_29
REMARK    8  A    between atoms: O_10  and  C_30
REMARK    9  A    between atoms: O_11  and  C_32
REMARK   10  A    between atoms: C_15  and  C_17
REMARK   11  A    between atoms: C_19  and  C_23
REMARK                            x       y       z     vdW  Elec       q    Type
REMARK                         _______ _______ _______ _____ _____    ______ ____
ROOT
ATOM      1  O   UNL     1     -22.692   3.303  14.919  0.00  0.00    +0.000 OA
ATOM      2  O   UNL     1     -25.749   5.601  13.564  0.00  0.00    +0.000 OA
ATOM      3  C   UNL     1     -24.034   5.297  15.158  0.00  0.00    +0.000 A 
ATOM      4  C   UNL     1     -22.970   4.535  15.480  0.00  0.00    +0.000 A 
ATOM      5  C   UNL     1     -24.914   4.844  14.042  0.00  0.00    +0.000 A 
ATOM      6  C   UNL     1     -24.693   3.468  13.540  0.00  0.00    +0.000 A 
ATOM      7  C   UNL     1     -23.574   2.780  14.009  0.00  0.00    +0.000 A 
ATOM      8  C   UNL     1     -25.540   2.840  12.616  0.00  0.00    +0.000 A 
ATOM      9  C   UNL     1     -23.292   1.489  13.557  0.00  0.00    +0.000 A 
ATOM     10  C   UNL     1     -25.264   1.546  12.162  0.00  0.00    +0.000 A 
ATOM     11  C   UNL     1     -24.138   0.883  12.638  0.00  0.00    +0.000 A 
ENDROOT
BRANCH   4  12
ATOM     12  C   UNL     1     -21.985   4.929  16.509  0.00  0.00    +0.000 A 
ATOM     13  C   UNL     1     -21.286   6.141  16.373  0.00  0.00    +0.000 A 
ATOM     14  C   UNL     1     -21.736   4.117  17.630  0.00  0.00    +0.000 A 
ATOM     15  C   UNL     1     -20.345   6.505  17.330  0.00  0.00    +0.000 A 
ATOM     16  C   UNL     1     -20.785   4.488  18.584  0.00  0.00    +0.000 A 
ATOM     17  C   UNL     1     -20.096   5.678  18.421  0.00  0.00    +0.000 A 
BRANCH  15  18
ATOM     18  O   UNL     1     -19.632   7.669  17.238  0.00  0.00    +0.000 OA
ATOM     19  H   UNL     1     -20.258   8.406  17.140  0.00  0.00    +0.000 HD
ENDBRANCH  15  18
BRANCH  17  20
ATOM     20  O   UNL     1     -19.164   6.039  19.351  0.00  0.00    +0.000 OA
ATOM     21  H   UNL     1     -19.382   5.507  20.143  0.00  0.00    +0.000 HD
ENDBRANCH  17  20
ENDBRANCH   4  12
BRANCH   8  22
ATOM     22  O   UNL     1     -26.661   3.470  12.156  0.00  0.00    +0.000 OA
ATOM     23  H   UNL     1     -27.268   3.680  12.883  0.00  0.00    +0.000 HD
ENDBRANCH   8  22
BRANCH  11  24
ATOM     24  O   UNL     1     -23.824  -0.377  12.228  0.00  0.00    +0.000 OA
ATOM     25  H   UNL     1     -22.963  -0.635  12.599  0.00  0.00    +0.000 HD
ENDBRANCH  11  24
BRANCH   3  26
ATOM     26  O   UNL     1     -24.302   6.531  15.730  0.00  0.00    +0.000 OA
BRANCH  26  32
ATOM     27  O   UNL     1     -26.498   6.480  16.685  0.00  0.00    +0.000 OA
ATOM     28  C   UNL     1     -25.100   8.850  17.548  0.00  0.00    +0.000 C 
ATOM     29  C   UNL     1     -26.609   8.852  17.278  0.00  0.00    +0.000 C 
ATOM     30  C   UNL     1     -24.618   7.455  17.951  0.00  0.00    +0.000 C 
ATOM     31  C   UNL     1     -26.938   7.773  16.240  0.00  0.00    +0.000 C 
ATOM     32  C   UNL     1     -25.090   6.402  16.923  0.00  0.00    +0.000 C 
ATOM     33  C   UNL     1     -28.438   7.678  15.984  0.00  0.00    +0.000 C 
BRANCH  28  34
ATOM     34  O   UNL     1     -24.824   9.790  18.604  0.00  0.00    +0.000 OA
ATOM     35  H   UNL     1     -25.303  10.605  18.344  0.00  0.00    +0.000 HD
ENDBRANCH  28  34
BRANCH  29  36
ATOM     36  O   UNL     1     -27.000  10.153  16.828  0.00  0.00    +0.000 OA
ATOM     37  H   UNL     1     -27.476  10.556  17.581  0.00  0.00    +0.000 HD
ENDBRANCH  29  36
BRANCH  30  38
ATOM     38  O   UNL     1     -25.127   7.189  19.276  0.00  0.00    +0.000 OA
ATOM     39  H   UNL     1     -25.609   6.342  19.236  0.00  0.00    +0.000 HD
ENDBRANCH  30  38
ENDBRANCH  26  32
ENDBRANCH   3  26
TORSDOF 10
ENDMDL
MODEL 7
REMARK VINA RESULT:      -5.7     17.015     21.344
REMARK  Name = 
REMARK  11 active torsions:
REMARK  status: ('A' for Active; 'I' for Inactive)
REMARK    1  A    between atoms: O_2  and  C_16
REMARK    2  A    between atoms: O_2  and  C_18
REMARK    3  A    between atoms: O_3  and  C_12
REMARK    4  A    between atoms: O_4  and  C_13
REMARK    5  A    between atoms: O_5  and  C_14
REMARK    6  A    between atoms: O_8  and  C_24
REMARK    7  A    between atoms: O_9  and  C_29
REMARK    8  A    between atoms: O_10  and  C_30
REMARK    9  A    between atoms: O_11  and  C_32
REMARK   10  A    between atoms: C_15  and  C_17
REMARK   11  A    between atoms: C_19  and  C_23
REMARK                            x       y       z     vdW  Elec       q    Type
REMARK                         _______ _______ _______ _____ _____    ______ ____
ROOT
ATOM      1  O   UNL     1     -14.384  17.601  24.985  0.00  0.00    +0.000 OA
ATOM      2  O   UNL     1     -12.081  17.563  21.644  0.00  0.00    +0.000 OA
ATOM      3  C   UNL     1     -12.253  17.112  23.956  0.00  0.00    +0.000 A 
ATOM      4  C   UNL     1     -13.113  17.057  24.993  0.00  0.00    +0.000 A 
ATOM      5  C   UNL     1     -12.736  17.695  22.670  0.00  0.00    +0.000 A 
ATOM      6  C   UNL     1     -14.041  18.394  22.708  0.00  0.00    +0.000 A 
ATOM      7  C   UNL     1     -14.797  18.291  23.876  0.00  0.00    +0.000 A 
ATOM      8  C   UNL     1     -14.551  19.133  21.631  0.00  0.00    +0.000 A 
ATOM      9  C   UNL     1     -16.049  18.904  23.970  0.00  0.00    +0.000 A 
ATOM     10  C   UNL     1     -15.803  19.752  21.720  0.00  0.00    +0.000 A 
ATOM     11  C   UNL     1     -16.541  19.628  22.893  0.00  0.00    +0.000 A 
ENDROOT
BRANCH   4  12
ATOM     12  C   UNL     1     -12.770  16.424  26.284  0.00  0.00    +0.000 A 
ATOM     13  C   UNL     1     -13.441  15.255  26.684  0.00  0.00    +0.000 A 
ATOM     14  C   UNL     1     -11.777  16.964  27.120  0.00  0.00    +0.000 A 
ATOM     15  C   UNL     1     -13.133  14.669  27.907  0.00  0.00    +0.000 A 
ATOM     16  C   UNL     1     -11.477  16.371  28.349  0.00  0.00    +0.000 A 
ATOM     17  C   UNL     1     -12.163  15.230  28.732  0.00  0.00    +0.000 A 
BRANCH  15  18
ATOM     18  O   UNL     1     -13.764  13.538  28.346  0.00  0.00    +0.000 OA
ATOM     19  H   UNL     1     -13.507  13.381  29.271  0.00  0.00    +0.000 HD
ENDBRANCH  15  18
BRANCH  17  20
ATOM     20  O   UNL     1     -11.873  14.652  29.934  0.00  0.00    +0.000 OA
ATOM     21  H   UNL     1     -10.979  14.272  29.820  0.00  0.00    +0.000 HD
ENDBRANCH  17  20
ENDBRANCH   4  12
BRANCH   8  22
ATOM     22  O   UNL     1     -13.828  19.282  20.482  0.00  0.00    +0.000 OA
ATOM     23  H   UNL     1     -13.559  20.205  20.355  0.00  0.00    +0.000 HD
ENDBRANCH   8  22
BRANCH  11  24
ATOM     24  O   UNL     1     -17.765  20.211  23.031  0.00  0.00    +0.000 OA
ATOM     25  H   UNL     1     -17.813  20.666  23.888  0.00  0.00    +0.000 HD
ENDBRANCH  11  24
BRANCH   3  26
ATOM     26  O   UNL     1     -10.980  16.564  23.977  0.00  0.00    +0.000 OA
BRANCH  26  32
ATOM     27  O   UNL     1     -10.564  14.432  24.987  0.00  0.00    +0.000 OA
ATOM     28  C   UNL     1      -8.710  14.880  22.825  0.00  0.00    +0.000 C 
ATOM     29  C   UNL     1      -8.304  14.129  24.098  0.00  0.00    +0.000 C 
ATOM     30  C   UNL     1     -10.211  14.747  22.565  0.00  0.00    +0.000 C 
ATOM     31  C   UNL     1      -9.167  14.615  25.268  0.00  0.00    +0.000 C 
ATOM     32  C   UNL     1     -11.014  15.137  23.827  0.00  0.00    +0.000 C 
ATOM     33  C   UNL     1      -8.858  13.850  26.550  0.00  0.00    +0.000 C 
BRANCH  28  34
ATOM     34  O   UNL     1      -7.968  14.334  21.717  0.00  0.00    +0.000 OA
ATOM     35  H   UNL     1      -8.473  13.539  21.445  0.00  0.00    +0.000 HD
ENDBRANCH  28  34
BRANCH  29  36
ATOM     36  O   UNL     1      -6.911  14.348  24.343  0.00  0.00    +0.000 OA
ATOM     37  H   UNL     1      -6.753  14.020  25.251  0.00  0.00    +0.000 HD
ENDBRANCH  29  36
BRANCH  30  38
ATOM     38  O   UNL     1     -10.460  13.383  22.162  0.00  0.00    +0.000 OA
ATOM     39  H   UNL     1     -10.452  12.836  22.969  0.00  0.00    +0.000 HD
ENDBRANCH  30  38
ENDBRANCH  26  32
ENDBRANCH   3  26
TORSDOF 10
ENDMDL
MODEL 8
REMARK VINA RESULT:      -5.4     18.547     21.116
REMARK  Name = 
REMARK  11 active torsions:
REMARK  status: ('A' for Active; 'I' for Inactive)
REMARK    1  A    between atoms: O_2  and  C_16
REMARK    2  A    between atoms: O_2  and  C_18
REMARK    3  A    between atoms: O_3  and  C_12
REMARK    4  A    between atoms: O_4  and  C_13
REMARK    5  A    between atoms: O_5  and  C_14
REMARK    6  A    between atoms: O_8  and  C_24
REMARK    7  A    between atoms: O_9  and  C_29
REMARK    8  A    between atoms: O_10  and  C_30
REMARK    9  A    between atoms: O_11  and  C_32
REMARK   10  A    between atoms: C_15  and  C_17
REMARK   11  A    between atoms: C_19  and  C_23
REMARK                            x       y       z     vdW  Elec       q    Type
REMARK                         _______ _______ _______ _____ _____    ______ ____
ROOT
ATOM      1  O   UNL     1     -11.947   6.860  24.040  0.00  0.00    +0.000 OA
ATOM      2  O   UNL     1     -13.442   4.369  21.207  0.00  0.00    +0.000 OA
ATOM      3  C   UNL     1     -12.150   6.283  21.703  0.00  0.00    +0.000 A 
ATOM      4  C   UNL     1     -11.606   6.998  22.708  0.00  0.00    +0.000 A 
ATOM      5  C   UNL     1     -13.101   5.187  22.053  0.00  0.00    +0.000 A 
ATOM      6  C   UNL     1     -13.563   5.133  23.458  0.00  0.00    +0.000 A 
ATOM      7  C   UNL     1     -12.939   5.978  24.378  0.00  0.00    +0.000 A 
ATOM      8  C   UNL     1     -14.576   4.272  23.904  0.00  0.00    +0.000 A 
ATOM      9  C   UNL     1     -13.309   5.960  25.724  0.00  0.00    +0.000 A 
ATOM     10  C   UNL     1     -14.953   4.252  25.251  0.00  0.00    +0.000 A 
ATOM     11  C   UNL     1     -14.311   5.098  26.150  0.00  0.00    +0.000 A 
ENDROOT
BRANCH   4  12
ATOM     12  C   UNL     1     -10.590   8.048  22.484  0.00  0.00    +0.000 A 
ATOM     13  C   UNL     1     -10.996   9.337  22.099  0.00  0.00    +0.000 A 
ATOM     14  C   UNL     1      -9.219   7.784  22.655  0.00  0.00    +0.000 A 
ATOM     15  C   UNL     1     -10.041  10.321  21.870  0.00  0.00    +0.000 A 
ATOM     16  C   UNL     1      -8.266   8.778  22.418  0.00  0.00    +0.000 A 
ATOM     17  C   UNL     1      -8.687  10.037  22.023  0.00  0.00    +0.000 A 
BRANCH  15  18
ATOM     18  O   UNL     1     -10.385  11.588  21.485  0.00  0.00    +0.000 OA
ATOM     19  H   UNL     1      -9.680  11.937  20.911  0.00  0.00    +0.000 HD
ENDBRANCH  15  18
BRANCH  17  20
ATOM     20  O   UNL     1      -7.756  11.006  21.787  0.00  0.00    +0.000 OA
ATOM     21  H   UNL     1      -7.795  11.161  20.821  0.00  0.00    +0.000 HD
ENDBRANCH  17  20
ENDBRANCH   4  12
BRANCH   8  22
ATOM     22  O   UNL     1     -15.230   3.453  23.029  0.00  0.00    +0.000 OA
ATOM     23  H   UNL     1     -15.434   2.597  23.437  0.00  0.00    +0.000 HD
ENDBRANCH   8  22
BRANCH  11  24
ATOM     24  O   UNL     1     -14.639   5.117  27.472  0.00  0.00    +0.000 OA
ATOM     25  H   UNL     1     -14.115   4.450  27.946  0.00  0.00    +0.000 HD
ENDBRANCH  11  24
BRANCH   3  26
ATOM     26  O   UNL     1     -11.800   6.433  20.370  0.00  0.00    +0.000 OA
BRANCH  26  32
ATOM     27  O   UNL     1      -9.828   6.598  19.021  0.00  0.00    +0.000 OA
ATOM     28  C   UNL     1     -11.155   4.087  18.527  0.00  0.00    +0.000 C 
ATOM     29  C   UNL     1     -10.432   4.854  17.414  0.00  0.00    +0.000 C 
ATOM     30  C   UNL     1     -10.552   4.407  19.895  0.00  0.00    +0.000 C 
ATOM     31  C   UNL     1     -10.439   6.351  17.745  0.00  0.00    +0.000 C 
ATOM     32  C   UNL     1     -10.479   5.936  20.109  0.00  0.00    +0.000 C 
ATOM     33  C   UNL     1      -9.668   7.160  16.709  0.00  0.00    +0.000 C 
BRANCH  28  34
ATOM     34  O   UNL     1     -11.042   2.677  18.257  0.00  0.00    +0.000 OA
ATOM     35  H   UNL     1     -10.770   2.279  19.110  0.00  0.00    +0.000 HD
ENDBRANCH  28  34
BRANCH  29  36
ATOM     36  O   UNL     1     -11.079   4.586  16.167  0.00  0.00    +0.000 OA
ATOM     37  H   UNL     1     -10.545   3.886  15.742  0.00  0.00    +0.000 HD
ENDBRANCH  29  36
BRANCH  30  38
ATOM     38  O   UNL     1      -9.249   3.788  19.948  0.00  0.00    +0.000 OA
ATOM     39  H   UNL     1      -8.733   4.133  19.196  0.00  0.00    +0.000 HD
ENDBRANCH  30  38
ENDBRANCH  26  32
ENDBRANCH   3  26
TORSDOF 10
ENDMDL
MODEL 9
REMARK VINA RESULT:      -5.4     12.885     17.627
REMARK  Name = 
REMARK  11 active torsions:
REMARK  status: ('A' for Active; 'I' for Inactive)
REMARK    1  A    between atoms: O_2  and  C_16
REMARK    2  A    between atoms: O_2  and  C_18
REMARK    3  A    between atoms: O_3  and  C_12
REMARK    4  A    between atoms: O_4  and  C_13
REMARK    5  A    between atoms: O_5  and  C_14
REMARK    6  A    between atoms: O_8  and  C_24
REMARK    7  A    between atoms: O_9  and  C_29
REMARK    8  A    between atoms: O_10  and  C_30
REMARK    9  A    between atoms: O_11  and  C_32
REMARK   10  A    between atoms: C_15  and  C_17
REMARK   11  A    between atoms: C_19  and  C_23
REMARK                            x       y       z     vdW  Elec       q    Type
REMARK                         _______ _______ _______ _____ _____    ______ ____
ROOT
ATOM      1  O   UNL     1     -14.822   7.088  -1.856  0.00  0.00    +0.000 OA
ATOM      2  O   UNL     1     -18.654   5.983  -1.108  0.00  0.00    +0.000 OA
ATOM      3  C   UNL     1     -16.590   5.465  -2.131  0.00  0.00    +0.000 A 
ATOM      4  C   UNL     1     -15.304   5.852  -2.245  0.00  0.00    +0.000 A 
ATOM      5  C   UNL     1     -17.543   6.379  -1.437  0.00  0.00    +0.000 A 
ATOM      6  C   UNL     1     -17.057   7.747  -1.146  0.00  0.00    +0.000 A 
ATOM      7  C   UNL     1     -15.705   8.015  -1.367  0.00  0.00    +0.000 A 
ATOM      8  C   UNL     1     -17.880   8.769  -0.651  0.00  0.00    +0.000 A 
ATOM      9  C   UNL     1     -15.175   9.277  -1.090  0.00  0.00    +0.000 A 
ATOM     10  C   UNL     1     -17.355  10.036  -0.374  0.00  0.00    +0.000 A 
ATOM     11  C   UNL     1     -16.003  10.275  -0.596  0.00  0.00    +0.000 A 
ENDROOT
BRANCH   4  12
ATOM     12  C   UNL     1     -14.259   4.991  -2.837  0.00  0.00    +0.000 A 
ATOM     13  C   UNL     1     -13.314   4.372  -2.001  0.00  0.00    +0.000 A 
ATOM     14  C   UNL     1     -14.194   4.772  -4.225  0.00  0.00    +0.000 A 
ATOM     15  C   UNL     1     -12.318   3.577  -2.557  0.00  0.00    +0.000 A 
ATOM     16  C   UNL     1     -13.187   3.976  -4.775  0.00  0.00    +0.000 A 
ATOM     17  C   UNL     1     -12.255   3.389  -3.935  0.00  0.00    +0.000 A 
BRANCH  15  18
ATOM     18  O   UNL     1     -11.369   2.961  -1.789  0.00  0.00    +0.000 OA
ATOM     19  H   UNL     1     -10.812   2.412  -2.368  0.00  0.00    +0.000 HD
ENDBRANCH  15  18
BRANCH  17  20
ATOM     20  O   UNL     1     -11.269   2.615  -4.474  0.00  0.00    +0.000 OA
ATOM     21  H   UNL     1     -10.440   2.957  -4.083  0.00  0.00    +0.000 HD
ENDBRANCH  17  20
ENDBRANCH   4  12
BRANCH   8  22
ATOM     22  O   UNL     1     -19.213   8.555  -0.450  0.00  0.00    +0.000 OA
ATOM     23  H   UNL     1     -19.430   8.558   0.495  0.00  0.00    +0.000 HD
ENDBRANCH   8  22
BRANCH  11  24
ATOM     24  O   UNL     1     -15.442  11.491  -0.342  0.00  0.00    +0.000 OA
ATOM     25  H   UNL     1     -16.105  12.076   0.062  0.00  0.00    +0.000 HD
ENDBRANCH  11  24
BRANCH   3  26
ATOM     26  O   UNL     1     -17.062   4.223  -2.528  0.00  0.00    +0.000 OA
BRANCH  26  32
ATOM     27  O   UNL     1     -15.753   2.313  -1.914  0.00  0.00    +0.000 OA
ATOM     28  C   UNL     1     -18.493   1.533  -2.359  0.00  0.00    +0.000 C 
ATOM     29  C   UNL     1     -17.321   0.618  -2.729  0.00  0.00    +0.000 C 
ATOM     30  C   UNL     1     -18.114   2.475  -1.215  0.00  0.00    +0.000 C 
ATOM     31  C   UNL     1     -16.087   1.476  -3.033  0.00  0.00    +0.000 C 
ATOM     32  C   UNL     1     -16.797   3.215  -1.540  0.00  0.00    +0.000 C 
ATOM     33  C   UNL     1     -14.865   0.617  -3.337  0.00  0.00    +0.000 C 
BRANCH  28  34
ATOM     34  O   UNL     1     -19.609   0.709  -1.968  0.00  0.00    +0.000 OA
ATOM     35  H   UNL     1     -19.416  -0.172  -2.353  0.00  0.00    +0.000 HD
ENDBRANCH  28  34
BRANCH  29  36
ATOM     36  O   UNL     1     -17.693  -0.187  -3.851  0.00  0.00    +0.000 OA
ATOM     37  H   UNL     1     -18.303  -0.864  -3.495  0.00  0.00    +0.000 HD
ENDBRANCH  29  36
BRANCH  30  38
ATOM     38  O   UNL     1     -18.008   1.678  -0.016  0.00  0.00    +0.000 OA
ATOM     39  H   UNL     1     -18.726   1.956   0.582  0.00  0.00    +0.000 HD
ENDBRANCH  30  38
ENDBRANCH  26  32
ENDBRANCH   3  26
TORSDOF 10
ENDMDL
