MODEL 1
REMARK VINA RESULT:      -4.8      0.000      0.000
REMARK  Name = 
REMARK  14 active torsions:
REMARK  status: ('A' for Active; 'I' for Inactive)
REMARK    1  A    between atoms: O_1  and  C_24
REMARK    2  A    between atoms: O_1  and  C_36
REMARK    3  A    between atoms: O_4  and  C_30
REMARK    4  A    between atoms: O_4  and  C_37
REMARK    5  A    between atoms: O_7  and  C_33
REMARK    6  A    between atoms: O_7  and  C_38
REMARK    7  A    between atoms: N_10  and  C_23
REMARK    8  A    between atoms: C_15  and  C_26
REMARK    9  A    between atoms: C_16  and  C_24
REMARK   10  A    between atoms: C_31  and  C_34
REMARK   11  A    between atoms: C_32  and  C_35
REMARK   12  A    between atoms: C_36  and  C_39
REMARK   13  A    between atoms: C_39  and  C_40
REMARK   14  A    between atoms: C_41  and  C_42
REMARK                            x       y       z     vdW  Elec       q    Type
REMARK                         _______ _______ _______ _____ _____    ______ ____
ROOT
ATOM      1  O   UNL     1     -12.519  21.819  17.750  0.00  0.00    +0.000 OA
ATOM      2  O   UNL     1      -7.869  23.500  19.702  0.00  0.00    +0.000 OA
ATOM      3  O   UNL     1     -15.487  19.874  20.776  0.00  0.00    +0.000 OA
ATOM      4  O   UNL     1     -12.357  17.709  24.489  0.00  0.00    +0.000 OA
ATOM      5  N   UNL     1     -10.452  19.266  21.010  0.00  0.00    +0.000 NA
ATOM      6  N   UNL     1      -9.517  18.996  18.239  0.00  0.00    +0.000 NA
ATOM      7  C   UNL     1     -11.387  19.169  19.858  0.00  0.00    +0.000 C 
ATOM      8  C   UNL     1     -10.752  19.777  18.535  0.00  0.00    +0.000 C 
ATOM      9  C   UNL     1      -8.535  19.224  19.330  0.00  0.00    +0.000 C 
ATOM     10  C   UNL     1      -9.113  18.676  20.688  0.00  0.00    +0.000 C 
ATOM     11  C   UNL     1     -10.990  18.838  22.331  0.00  0.00    +0.000 C 
ATOM     12  C   UNL     1     -12.738  19.837  20.190  0.00  0.00    +0.000 C 
ATOM     13  C   UNL     1      -8.141  20.721  19.460  0.00  0.00    +0.000 C 
ATOM     14  C   UNL     1     -10.447  21.260  18.693  0.00  0.00    +0.000 C 
ATOM     15  C   UNL     1      -9.255  21.686  19.139  0.00  0.00    +0.000 C 
ATOM     16  C   UNL     1     -12.506  18.857  22.444  0.00  0.00    +0.000 C 
ATOM     17  C   UNL     1     -13.306  19.333  21.482  0.00  0.00    +0.000 C 
ATOM     18  C   UNL     1      -8.985  19.228  16.899  0.00  0.00    +0.000 C 
ATOM     19  C   UNL     1     -11.490  22.225  18.280  0.00  0.00    +0.000 C 
ATOM     20  C   UNL     1      -8.965  23.125  19.302  0.00  0.00    +0.000 C 
ATOM     21  C   UNL     1     -14.775  19.385  21.646  0.00  0.00    +0.000 C 
ATOM     22  C   UNL     1     -13.089  18.263  23.675  0.00  0.00    +0.000 C 
ATOM     23  C   UNL     1     -11.239  23.683  18.530  0.00  0.00    +0.000 C 
ATOM     24  C   UNL     1     -10.046  24.096  18.987  0.00  0.00    +0.000 C 
ATOM     25  C   UNL     1     -15.356  18.862  22.908  0.00  0.00    +0.000 C 
ATOM     26  C   UNL     1     -14.573  18.353  23.873  0.00  0.00    +0.000 C 
ATOM     27  C   UNL     1      -9.687  25.535  19.216  0.00  0.00    +0.000 C 
ATOM     28  C   UNL     1     -16.852  18.956  23.002  0.00  0.00    +0.000 C 
ENDROOT
BRANCH  23  29
ATOM     29  O   UNL     1     -12.210  24.634  18.236  0.00  0.00    +0.000 OA
ATOM     30  C   UNL     1     -12.300  25.013  16.865  0.00  0.00    +0.000 C 
ENDBRANCH  23  29
BRANCH  26  31
ATOM     31  O   UNL     1     -15.166  17.854  25.027  0.00  0.00    +0.000 OA
ATOM     32  C   UNL     1     -15.008  18.668  26.187  0.00  0.00    +0.000 C 
ENDBRANCH  26  31
BRANCH  10  34
ATOM     33  N   UNL     1      -9.063  16.024  20.655  0.00  0.00    +0.000 NA
ATOM     34  C   UNL     1      -9.088  17.185  20.648  0.00  0.00    +0.000 C 
ENDBRANCH  10  34
BRANCH  11  35
ATOM     35  C   UNL     1     -10.365  19.768  23.414  0.00  0.00    +0.000 C 
BRANCH  35  36
ATOM     36  O   UNL     1     -10.189  21.088  22.859  0.00  0.00    +0.000 OA
BRANCH  36  38
ATOM     37  O   UNL     1      -9.998  22.751  24.424  0.00  0.00    +0.000 OA
ATOM     38  C   UNL     1     -10.657  22.096  23.632  0.00  0.00    +0.000 C 
BRANCH  38  39
ATOM     39  C   UNL     1     -12.076  22.403  23.293  0.00  0.00    +0.000 C 
ATOM     40  C   UNL     1     -12.235  23.081  21.960  0.00  0.00    +0.000 C 
ATOM     41  C   UNL     1     -13.135  22.130  24.081  0.00  0.00    +0.000 C 
ATOM     42  C   UNL     1     -13.139  21.558  25.463  0.00  0.00    +0.000 C 
ENDBRANCH  38  39
ENDBRANCH  36  38
ENDBRANCH  35  36
ENDBRANCH  11  35
TORSDOF 7
ENDMDL
MODEL 2
REMARK VINA RESULT:      -4.4     15.013     19.235
REMARK  Name = 
REMARK  14 active torsions:
REMARK  status: ('A' for Active; 'I' for Inactive)
REMARK    1  A    between atoms: O_1  and  C_24
REMARK    2  A    between atoms: O_1  and  C_36
REMARK    3  A    between atoms: O_4  and  C_30
REMARK    4  A    between atoms: O_4  and  C_37
REMARK    5  A    between atoms: O_7  and  C_33
REMARK    6  A    between atoms: O_7  and  C_38
REMARK    7  A    between atoms: N_10  and  C_23
REMARK    8  A    between atoms: C_15  and  C_26
REMARK    9  A    between atoms: C_16  and  C_24
REMARK   10  A    between atoms: C_31  and  C_34
REMARK   11  A    between atoms: C_32  and  C_35
REMARK   12  A    between atoms: C_36  and  C_39
REMARK   13  A    between atoms: C_39  and  C_40
REMARK   14  A    between atoms: C_41  and  C_42
REMARK                            x       y       z     vdW  Elec       q    Type
REMARK                         _______ _______ _______ _____ _____    ______ ____
ROOT
ATOM      1  O   UNL     1      -5.798   2.654  14.178  0.00  0.00    +0.000 OA
ATOM      2  O   UNL     1      -8.186   1.539  18.795  0.00  0.00    +0.000 OA
ATOM      3  O   UNL     1      -1.857   5.138  14.398  0.00  0.00    +0.000 OA
ATOM      4  O   UNL     1      -2.420   8.123  18.762  0.00  0.00    +0.000 OA
ATOM      5  N   UNL     1      -5.819   5.896  17.480  0.00  0.00    +0.000 NA
ATOM      6  N   UNL     1      -8.229   5.583  15.830  0.00  0.00    +0.000 NA
ATOM      7  C   UNL     1      -5.759   5.721  16.006  0.00  0.00    +0.000 C 
ATOM      8  C   UNL     1      -6.978   4.857  15.467  0.00  0.00    +0.000 C 
ATOM      9  C   UNL     1      -8.348   5.618  17.310  0.00  0.00    +0.000 C 
ATOM     10  C   UNL     1      -7.147   6.433  17.921  0.00  0.00    +0.000 C 
ATOM     11  C   UNL     1      -4.659   6.587  18.109  0.00  0.00    +0.000 C 
ATOM     12  C   UNL     1      -4.407   5.110  15.580  0.00  0.00    +0.000 C 
ATOM     13  C   UNL     1      -8.420   4.193  17.926  0.00  0.00    +0.000 C 
ATOM     14  C   UNL     1      -6.965   3.450  16.049  0.00  0.00    +0.000 C 
ATOM     15  C   UNL     1      -7.610   3.157  17.188  0.00  0.00    +0.000 C 
ATOM     16  C   UNL     1      -3.376   6.558  17.292  0.00  0.00    +0.000 C 
ATOM     17  C   UNL     1      -3.248   5.867  16.153  0.00  0.00    +0.000 C 
ATOM     18  C   UNL     1      -9.417   5.080  15.148  0.00  0.00    +0.000 C 
ATOM     19  C   UNL     1      -6.265   2.395  15.282  0.00  0.00    +0.000 C 
ATOM     20  C   UNL     1      -7.585   1.794  17.757  0.00  0.00    +0.000 C 
ATOM     21  C   UNL     1      -1.969   5.819  15.411  0.00  0.00    +0.000 C 
ATOM     22  C   UNL     1      -2.251   7.390  17.793  0.00  0.00    +0.000 C 
ATOM     23  C   UNL     1      -6.156   1.032  15.898  0.00  0.00    +0.000 C 
ATOM     24  C   UNL     1      -6.797   0.754  17.045  0.00  0.00    +0.000 C 
ATOM     25  C   UNL     1      -0.820   6.588  15.949  0.00  0.00    +0.000 C 
ATOM     26  C   UNL     1      -0.936   7.311  17.075  0.00  0.00    +0.000 C 
ATOM     27  C   UNL     1      -6.790  -0.594  17.705  0.00  0.00    +0.000 C 
ATOM     28  C   UNL     1       0.444   6.483  15.145  0.00  0.00    +0.000 C 
ENDROOT
BRANCH  23  29
ATOM     29  O   UNL     1      -5.446   0.018  15.264  0.00  0.00    +0.000 OA
ATOM     30  C   UNL     1      -6.141  -0.656  14.218  0.00  0.00    +0.000 C 
ENDBRANCH  23  29
BRANCH  26  31
ATOM     31  O   UNL     1       0.162   8.034  17.528  0.00  0.00    +0.000 OA
ATOM     32  C   UNL     1       0.899   7.416  18.581  0.00  0.00    +0.000 C 
ENDBRANCH  26  31
BRANCH  10  34
ATOM     33  N   UNL     1      -7.483   9.013  17.407  0.00  0.00    +0.000 NA
ATOM     34  C   UNL     1      -7.357   7.881  17.628  0.00  0.00    +0.000 C 
ENDBRANCH  10  34
BRANCH  11  35
ATOM     35  C   UNL     1      -4.419   5.926  19.499  0.00  0.00    +0.000 C 
BRANCH  35  36
ATOM     36  O   UNL     1      -4.639   4.504  19.392  0.00  0.00    +0.000 OA
BRANCH  36  38
ATOM     37  O   UNL     1      -2.411   4.126  19.765  0.00  0.00    +0.000 OA
ATOM     38  C   UNL     1      -3.513   3.753  19.398  0.00  0.00    +0.000 C 
BRANCH  38  39
ATOM     39  C   UNL     1      -3.820   2.343  19.020  0.00  0.00    +0.000 C 
ATOM     40  C   UNL     1      -4.660   1.625  20.038  0.00  0.00    +0.000 C 
ATOM     41  C   UNL     1      -3.393   1.736  17.895  0.00  0.00    +0.000 C 
ATOM     42  C   UNL     1      -2.476   2.273  16.841  0.00  0.00    +0.000 C 
ENDBRANCH  38  39
ENDBRANCH  36  38
ENDBRANCH  35  36
ENDBRANCH  11  35
TORSDOF 7
ENDMDL
MODEL 3
REMARK VINA RESULT:      -4.3      3.270      7.161
REMARK  Name = 
REMARK  14 active torsions:
REMARK  status: ('A' for Active; 'I' for Inactive)
REMARK    1  A    between atoms: O_1  and  C_24
REMARK    2  A    between atoms: O_1  and  C_36
REMARK    3  A    between atoms: O_4  and  C_30
REMARK    4  A    between atoms: O_4  and  C_37
REMARK    5  A    between atoms: O_7  and  C_33
REMARK    6  A    between atoms: O_7  and  C_38
REMARK    7  A    between atoms: N_10  and  C_23
REMARK    8  A    between atoms: C_15  and  C_26
REMARK    9  A    between atoms: C_16  and  C_24
REMARK   10  A    between atoms: C_31  and  C_34
REMARK   11  A    between atoms: C_32  and  C_35
REMARK   12  A    between atoms: C_36  and  C_39
REMARK   13  A    between atoms: C_39  and  C_40
REMARK   14  A    between atoms: C_41  and  C_42
REMARK                            x       y       z     vdW  Elec       q    Type
REMARK                         _______ _______ _______ _____ _____    ______ ____
ROOT
ATOM      1  O   UNL     1     -14.347  16.924  25.027  0.00  0.00    +0.000 OA
ATOM      2  O   UNL     1     -13.021  21.916  26.289  0.00  0.00    +0.000 OA
ATOM      3  O   UNL     1     -10.995  14.267  23.170  0.00  0.00    +0.000 OA
ATOM      4  O   UNL     1      -7.836  17.710  20.631  0.00  0.00    +0.000 OA
ATOM      5  N   UNL     1     -11.498  19.225  22.197  0.00  0.00    +0.000 NA
ATOM      6  N   UNL     1     -14.381  19.742  21.980  0.00  0.00    +0.000 NA
ATOM      7  C   UNL     1     -12.508  18.135  22.216  0.00  0.00    +0.000 C 
ATOM      8  C   UNL     1     -13.888  18.623  22.833  0.00  0.00    +0.000 C 
ATOM      9  C   UNL     1     -13.434  20.881  22.091  0.00  0.00    +0.000 C 
ATOM     10  C   UNL     1     -12.026  20.457  21.528  0.00  0.00    +0.000 C 
ATOM     11  C   UNL     1     -10.128  18.845  21.752  0.00  0.00    +0.000 C 
ATOM     12  C   UNL     1     -11.966  16.897  22.963  0.00  0.00    +0.000 C 
ATOM     13  C   UNL     1     -13.313  21.402  23.550  0.00  0.00    +0.000 C 
ATOM     14  C   UNL     1     -13.726  19.060  24.283  0.00  0.00    +0.000 C 
ATOM     15  C   UNL     1     -13.441  20.330  24.604  0.00  0.00    +0.000 C 
ATOM     16  C   UNL     1      -9.801  17.365  21.874  0.00  0.00    +0.000 C 
ATOM     17  C   UNL     1     -10.624  16.478  22.446  0.00  0.00    +0.000 C 
ATOM     18  C   UNL     1     -15.774  20.098  22.231  0.00  0.00    +0.000 C 
ATOM     19  C   UNL     1     -13.956  18.045  25.337  0.00  0.00    +0.000 C 
ATOM     20  C   UNL     1     -13.273  20.749  26.011  0.00  0.00    +0.000 C 
ATOM     21  C   UNL     1     -10.251  15.054  22.595  0.00  0.00    +0.000 C 
ATOM     22  C   UNL     1      -8.519  16.916  21.270  0.00  0.00    +0.000 C 
ATOM     23  C   UNL     1     -13.696  18.439  26.761  0.00  0.00    +0.000 C 
ATOM     24  C   UNL     1     -13.400  19.712  27.068  0.00  0.00    +0.000 C 
ATOM     25  C   UNL     1      -8.937  14.616  22.060  0.00  0.00    +0.000 C 
ATOM     26  C   UNL     1      -8.111  15.485  21.457  0.00  0.00    +0.000 C 
ATOM     27  C   UNL     1     -13.179  20.207  28.467  0.00  0.00    +0.000 C 
ATOM     28  C   UNL     1      -8.628  13.160  22.256  0.00  0.00    +0.000 C 
ENDROOT
BRANCH  23  29
ATOM     29  O   UNL     1     -13.819  17.512  27.789  0.00  0.00    +0.000 OA
ATOM     30  C   UNL     1     -15.140  17.322  28.289  0.00  0.00    +0.000 C 
ENDBRANCH  23  29
BRANCH  26  31
ATOM     31  O   UNL     1      -6.900  15.023  20.951  0.00  0.00    +0.000 OA
ATOM     32  C   UNL     1      -5.768  15.261  21.785  0.00  0.00    +0.000 C 
ENDBRANCH  26  31
BRANCH  10  34
ATOM     33  N   UNL     1     -12.227  20.289  18.888  0.00  0.00    +0.000 NA
ATOM     34  C   UNL     1     -12.117  20.363  20.042  0.00  0.00    +0.000 C 
ENDBRANCH  10  34
BRANCH  11  35
ATOM     35  C   UNL     1      -9.116  19.684  22.588  0.00  0.00    +0.000 C 
BRANCH  35  36
ATOM     36  O   UNL     1      -9.611  19.815  23.937  0.00  0.00    +0.000 OA
BRANCH  36  38
ATOM     37  O   UNL     1      -7.735  18.776  24.742  0.00  0.00    +0.000 OA
ATOM     38  C   UNL     1      -8.884  19.164  24.875  0.00  0.00    +0.000 C 
BRANCH  38  39
ATOM     39  C   UNL     1      -9.630  19.097  26.164  0.00  0.00    +0.000 C 
ATOM     40  C   UNL     1      -9.687  20.414  26.886  0.00  0.00    +0.000 C 
ATOM     41  C   UNL     1     -10.196  17.984  26.672  0.00  0.00    +0.000 C 
ATOM     42  C   UNL     1     -10.143  16.589  26.135  0.00  0.00    +0.000 C 
ENDBRANCH  38  39
ENDBRANCH  36  38
ENDBRANCH  35  36
ENDBRANCH  11  35
TORSDOF 7
ENDMDL
MODEL 4
REMARK VINA RESULT:      -4.3     13.129     16.845
REMARK  Name = 
REMARK  14 active torsions:
REMARK  status: ('A' for Active; 'I' for Inactive)
REMARK    1  A    between atoms: O_1  and  C_24
REMARK    2  A    between atoms: O_1  and  C_36
REMARK    3  A    between atoms: O_4  and  C_30
REMARK    4  A    between atoms: O_4  and  C_37
REMARK    5  A    between atoms: O_7  and  C_33
REMARK    6  A    between atoms: O_7  and  C_38
REMARK    7  A    between atoms: N_10  and  C_23
REMARK    8  A    between atoms: C_15  and  C_26
REMARK    9  A    between atoms: C_16  and  C_24
REMARK   10  A    between atoms: C_31  and  C_34
REMARK   11  A    between atoms: C_32  and  C_35
REMARK   12  A    between atoms: C_36  and  C_39
REMARK   13  A    between atoms: C_39  and  C_40
REMARK   14  A    between atoms: C_41  and  C_42
REMARK                            x       y       z     vdW  Elec       q    Type
REMARK                         _______ _______ _______ _____ _____    ______ ____
ROOT
ATOM      1  O   UNL     1      -4.155   4.068  20.332  0.00  0.00    +0.000 OA
ATOM      2  O   UNL     1      -3.474   6.230  15.523  0.00  0.00    +0.000 OA
ATOM      3  O   UNL     1      -8.535   3.075  21.587  0.00  0.00    +0.000 OA
ATOM      4  O   UNL     1     -11.493   6.658  19.002  0.00  0.00    +0.000 OA
ATOM      5  N   UNL     1      -7.265   7.159  18.852  0.00  0.00    +0.000 NA
ATOM      6  N   UNL     1      -4.742   8.160  19.974  0.00  0.00    +0.000 NA
ATOM      7  C   UNL     1      -6.663   6.597  20.089  0.00  0.00    +0.000 C 
ATOM      8  C   UNL     1      -5.079   6.711  20.076  0.00  0.00    +0.000 C 
ATOM      9  C   UNL     1      -5.220   8.670  18.663  0.00  0.00    +0.000 C 
ATOM     10  C   UNL     1      -6.789   8.555  18.588  0.00  0.00    +0.000 C 
ATOM     11  C   UNL     1      -8.737   6.993  18.702  0.00  0.00    +0.000 C 
ATOM     12  C   UNL     1      -7.118   5.139  20.308  0.00  0.00    +0.000 C 
ATOM     13  C   UNL     1      -4.553   7.933  17.469  0.00  0.00    +0.000 C 
ATOM     14  C   UNL     1      -4.472   5.918  18.927  0.00  0.00    +0.000 C 
ATOM     15  C   UNL     1      -4.254   6.478  17.728  0.00  0.00    +0.000 C 
ATOM     16  C   UNL     1      -9.343   5.866  19.524  0.00  0.00    +0.000 C 
ATOM     17  C   UNL     1      -8.609   5.003  20.237  0.00  0.00    +0.000 C 
ATOM     18  C   UNL     1      -3.340   8.456  20.253  0.00  0.00    +0.000 C 
ATOM     19  C   UNL     1      -4.071   4.518  19.194  0.00  0.00    +0.000 C 
ATOM     20  C   UNL     1      -3.676   5.702  16.611  0.00  0.00    +0.000 C 
ATOM     21  C   UNL     1      -9.228   3.886  20.983  0.00  0.00    +0.000 C 
ATOM     22  C   UNL     1     -10.827   5.785  19.548  0.00  0.00    +0.000 C 
ATOM     23  C   UNL     1      -3.571   3.697  18.042  0.00  0.00    +0.000 C 
ATOM     24  C   UNL     1      -3.368   4.267  16.843  0.00  0.00    +0.000 C 
ATOM     25  C   UNL     1     -10.706   3.756  20.948  0.00  0.00    +0.000 C 
ATOM     26  C   UNL     1     -11.462   4.629  20.262  0.00  0.00    +0.000 C 
ATOM     27  C   UNL     1      -2.820   3.538  15.650  0.00  0.00    +0.000 C 
ATOM     28  C   UNL     1     -11.258   2.594  21.723  0.00  0.00    +0.000 C 
ENDROOT
BRANCH  23  29
ATOM     29  O   UNL     1      -3.251   2.355  18.210  0.00  0.00    +0.000 OA
ATOM     30  C   UNL     1      -4.354   1.452  18.180  0.00  0.00    +0.000 C 
ENDBRANCH  23  29
BRANCH  26  31
ATOM     31  O   UNL     1     -12.845   4.480  20.278  0.00  0.00    +0.000 OA
ATOM     32  C   UNL     1     -13.504   5.090  21.386  0.00  0.00    +0.000 C 
ENDBRANCH  26  31
BRANCH  10  34
ATOM     33  N   UNL     1      -7.813  10.412  20.183  0.00  0.00    +0.000 NA
ATOM     34  C   UNL     1      -7.384   9.590  19.483  0.00  0.00    +0.000 C 
ENDBRANCH  10  34
BRANCH  11  35
ATOM     35  C   UNL     1      -9.031   6.765  17.189  0.00  0.00    +0.000 C 
BRANCH  35  36
ATOM     36  O   UNL     1      -7.920   6.063  16.592  0.00  0.00    +0.000 OA
BRANCH  36  38
ATOM     37  O   UNL     1      -9.254   5.089  15.005  0.00  0.00    +0.000 OA
ATOM     38  C   UNL     1      -8.267   5.086  15.722  0.00  0.00    +0.000 C 
BRANCH  38  39
ATOM     39  C   UNL     1      -7.201   4.046  15.648  0.00  0.00    +0.000 C 
ATOM     40  C   UNL     1      -6.212   4.287  14.542  0.00  0.00    +0.000 C 
ATOM     41  C   UNL     1      -7.109   2.976  16.462  0.00  0.00    +0.000 C 
ATOM     42  C   UNL     1      -8.057   2.541  17.534  0.00  0.00    +0.000 C 
ENDBRANCH  38  39
ENDBRANCH  36  38
ENDBRANCH  35  36
ENDBRANCH  11  35
TORSDOF 7
ENDMDL
MODEL 5
REMARK VINA RESULT:      -4.3     19.384     23.782
REMARK  Name = 
REMARK  14 active torsions:
REMARK  status: ('A' for Active; 'I' for Inactive)
REMARK    1  A    between atoms: O_1  and  C_24
REMARK    2  A    between atoms: O_1  and  C_36
REMARK    3  A    between atoms: O_4  and  C_30
REMARK    4  A    between atoms: O_4  and  C_37
REMARK    5  A    between atoms: O_7  and  C_33
REMARK    6  A    between atoms: O_7  and  C_38
REMARK    7  A    between atoms: N_10  and  C_23
REMARK    8  A    between atoms: C_15  and  C_26
REMARK    9  A    between atoms: C_16  and  C_24
REMARK   10  A    between atoms: C_31  and  C_34
REMARK   11  A    between atoms: C_32  and  C_35
REMARK   12  A    between atoms: C_36  and  C_39
REMARK   13  A    between atoms: C_39  and  C_40
REMARK   14  A    between atoms: C_41  and  C_42
REMARK                            x       y       z     vdW  Elec       q    Type
REMARK                         _______ _______ _______ _____ _____    ______ ____
ROOT
ATOM      1  O   UNL     1      -3.920  19.092  -0.086  0.00  0.00    +0.000 OA
ATOM      2  O   UNL     1      -6.103  14.469   1.375  0.00  0.00    +0.000 OA
ATOM      3  O   UNL     1       0.639  19.044  -1.068  0.00  0.00    +0.000 OA
ATOM      4  O   UNL     1       2.602  15.146   1.970  0.00  0.00    +0.000 OA
ATOM      5  N   UNL     1      -1.459  16.257   2.621  0.00  0.00    +0.000 NA
ATOM      6  N   UNL     1      -3.503  17.948   3.881  0.00  0.00    +0.000 NA
ATOM      7  C   UNL     1      -1.634  17.691   2.272  0.00  0.00    +0.000 C 
ATOM      8  C   UNL     1      -3.142  18.159   2.450  0.00  0.00    +0.000 C 
ATOM      9  C   UNL     1      -3.468  16.493   4.173  0.00  0.00    +0.000 C 
ATOM     10  C   UNL     1      -2.003  15.947   3.982  0.00  0.00    +0.000 C 
ATOM     11  C   UNL     1      -0.109  15.680   2.374  0.00  0.00    +0.000 C 
ATOM     12  C   UNL     1      -1.124  17.976   0.844  0.00  0.00    +0.000 C 
ATOM     13  C   UNL     1      -4.474  15.695   3.298  0.00  0.00    +0.000 C 
ATOM     14  C   UNL     1      -4.076  17.393   1.523  0.00  0.00    +0.000 C 
ATOM     15  C   UNL     1      -4.666  16.253   1.910  0.00  0.00    +0.000 C 
ATOM     16  C   UNL     1       0.733  16.431   1.354  0.00  0.00    +0.000 C 
ATOM     17  C   UNL     1       0.269  17.462   0.637  0.00  0.00    +0.000 C 
ATOM     18  C   UNL     1      -4.747  18.605   4.274  0.00  0.00    +0.000 C 
ATOM     19  C   UNL     1      -4.363  17.983   0.196  0.00  0.00    +0.000 C 
ATOM     20  C   UNL     1      -5.563  15.506   1.004  0.00  0.00    +0.000 C 
ATOM     21  C   UNL     1       1.100  18.137  -0.384  0.00  0.00    +0.000 C 
ATOM     22  C   UNL     1       2.149  16.001   1.215  0.00  0.00    +0.000 C 
ATOM     23  C   UNL     1      -5.196  17.185  -0.763  0.00  0.00    +0.000 C 
ATOM     24  C   UNL     1      -5.773  16.039  -0.367  0.00  0.00    +0.000 C 
ATOM     25  C   UNL     1       2.491  17.660  -0.579  0.00  0.00    +0.000 C 
ATOM     26  C   UNL     1       2.985  16.647   0.151  0.00  0.00    +0.000 C 
ATOM     27  C   UNL     1      -6.665  15.204  -1.239  0.00  0.00    +0.000 C 
ATOM     28  C   UNL     1       3.267  18.390  -1.637  0.00  0.00    +0.000 C 
ENDROOT
BRANCH  23  29
ATOM     29  O   UNL     1      -5.438  17.647  -2.052  0.00  0.00    +0.000 OA
ATOM     30  C   UNL     1      -6.480  18.612  -2.172  0.00  0.00    +0.000 C 
ENDBRANCH  23  29
BRANCH  26  31
ATOM     31  O   UNL     1       4.303  16.250  -0.052  0.00  0.00    +0.000 OA
ATOM     32  C   UNL     1       4.465  15.092  -0.869  0.00  0.00    +0.000 C 
ENDBRANCH  26  31
BRANCH  10  34
ATOM     33  N   UNL     1      -0.477  16.809   5.973  0.00  0.00    +0.000 NA
ATOM     34  C   UNL     1      -1.162  16.441   5.112  0.00  0.00    +0.000 C 
ENDBRANCH  10  34
BRANCH  11  35
ATOM     35  C   UNL     1      -0.308  14.205   1.914  0.00  0.00    +0.000 C 
BRANCH  35  36
ATOM     36  O   UNL     1      -1.541  14.103   1.170  0.00  0.00    +0.000 OA
BRANCH  36  38
ATOM     37  O   UNL     1      -0.665  12.574  -0.294  0.00  0.00    +0.000 OA
ATOM     38  C   UNL     1      -1.431  13.487  -0.030  0.00  0.00    +0.000 C 
BRANCH  38  39
ATOM     39  C   UNL     1      -2.475  13.982  -0.972  0.00  0.00    +0.000 C 
ATOM     40  C   UNL     1      -2.156  15.329  -1.558  0.00  0.00    +0.000 C 
ATOM     41  C   UNL     1      -3.610  13.325  -1.281  0.00  0.00    +0.000 C 
ATOM     42  C   UNL     1      -4.120  12.037  -0.715  0.00  0.00    +0.000 C 
ENDBRANCH  38  39
ENDBRANCH  36  38
ENDBRANCH  35  36
ENDBRANCH  11  35
TORSDOF 7
ENDMDL
MODEL 6
REMARK VINA RESULT:      -4.2      8.574     12.235
REMARK  Name = 
REMARK  14 active torsions:
REMARK  status: ('A' for Active; 'I' for Inactive)
REMARK    1  A    between atoms: O_1  and  C_24
REMARK    2  A    between atoms: O_1  and  C_36
REMARK    3  A    between atoms: O_4  and  C_30
REMARK    4  A    between atoms: O_4  and  C_37
REMARK    5  A    between atoms: O_7  and  C_33
REMARK    6  A    between atoms: O_7  and  C_38
REMARK    7  A    between atoms: N_10  and  C_23
REMARK    8  A    between atoms: C_15  and  C_26
REMARK    9  A    between atoms: C_16  and  C_24
REMARK   10  A    between atoms: C_31  and  C_34
REMARK   11  A    between atoms: C_32  and  C_35
REMARK   12  A    between atoms: C_36  and  C_39
REMARK   13  A    between atoms: C_39  and  C_40
REMARK   14  A    between atoms: C_41  and  C_42
REMARK                            x       y       z     vdW  Elec       q    Type
REMARK                         _______ _______ _______ _____ _____    ______ ____
ROOT
ATOM      1  O   UNL     1      -0.506  17.128  15.133  0.00  0.00    +0.000 OA
ATOM      2  O   UNL     1      -0.218  12.371  12.775  0.00  0.00    +0.000 OA
ATOM      3  O   UNL     1      -4.150  17.859  17.948  0.00  0.00    +0.000 OA
ATOM      4  O   UNL     1      -8.009  14.805  15.933  0.00  0.00    +0.000 OA
ATOM      5  N   UNL     1      -4.428  15.168  13.653  0.00  0.00    +0.000 NA
ATOM      6  N   UNL     1      -2.748  16.561  11.687  0.00  0.00    +0.000 NA
ATOM      7  C   UNL     1      -3.806  16.488  13.929  0.00  0.00    +0.000 C 
ATOM      8  C   UNL     1      -2.438  16.669  13.142  0.00  0.00    +0.000 C 
ATOM      9  C   UNL     1      -3.229  15.185  11.403  0.00  0.00    +0.000 C 
ATOM     10  C   UNL     1      -4.571  14.919  12.182  0.00  0.00    +0.000 C 
ATOM     11  C   UNL     1      -5.653  14.841  14.434  0.00  0.00    +0.000 C 
ATOM     12  C   UNL     1      -3.612  16.698  15.446  0.00  0.00    +0.000 C 
ATOM     13  C   UNL     1      -2.164  14.109  11.751  0.00  0.00    +0.000 C 
ATOM     14  C   UNL     1      -1.408  15.632  13.568  0.00  0.00    +0.000 C 
ATOM     15  C   UNL     1      -1.302  14.452  12.940  0.00  0.00    +0.000 C 
ATOM     16  C   UNL     1      -5.813  15.618  15.732  0.00  0.00    +0.000 C 
ATOM     17  C   UNL     1      -4.876  16.446  16.209  0.00  0.00    +0.000 C 
ATOM     18  C   UNL     1      -1.659  17.004  10.822  0.00  0.00    +0.000 C 
ATOM     19  C   UNL     1      -0.480  15.994  14.664  0.00  0.00    +0.000 C 
ATOM     20  C   UNL     1      -0.309  13.442  13.364  0.00  0.00    +0.000 C 
ATOM     21  C   UNL     1      -5.042  17.146  17.502  0.00  0.00    +0.000 C 
ATOM     22  C   UNL     1      -7.106  15.460  16.446  0.00  0.00    +0.000 C 
ATOM     23  C   UNL     1       0.466  14.942  15.160  0.00  0.00    +0.000 C 
ATOM     24  C   UNL     1       0.555  13.759  14.531  0.00  0.00    +0.000 C 
ATOM     25  C   UNL     1      -6.302  16.931  18.256  0.00  0.00    +0.000 C 
ATOM     26  C   UNL     1      -7.266  16.127  17.779  0.00  0.00    +0.000 C 
ATOM     27  C   UNL     1       1.510  12.669  14.923  0.00  0.00    +0.000 C 
ATOM     28  C   UNL     1      -6.393  17.670  19.560  0.00  0.00    +0.000 C 
ENDROOT
BRANCH  23  29
ATOM     29  O   UNL     1       1.310  15.193  16.237  0.00  0.00    +0.000 OA
ATOM     30  C   UNL     1       0.722  15.041  17.526  0.00  0.00    +0.000 C 
ENDBRANCH  23  29
BRANCH  26  31
ATOM     31  O   UNL     1      -8.439  15.976  18.511  0.00  0.00    +0.000 OA
ATOM     32  C   UNL     1      -9.512  16.827  18.113  0.00  0.00    +0.000 C 
ENDBRANCH  26  31
BRANCH  10  34
ATOM     33  N   UNL     1      -6.486  16.318  10.994  0.00  0.00    +0.000 NA
ATOM     34  C   UNL     1      -5.663  15.697  11.527  0.00  0.00    +0.000 C 
ENDBRANCH  10  34
BRANCH  11  35
ATOM     35  C   UNL     1      -5.625  13.312  14.730  0.00  0.00    +0.000 C 
BRANCH  35  36
ATOM     36  O   UNL     1      -4.488  13.013  15.568  0.00  0.00    +0.000 OA
BRANCH  36  38
ATOM     37  O   UNL     1      -4.315  10.863  16.340  0.00  0.00    +0.000 OA
ATOM     38  C   UNL     1      -4.688  12.018  16.464  0.00  0.00    +0.000 C 
BRANCH  38  39
ATOM     39  C   UNL     1      -5.316  12.551  17.707  0.00  0.00    +0.000 C 
ATOM     40  C   UNL     1      -6.736  12.099  17.896  0.00  0.00    +0.000 C 
ATOM     41  C   UNL     1      -4.708  13.369  18.589  0.00  0.00    +0.000 C 
ATOM     42  C   UNL     1      -3.348  13.986  18.498  0.00  0.00    +0.000 C 
ENDBRANCH  38  39
ENDBRANCH  36  38
ENDBRANCH  35  36
ENDBRANCH  11  35
TORSDOF 7
ENDMDL
MODEL 7
REMARK VINA RESULT:      -4.2     19.143     22.445
REMARK  Name = 
REMARK  14 active torsions:
REMARK  status: ('A' for Active; 'I' for Inactive)
REMARK    1  A    between atoms: O_1  and  C_24
REMARK    2  A    between atoms: O_1  and  C_36
REMARK    3  A    between atoms: O_4  and  C_30
REMARK    4  A    between atoms: O_4  and  C_37
REMARK    5  A    between atoms: O_7  and  C_33
REMARK    6  A    between atoms: O_7  and  C_38
REMARK    7  A    between atoms: N_10  and  C_23
REMARK    8  A    between atoms: C_15  and  C_26
REMARK    9  A    between atoms: C_16  and  C_24
REMARK   10  A    between atoms: C_31  and  C_34
REMARK   11  A    between atoms: C_32  and  C_35
REMARK   12  A    between atoms: C_36  and  C_39
REMARK   13  A    between atoms: C_39  and  C_40
REMARK   14  A    between atoms: C_41  and  C_42
REMARK                            x       y       z     vdW  Elec       q    Type
REMARK                         _______ _______ _______ _____ _____    ______ ____
ROOT
ATOM      1  O   UNL     1      -2.519  17.939  -2.050  0.00  0.00    +0.000 OA
ATOM      2  O   UNL     1      -7.022  15.430  -0.747  0.00  0.00    +0.000 OA
ATOM      3  O   UNL     1       0.781  18.172   1.237  0.00  0.00    +0.000 OA
ATOM      4  O   UNL     1      -1.916  18.151   5.819  0.00  0.00    +0.000 OA
ATOM      5  N   UNL     1      -4.187  18.497   2.230  0.00  0.00    +0.000 NA
ATOM      6  N   UNL     1      -5.367  20.093   0.065  0.00  0.00    +0.000 NA
ATOM      7  C   UNL     1      -3.361  19.169   1.194  0.00  0.00    +0.000 C 
ATOM      8  C   UNL     1      -4.136  19.289  -0.187  0.00  0.00    +0.000 C 
ATOM      9  C   UNL     1      -6.250  19.336   0.988  0.00  0.00    +0.000 C 
ATOM     10  C   UNL     1      -5.530  19.146   2.376  0.00  0.00    +0.000 C 
ATOM     11  C   UNL     1      -3.515  18.221   3.531  0.00  0.00    +0.000 C 
ATOM     12  C   UNL     1      -2.008  18.449   1.017  0.00  0.00    +0.000 C 
ATOM     13  C   UNL     1      -6.680  17.965   0.396  0.00  0.00    +0.000 C 
ATOM     14  C   UNL     1      -4.475  17.919  -0.757  0.00  0.00    +0.000 C 
ATOM     15  C   UNL     1      -5.634  17.308  -0.468  0.00  0.00    +0.000 C 
ATOM     16  C   UNL     1      -1.996  18.174   3.470  0.00  0.00    +0.000 C 
ATOM     17  C   UNL     1      -1.306  18.253   2.326  0.00  0.00    +0.000 C 
ATOM     18  C   UNL     1      -6.028  20.548  -1.154  0.00  0.00    +0.000 C 
ATOM     19  C   UNL     1      -3.508  17.305  -1.695  0.00  0.00    +0.000 C 
ATOM     20  C   UNL     1      -5.955  15.972  -1.013  0.00  0.00    +0.000 C 
ATOM     21  C   UNL     1       0.170  18.152   2.300  0.00  0.00    +0.000 C 
ATOM     22  C   UNL     1      -1.282  18.088   4.771  0.00  0.00    +0.000 C 
ATOM     23  C   UNL     1      -3.783  15.912  -2.177  0.00  0.00    +0.000 C 
ATOM     24  C   UNL     1      -4.942  15.306  -1.872  0.00  0.00    +0.000 C 
ATOM     25  C   UNL     1       0.883  17.988   3.591  0.00  0.00    +0.000 C 
ATOM     26  C   UNL     1       0.210  17.937   4.752  0.00  0.00    +0.000 C 
ATOM     27  C   UNL     1      -5.326  13.937  -2.354  0.00  0.00    +0.000 C 
ATOM     28  C   UNL     1       2.377  17.886   3.480  0.00  0.00    +0.000 C 
ENDROOT
BRANCH  23  29
ATOM     29  O   UNL     1      -2.877  15.250  -2.998  0.00  0.00    +0.000 OA
ATOM     30  C   UNL     1      -1.731  14.714  -2.340  0.00  0.00    +0.000 C 
ENDBRANCH  23  29
BRANCH  26  31
ATOM     31  O   UNL     1       0.924  17.806   5.938  0.00  0.00    +0.000 OA
ATOM     32  C   UNL     1       1.203  19.032   6.612  0.00  0.00    +0.000 C 
ENDBRANCH  26  31
BRANCH  10  34
ATOM     33  N   UNL     1      -5.531  21.480   3.637  0.00  0.00    +0.000 NA
ATOM     34  C   UNL     1      -5.509  20.459   3.084  0.00  0.00    +0.000 C 
ENDBRANCH  10  34
BRANCH  11  35
ATOM     35  C   UNL     1      -4.068  16.866   4.064  0.00  0.00    +0.000 C 
BRANCH  35  36
ATOM     36  O   UNL     1      -3.881  15.849   3.057  0.00  0.00    +0.000 OA
BRANCH  36  38
ATOM     37  O   UNL     1      -3.036  14.198   4.401  0.00  0.00    +0.000 OA
ATOM     38  C   UNL     1      -3.000  14.876   3.387  0.00  0.00    +0.000 C 
BRANCH  38  39
ATOM     39  C   UNL     1      -2.037  14.639   2.274  0.00  0.00    +0.000 C 
ATOM     40  C   UNL     1      -2.696  14.559   0.925  0.00  0.00    +0.000 C 
ATOM     41  C   UNL     1      -0.706  14.491   2.423  0.00  0.00    +0.000 C 
ATOM     42  C   UNL     1       0.086  14.444   3.691  0.00  0.00    +0.000 C 
ENDBRANCH  38  39
ENDBRANCH  36  38
ENDBRANCH  35  36
ENDBRANCH  11  35
TORSDOF 7
ENDMDL
MODEL 8
REMARK VINA RESULT:      -4.2     25.552     28.766
REMARK  Name = 
REMARK  14 active torsions:
REMARK  status: ('A' for Active; 'I' for Inactive)
REMARK    1  A    between atoms: O_1  and  C_24
REMARK    2  A    between atoms: O_1  and  C_36
REMARK    3  A    between atoms: O_4  and  C_30
REMARK    4  A    between atoms: O_4  and  C_37
REMARK    5  A    between atoms: O_7  and  C_33
REMARK    6  A    between atoms: O_7  and  C_38
REMARK    7  A    between atoms: N_10  and  C_23
REMARK    8  A    between atoms: C_15  and  C_26
REMARK    9  A    between atoms: C_16  and  C_24
REMARK   10  A    between atoms: C_31  and  C_34
REMARK   11  A    between atoms: C_32  and  C_35
REMARK   12  A    between atoms: C_36  and  C_39
REMARK   13  A    between atoms: C_39  and  C_40
REMARK   14  A    between atoms: C_41  and  C_42
REMARK                            x       y       z     vdW  Elec       q    Type
REMARK                         _______ _______ _______ _____ _____    ______ ____
ROOT
ATOM      1  O   UNL     1       4.597   9.172   1.470  0.00  0.00    +0.000 OA
ATOM      2  O   UNL     1       4.845   8.074  -3.726  0.00  0.00    +0.000 OA
ATOM      3  O   UNL     1       1.440   6.816   3.966  0.00  0.00    +0.000 OA
ATOM      4  O   UNL     1      -2.458   5.762   0.506  0.00  0.00    +0.000 OA
ATOM      5  N   UNL     1       0.644   8.376  -0.800  0.00  0.00    +0.000 NA
ATOM      6  N   UNL     1       1.851  11.045  -1.014  0.00  0.00    +0.000 NA
ATOM      7  C   UNL     1       1.200   9.097   0.375  0.00  0.00    +0.000 C 
ATOM      8  C   UNL     1       2.395  10.058  -0.038  0.00  0.00    +0.000 C 
ATOM      9  C   UNL     1       1.437  10.322  -2.244  0.00  0.00    +0.000 C 
ATOM     10  C   UNL     1       0.272   9.318  -1.903  0.00  0.00    +0.000 C 
ATOM     11  C   UNL     1      -0.402   7.355  -0.510  0.00  0.00    +0.000 C 
ATOM     12  C   UNL     1       1.633   8.104   1.474  0.00  0.00    +0.000 C 
ATOM     13  C   UNL     1       2.626   9.581  -2.917  0.00  0.00    +0.000 C 
ATOM     14  C   UNL     1       3.559   9.276  -0.630  0.00  0.00    +0.000 C 
ATOM     15  C   UNL     1       3.648   9.042  -1.948  0.00  0.00    +0.000 C 
ATOM     16  C   UNL     1      -0.397   6.818   0.912  0.00  0.00    +0.000 C 
ATOM     17  C   UNL     1       0.540   7.136   1.813  0.00  0.00    +0.000 C 
ATOM     18  C   UNL     1       2.739  12.177  -1.259  0.00  0.00    +0.000 C 
ATOM     19  C   UNL     1       4.630   8.832   0.292  0.00  0.00    +0.000 C 
ATOM     20  C   UNL     1       4.774   8.273  -2.518  0.00  0.00    +0.000 C 
ATOM     21  C   UNL     1       0.543   6.553   3.172  0.00  0.00    +0.000 C 
ATOM     22  C   UNL     1      -1.535   5.940   1.294  0.00  0.00    +0.000 C 
ATOM     23  C   UNL     1       5.725   7.972  -0.264  0.00  0.00    +0.000 C 
ATOM     24  C   UNL     1       5.797   7.735  -1.584  0.00  0.00    +0.000 C 
ATOM     25  C   UNL     1      -0.550   5.616   3.533  0.00  0.00    +0.000 C 
ATOM     26  C   UNL     1      -1.516   5.307   2.654  0.00  0.00    +0.000 C 
ATOM     27  C   UNL     1       6.886   6.933  -2.235  0.00  0.00    +0.000 C 
ATOM     28  C   UNL     1      -0.474   5.063   4.927  0.00  0.00    +0.000 C 
ENDROOT
BRANCH  23  29
ATOM     29  O   UNL     1       6.718   7.459   0.564  0.00  0.00    +0.000 OA
ATOM     30  C   UNL     1       7.776   8.359   0.883  0.00  0.00    +0.000 C 
ENDBRANCH  23  29
BRANCH  26  31
ATOM     31  O   UNL     1      -2.532   4.442   3.046  0.00  0.00    +0.000 OA
ATOM     32  C   UNL     1      -2.351   3.082   2.656  0.00  0.00    +0.000 C 
ENDBRANCH  26  31
BRANCH  10  34
ATOM     33  N   UNL     1      -1.947  10.693  -1.427  0.00  0.00    +0.000 NA
ATOM     34  C   UNL     1      -0.973  10.103  -1.654  0.00  0.00    +0.000 C 
ENDBRANCH  10  34
BRANCH  11  35
ATOM     35  C   UNL     1      -0.205   6.186  -1.521  0.00  0.00    +0.000 C 
BRANCH  35  36
ATOM     36  O   UNL     1       1.207   5.966  -1.722  0.00  0.00    +0.000 OA
BRANCH  36  38
ATOM     37  O   UNL     1       1.030   3.895  -0.760  0.00  0.00    +0.000 OA
ATOM     38  C   UNL     1       1.695   4.841  -1.150  0.00  0.00    +0.000 C 
BRANCH  38  39
ATOM     39  C   UNL     1       3.186   4.842  -1.176  0.00  0.00    +0.000 C 
ATOM     40  C   UNL     1       3.755   4.694  -2.559  0.00  0.00    +0.000 C 
ATOM     41  C   UNL     1       3.976   4.947  -0.090  0.00  0.00    +0.000 C 
ATOM     42  C   UNL     1       3.574   4.998   1.350  0.00  0.00    +0.000 C 
ENDBRANCH  38  39
ENDBRANCH  36  38
ENDBRANCH  35  36
ENDBRANCH  11  35
TORSDOF 7
ENDMDL
MODEL 9
REMARK VINA RESULT:      -4.1     25.463     29.217
REMARK  Name = 
REMARK  14 active torsions:
REMARK  status: ('A' for Active; 'I' for Inactive)
REMARK    1  A    between atoms: O_1  and  C_24
REMARK    2  A    between atoms: O_1  and  C_36
REMARK    3  A    between atoms: O_4  and  C_30
REMARK    4  A    between atoms: O_4  and  C_37
REMARK    5  A    between atoms: O_7  and  C_33
REMARK    6  A    between atoms: O_7  and  C_38
REMARK    7  A    between atoms: N_10  and  C_23
REMARK    8  A    between atoms: C_15  and  C_26
REMARK    9  A    between atoms: C_16  and  C_24
REMARK   10  A    between atoms: C_31  and  C_34
REMARK   11  A    between atoms: C_32  and  C_35
REMARK   12  A    between atoms: C_36  and  C_39
REMARK   13  A    between atoms: C_39  and  C_40
REMARK   14  A    between atoms: C_41  and  C_42
REMARK                            x       y       z     vdW  Elec       q    Type
REMARK                         _______ _______ _______ _____ _____    ______ ____
ROOT
ATOM      1  O   UNL     1      -1.169   3.874  -1.800  0.00  0.00    +0.000 OA
ATOM      2  O   UNL     1      -3.194   6.611   2.284  0.00  0.00    +0.000 OA
ATOM      3  O   UNL     1       3.350   4.539  -2.739  0.00  0.00    +0.000 OA
ATOM      4  O   UNL     1       4.307   9.524  -1.157  0.00  0.00    +0.000 OA
ATOM      5  N   UNL     1       0.247   8.233  -1.158  0.00  0.00    +0.000 NA
ATOM      6  N   UNL     1      -2.323   7.796  -2.510  0.00  0.00    +0.000 NA
ATOM      7  C   UNL     1       0.064   7.199  -2.210  0.00  0.00    +0.000 C 
ATOM      8  C   UNL     1      -1.422   6.641  -2.233  0.00  0.00    +0.000 C 
ATOM      9  C   UNL     1      -2.240   8.750  -1.374  0.00  0.00    +0.000 C 
ATOM     10  C   UNL     1      -0.777   9.321  -1.266  0.00  0.00    +0.000 C 
ATOM     11  C   UNL     1       1.635   8.738  -0.965  0.00  0.00    +0.000 C 
ATOM     12  C   UNL     1       1.090   6.058  -2.042  0.00  0.00    +0.000 C 
ATOM     13  C   UNL     1      -2.682   8.103  -0.032  0.00  0.00    +0.000 C 
ATOM     14  C   UNL     1      -1.782   5.959  -0.920  0.00  0.00    +0.000 C 
ATOM     15  C   UNL     1      -2.339   6.640   0.093  0.00  0.00    +0.000 C 
ATOM     16  C   UNL     1       2.730   7.809  -1.464  0.00  0.00    +0.000 C 
ATOM     17  C   UNL     1       2.490   6.578  -1.933  0.00  0.00    +0.000 C 
ATOM     18  C   UNL     1      -3.685   7.405  -2.862  0.00  0.00    +0.000 C 
ATOM     19  C   UNL     1      -1.553   4.500  -0.817  0.00  0.00    +0.000 C 
ATOM     20  C   UNL     1      -2.677   5.977   1.370  0.00  0.00    +0.000 C 
ATOM     21  C   UNL     1       3.586   5.682  -2.362  0.00  0.00    +0.000 C 
ATOM     22  C   UNL     1       4.114   8.352  -1.461  0.00  0.00    +0.000 C 
ATOM     23  C   UNL     1      -1.805   3.840   0.506  0.00  0.00    +0.000 C 
ATOM     24  C   UNL     1      -2.353   4.535   1.516  0.00  0.00    +0.000 C 
ATOM     25  C   UNL     1       4.977   6.193  -2.289  0.00  0.00    +0.000 C 
ATOM     26  C   UNL     1       5.236   7.435  -1.849  0.00  0.00    +0.000 C 
ATOM     27  C   UNL     1      -2.690   3.944   2.854  0.00  0.00    +0.000 C 
ATOM     28  C   UNL     1       6.032   5.223  -2.735  0.00  0.00    +0.000 C 
ENDROOT
BRANCH  23  29
ATOM     29  O   UNL     1      -1.537   2.488   0.690  0.00  0.00    +0.000 OA
ATOM     30  C   UNL     1      -0.198   2.173   1.061  0.00  0.00    +0.000 C 
ENDBRANCH  23  29
BRANCH  26  31
ATOM     31  O   UNL     1       6.554   7.878  -1.821  0.00  0.00    +0.000 OA
ATOM     32  C   UNL     1       7.181   7.827  -0.541  0.00  0.00    +0.000 C 
ENDBRANCH  26  31
BRANCH  10  34
ATOM     33  N   UNL     1      -0.417  11.014  -3.277  0.00  0.00    +0.000 NA
ATOM     34  C   UNL     1      -0.553  10.270  -2.396  0.00  0.00    +0.000 C 
ENDBRANCH  10  34
BRANCH  11  35
ATOM     35  C   UNL     1       1.824   9.013   0.557  0.00  0.00    +0.000 C 
BRANCH  35  36
ATOM     36  O   UNL     1       1.117   8.007   1.312  0.00  0.00    +0.000 OA
BRANCH  36  38
ATOM     37  O   UNL     1       2.585   7.991   3.070  0.00  0.00    +0.000 OA
ATOM     38  C   UNL     1       1.841   7.417   2.292  0.00  0.00    +0.000 C 
BRANCH  38  39
ATOM     39  C   UNL     1       1.508   5.967   2.391  0.00  0.00    +0.000 C 
ATOM     40  C   UNL     1       2.119   5.141   1.294  0.00  0.00    +0.000 C 
ATOM     41  C   UNL     1       0.729   5.418   3.344  0.00  0.00    +0.000 C 
ATOM     42  C   UNL     1      -0.029   6.107   4.434  0.00  0.00    +0.000 C 
ENDBRANCH  38  39
ENDBRANCH  36  38
ENDBRANCH  35  36
ENDBRANCH  11  35
TORSDOF 7
ENDMDL
