MODEL 1
REMARK VINA RESULT:      -5.3      0.000      0.000
REMARK  Name = Resveratrol.pdbqt.pdb
REMARK  5 active torsions:
REMARK  status: ('A' for Active; 'I' for Inactive)
REMARK    1  A    between atoms: C_1  and  C_11
REMARK    2  A    between atoms: C_4  and  O_7
REMARK    3  A    between atoms: C_5  and  O_9
REMARK    4  A    between atoms: C_12  and  C_13
REMARK    5  A    between atoms: C_18  and  O_19
REMARK                            x       y       z     vdW  Elec       q    Type
REMARK                         _______ _______ _______ _____ _____    ______ ____
ROOT
ATOM      1  C   UNL     1     -22.549  13.680   8.680  0.00  0.00    +0.000 A 
ATOM      2  C   UNL     1     -23.229  13.974   7.499  0.00  0.00    +0.000 A 
ATOM      3  C   UNL     1     -22.287  12.355   9.028  0.00  0.00    +0.000 A 
ATOM      4  C   UNL     1     -22.708  11.330   8.185  0.00  0.00    +0.000 A 
ATOM      5  C   UNL     1     -23.642  12.935   6.671  0.00  0.00    +0.000 A 
ATOM      6  C   UNL     1     -23.387  11.608   7.003  0.00  0.00    +0.000 A 
ENDROOT
BRANCH   4   7
ATOM      7  O   UNL     1     -22.465  10.024   8.499  0.00  0.00    +0.000 OA
ATOM      8  H   UNL     1     -22.288   9.970   9.456  0.00  0.00    +0.000 HD
ENDBRANCH   4   7
BRANCH   5   9
ATOM      9  O   UNL     1     -24.306  13.247   5.519  0.00  0.00    +0.000 OA
ATOM     10  H   UNL     1     -24.665  14.146   5.614  0.00  0.00    +0.000 HD
ENDBRANCH   5   9
BRANCH   1  11
ATOM     11  C   UNL     1     -22.122  14.736   9.538  0.00  0.00    +0.000 C 
ATOM     12  C   UNL     1     -21.762  15.625  10.261  0.00  0.00    +0.000 C 
BRANCH  12  13
ATOM     13  C   UNL     1     -21.333  16.680  11.119  0.00  0.00    +0.000 A 
ATOM     14  C   UNL     1     -22.026  17.891  11.131  0.00  0.00    +0.000 A 
ATOM     15  C   UNL     1     -20.223  16.500  11.944  0.00  0.00    +0.000 A 
ATOM     16  C   UNL     1     -21.610  18.922  11.967  0.00  0.00    +0.000 A 
ATOM     17  C   UNL     1     -19.804  17.529  12.782  0.00  0.00    +0.000 A 
ATOM     18  C   UNL     1     -20.501  18.733  12.787  0.00  0.00    +0.000 A 
BRANCH  18  19
ATOM     19  O   UNL     1     -20.071  19.727  13.617  0.00  0.00    +0.000 OA
ATOM     20  H   UNL     1     -19.162  19.520  13.896  0.00  0.00    +0.000 HD
ENDBRANCH  18  19
ENDBRANCH  12  13
ENDBRANCH   1  11
TORSDOF 5
ENDMDL
MODEL 2
REMARK VINA RESULT:      -5.2     14.197     16.469
REMARK  Name = Resveratrol.pdbqt.pdb
REMARK  5 active torsions:
REMARK  status: ('A' for Active; 'I' for Inactive)
REMARK    1  A    between atoms: C_1  and  C_11
REMARK    2  A    between atoms: C_4  and  O_7
REMARK    3  A    between atoms: C_5  and  O_9
REMARK    4  A    between atoms: C_12  and  C_13
REMARK    5  A    between atoms: C_18  and  O_19
REMARK                            x       y       z     vdW  Elec       q    Type
REMARK                         _______ _______ _______ _____ _____    ______ ____
ROOT
ATOM      1  C   UNL     1     -17.875   5.082  21.830  0.00  0.00    +0.000 A 
ATOM      2  C   UNL     1     -18.404   5.541  23.036  0.00  0.00    +0.000 A 
ATOM      3  C   UNL     1     -16.538   4.695  21.753  0.00  0.00    +0.000 A 
ATOM      4  C   UNL     1     -15.736   4.769  22.890  0.00  0.00    +0.000 A 
ATOM      5  C   UNL     1     -17.586   5.608  24.160  0.00  0.00    +0.000 A 
ATOM      6  C   UNL     1     -16.251   5.225  24.099  0.00  0.00    +0.000 A 
ENDROOT
BRANCH   4   7
ATOM      7  O   UNL     1     -14.424   4.396  22.843  0.00  0.00    +0.000 OA
ATOM      8  H   UNL     1     -13.939   5.058  22.319  0.00  0.00    +0.000 HD
ENDBRANCH   4   7
BRANCH   5   9
ATOM      9  O   UNL     1     -18.126   6.060  25.330  0.00  0.00    +0.000 OA
ATOM     10  H   UNL     1     -18.071   7.032  25.330  0.00  0.00    +0.000 HD
ENDBRANCH   5   9
BRANCH   1  11
ATOM     11  C   UNL     1     -18.702   5.009  20.671  0.00  0.00    +0.000 C 
ATOM     12  C   UNL     1     -19.399   4.949  19.694  0.00  0.00    +0.000 C 
BRANCH  12  13
ATOM     13  C   UNL     1     -20.226   4.876  18.535  0.00  0.00    +0.000 A 
ATOM     14  C   UNL     1     -20.160   5.881  17.570  0.00  0.00    +0.000 A 
ATOM     15  C   UNL     1     -21.098   3.801  18.368  0.00  0.00    +0.000 A 
ATOM     16  C   UNL     1     -20.965   5.813  16.437  0.00  0.00    +0.000 A 
ATOM     17  C   UNL     1     -21.906   3.729  17.236  0.00  0.00    +0.000 A 
ATOM     18  C   UNL     1     -21.833   4.736  16.280  0.00  0.00    +0.000 A 
BRANCH  18  19
ATOM     19  O   UNL     1     -22.634   4.644  15.179  0.00  0.00    +0.000 OA
ATOM     20  H   UNL     1     -23.511   4.332  15.465  0.00  0.00    +0.000 HD
ENDBRANCH  18  19
ENDBRANCH  12  13
ENDBRANCH   1  11
TORSDOF 5
ENDMDL
MODEL 3
REMARK VINA RESULT:      -5.2     14.213     15.224
REMARK  Name = Resveratrol.pdbqt.pdb
REMARK  5 active torsions:
REMARK  status: ('A' for Active; 'I' for Inactive)
REMARK    1  A    between atoms: C_1  and  C_11
REMARK    2  A    between atoms: C_4  and  O_7
REMARK    3  A    between atoms: C_5  and  O_9
REMARK    4  A    between atoms: C_12  and  C_13
REMARK    5  A    between atoms: C_18  and  O_19
REMARK                            x       y       z     vdW  Elec       q    Type
REMARK                         _______ _______ _______ _____ _____    ______ ____
ROOT
ATOM      1  C   UNL     1     -11.265  18.495  19.181  0.00  0.00    +0.000 A 
ATOM      2  C   UNL     1     -10.567  19.576  18.643  0.00  0.00    +0.000 A 
ATOM      3  C   UNL     1     -10.825  17.192  18.952  0.00  0.00    +0.000 A 
ATOM      4  C   UNL     1      -9.684  16.980  18.182  0.00  0.00    +0.000 A 
ATOM      5  C   UNL     1      -9.430  19.342  17.876  0.00  0.00    +0.000 A 
ATOM      6  C   UNL     1      -8.978  18.048  17.640  0.00  0.00    +0.000 A 
ENDROOT
BRANCH   4   7
ATOM      7  O   UNL     1      -9.230  15.715  17.942  0.00  0.00    +0.000 OA
ATOM      8  H   UNL     1      -8.267  15.706  18.084  0.00  0.00    +0.000 HD
ENDBRANCH   4   7
BRANCH   5   9
ATOM      9  O   UNL     1      -8.763  20.416  17.360  0.00  0.00    +0.000 OA
ATOM     10  H   UNL     1      -7.861  20.128  17.132  0.00  0.00    +0.000 HD
ENDBRANCH   5   9
BRANCH   1  11
ATOM     11  C   UNL     1     -12.433  18.721  19.967  0.00  0.00    +0.000 C 
ATOM     12  C   UNL     1     -13.417  18.913  20.629  0.00  0.00    +0.000 C 
BRANCH  12  13
ATOM     13  C   UNL     1     -14.585  19.139  21.415  0.00  0.00    +0.000 A 
ATOM     14  C   UNL     1     -14.563  18.879  22.785  0.00  0.00    +0.000 A 
ATOM     15  C   UNL     1     -15.747  19.619  20.811  0.00  0.00    +0.000 A 
ATOM     16  C   UNL     1     -15.702  19.099  23.554  0.00  0.00    +0.000 A 
ATOM     17  C   UNL     1     -16.889  19.840  21.577  0.00  0.00    +0.000 A 
ATOM     18  C   UNL     1     -16.857  19.578  22.943  0.00  0.00    +0.000 A 
BRANCH  18  19
ATOM     19  O   UNL     1     -17.988  19.803  23.672  0.00  0.00    +0.000 OA
ATOM     20  H   UNL     1     -18.680  19.196  23.357  0.00  0.00    +0.000 HD
ENDBRANCH  18  19
ENDBRANCH  12  13
ENDBRANCH   1  11
TORSDOF 5
ENDMDL
MODEL 4
REMARK VINA RESULT:      -5.2      3.988      6.660
REMARK  Name = Resveratrol.pdbqt.pdb
REMARK  5 active torsions:
REMARK  status: ('A' for Active; 'I' for Inactive)
REMARK    1  A    between atoms: C_1  and  C_11
REMARK    2  A    between atoms: C_4  and  O_7
REMARK    3  A    between atoms: C_5  and  O_9
REMARK    4  A    between atoms: C_12  and  C_13
REMARK    5  A    between atoms: C_18  and  O_19
REMARK                            x       y       z     vdW  Elec       q    Type
REMARK                         _______ _______ _______ _____ _____    ______ ____
ROOT
ATOM      1  C   UNL     1     -24.385   8.641   5.652  0.00  0.00    +0.000 A 
ATOM      2  C   UNL     1     -24.188   7.474   6.389  0.00  0.00    +0.000 A 
ATOM      3  C   UNL     1     -24.939   8.578   4.373  0.00  0.00    +0.000 A 
ATOM      4  C   UNL     1     -25.294   7.341   3.841  0.00  0.00    +0.000 A 
ATOM      5  C   UNL     1     -24.548   6.249   5.839  0.00  0.00    +0.000 A 
ATOM      6  C   UNL     1     -25.103   6.169   4.566  0.00  0.00    +0.000 A 
ENDROOT
BRANCH   4   7
ATOM      7  O   UNL     1     -25.838   7.249   2.593  0.00  0.00    +0.000 OA
ATOM      8  H   UNL     1     -25.718   6.336   2.276  0.00  0.00    +0.000 HD
ENDBRANCH   4   7
BRANCH   5   9
ATOM      9  O   UNL     1     -24.346   5.120   6.580  0.00  0.00    +0.000 OA
ATOM     10  H   UNL     1     -24.511   4.350   6.006  0.00  0.00    +0.000 HD
ENDBRANCH   5   9
BRANCH   1  11
ATOM     11  C   UNL     1     -24.019   9.904   6.204  0.00  0.00    +0.000 C 
ATOM     12  C   UNL     1     -23.710  10.968   6.669  0.00  0.00    +0.000 C 
BRANCH  12  13
ATOM     13  C   UNL     1     -23.345  12.231   7.221  0.00  0.00    +0.000 A 
ATOM     14  C   UNL     1     -22.539  12.285   8.358  0.00  0.00    +0.000 A 
ATOM     15  C   UNL     1     -23.794  13.408   6.622  0.00  0.00    +0.000 A 
ATOM     16  C   UNL     1     -22.181  13.517   8.898  0.00  0.00    +0.000 A 
ATOM     17  C   UNL     1     -23.438  14.642   7.160  0.00  0.00    +0.000 A 
ATOM     18  C   UNL     1     -22.634  14.686   8.295  0.00  0.00    +0.000 A 
BRANCH  18  19
ATOM     19  O   UNL     1     -22.299  15.907   8.803  0.00  0.00    +0.000 OA
ATOM     20  H   UNL     1     -22.271  15.837   9.773  0.00  0.00    +0.000 HD
ENDBRANCH  18  19
ENDBRANCH  12  13
ENDBRANCH   1  11
TORSDOF 5
ENDMDL
MODEL 5
REMARK VINA RESULT:      -5.2     13.898     15.522
REMARK  Name = Resveratrol.pdbqt.pdb
REMARK  5 active torsions:
REMARK  status: ('A' for Active; 'I' for Inactive)
REMARK    1  A    between atoms: C_1  and  C_11
REMARK    2  A    between atoms: C_4  and  O_7
REMARK    3  A    between atoms: C_5  and  O_9
REMARK    4  A    between atoms: C_12  and  C_13
REMARK    5  A    between atoms: C_18  and  O_19
REMARK                            x       y       z     vdW  Elec       q    Type
REMARK                         _______ _______ _______ _____ _____    ______ ____
ROOT
ATOM      1  C   UNL     1     -14.695  18.931  21.618  0.00  0.00    +0.000 A 
ATOM      2  C   UNL     1     -15.927  19.201  21.024  0.00  0.00    +0.000 A 
ATOM      3  C   UNL     1     -14.607  18.748  22.998  0.00  0.00    +0.000 A 
ATOM      4  C   UNL     1     -15.759  18.838  23.776  0.00  0.00    +0.000 A 
ATOM      5  C   UNL     1     -17.066  19.287  21.819  0.00  0.00    +0.000 A 
ATOM      6  C   UNL     1     -16.994  19.106  23.196  0.00  0.00    +0.000 A 
ENDROOT
BRANCH   4   7
ATOM      7  O   UNL     1     -15.702  18.663  25.128  0.00  0.00    +0.000 OA
ATOM      8  H   UNL     1     -15.597  17.712  25.307  0.00  0.00    +0.000 HD
ENDBRANCH   4   7
BRANCH   5   9
ATOM      9  O   UNL     1     -18.261  19.552  21.214  0.00  0.00    +0.000 OA
ATOM     10  H   UNL     1     -18.801  20.075  21.834  0.00  0.00    +0.000 HD
ENDBRANCH   5   9
BRANCH   1  11
ATOM     11  C   UNL     1     -13.521  18.841  20.815  0.00  0.00    +0.000 C 
ATOM     12  C   UNL     1     -12.531  18.765  20.137  0.00  0.00    +0.000 C 
BRANCH  12  13
ATOM     13  C   UNL     1     -11.357  18.675  19.333  0.00  0.00    +0.000 A 
ATOM     14  C   UNL     1     -10.832  19.823  18.740  0.00  0.00    +0.000 A 
ATOM     15  C   UNL     1     -10.738  17.441  19.141  0.00  0.00    +0.000 A 
ATOM     16  C   UNL     1      -9.686  19.738  17.954  0.00  0.00    +0.000 A 
ATOM     17  C   UNL     1      -9.592  17.352  18.356  0.00  0.00    +0.000 A 
ATOM     18  C   UNL     1      -9.075  18.502  17.768  0.00  0.00    +0.000 A 
BRANCH  18  19
ATOM     19  O   UNL     1      -7.951  18.389  17.003  0.00  0.00    +0.000 OA
ATOM     20  H   UNL     1      -7.365  19.139  17.209  0.00  0.00    +0.000 HD
ENDBRANCH  18  19
ENDBRANCH  12  13
ENDBRANCH   1  11
TORSDOF 5
ENDMDL
MODEL 6
REMARK VINA RESULT:      -5.1     16.398     17.780
REMARK  Name = Resveratrol.pdbqt.pdb
REMARK  5 active torsions:
REMARK  status: ('A' for Active; 'I' for Inactive)
REMARK    1  A    between atoms: C_1  and  C_11
REMARK    2  A    between atoms: C_4  and  O_7
REMARK    3  A    between atoms: C_5  and  O_9
REMARK    4  A    between atoms: C_12  and  C_13
REMARK    5  A    between atoms: C_18  and  O_19
REMARK                            x       y       z     vdW  Elec       q    Type
REMARK                         _______ _______ _______ _____ _____    ______ ____
ROOT
ATOM      1  C   UNL     1      -6.142  13.808  15.123  0.00  0.00    +0.000 A 
ATOM      2  C   UNL     1      -5.464  12.664  15.542  0.00  0.00    +0.000 A 
ATOM      3  C   UNL     1      -7.165  14.344  15.904  0.00  0.00    +0.000 A 
ATOM      4  C   UNL     1      -7.503  13.728  17.106  0.00  0.00    +0.000 A 
ATOM      5  C   UNL     1      -5.818  12.063  16.746  0.00  0.00    +0.000 A 
ATOM      6  C   UNL     1      -6.836  12.586  17.537  0.00  0.00    +0.000 A 
ENDROOT
BRANCH   4   7
ATOM      7  O   UNL     1      -8.499  14.230  17.891  0.00  0.00    +0.000 OA
ATOM      8  H   UNL     1      -8.413  15.200  17.907  0.00  0.00    +0.000 HD
ENDBRANCH   4   7
BRANCH   5   9
ATOM      9  O   UNL     1      -5.141  10.943  17.136  0.00  0.00    +0.000 OA
ATOM     10  H   UNL     1      -5.608  10.561  17.900  0.00  0.00    +0.000 HD
ENDBRANCH   5   9
BRANCH   1  11
ATOM     11  C   UNL     1      -5.789  14.433  13.890  0.00  0.00    +0.000 C 
ATOM     12  C   UNL     1      -5.493  14.960  12.852  0.00  0.00    +0.000 C 
BRANCH  12  13
ATOM     13  C   UNL     1      -5.140  15.586  11.620  0.00  0.00    +0.000 A 
ATOM     14  C   UNL     1      -3.879  15.369  11.067  0.00  0.00    +0.000 A 
ATOM     15  C   UNL     1      -6.057  16.414  10.972  0.00  0.00    +0.000 A 
ATOM     16  C   UNL     1      -3.532  15.978   9.864  0.00  0.00    +0.000 A 
ATOM     17  C   UNL     1      -5.714  17.025   9.770  0.00  0.00    +0.000 A 
ATOM     18  C   UNL     1      -4.453  16.803   9.225  0.00  0.00    +0.000 A 
BRANCH  18  19
ATOM     19  O   UNL     1      -4.140  17.413   8.045  0.00  0.00    +0.000 OA
ATOM     20  H   UNL     1      -4.749  17.085   7.361  0.00  0.00    +0.000 HD
ENDBRANCH  18  19
ENDBRANCH  12  13
ENDBRANCH   1  11
TORSDOF 5
ENDMDL
MODEL 7
REMARK VINA RESULT:      -4.6      2.678      8.002
REMARK  Name = Resveratrol.pdbqt.pdb
REMARK  5 active torsions:
REMARK  status: ('A' for Active; 'I' for Inactive)
REMARK    1  A    between atoms: C_1  and  C_11
REMARK    2  A    between atoms: C_4  and  O_7
REMARK    3  A    between atoms: C_5  and  O_9
REMARK    4  A    between atoms: C_12  and  C_13
REMARK    5  A    between atoms: C_18  and  O_19
REMARK                            x       y       z     vdW  Elec       q    Type
REMARK                         _______ _______ _______ _____ _____    ______ ____
ROOT
ATOM      1  C   UNL     1     -22.504  15.037   8.534  0.00  0.00    +0.000 A 
ATOM      2  C   UNL     1     -22.563  16.241   7.834  0.00  0.00    +0.000 A 
ATOM      3  C   UNL     1     -22.051  15.013   9.853  0.00  0.00    +0.000 A 
ATOM      4  C   UNL     1     -21.659  16.201  10.464  0.00  0.00    +0.000 A 
ATOM      5  C   UNL     1     -22.166  17.417   8.463  0.00  0.00    +0.000 A 
ATOM      6  C   UNL     1     -21.713  17.410   9.778  0.00  0.00    +0.000 A 
ENDROOT
BRANCH   4   7
ATOM      7  O   UNL     1     -21.213  16.208  11.753  0.00  0.00    +0.000 OA
ATOM      8  H   UNL     1     -21.977  16.352  12.339  0.00  0.00    +0.000 HD
ENDBRANCH   4   7
BRANCH   5   9
ATOM      9  O   UNL     1     -22.233  18.585   7.758  0.00  0.00    +0.000 OA
ATOM     10  H   UNL     1     -23.173  18.812   7.641  0.00  0.00    +0.000 HD
ENDBRANCH   5   9
BRANCH   1  11
ATOM     11  C   UNL     1     -22.906  13.824   7.900  0.00  0.00    +0.000 C 
ATOM     12  C   UNL     1     -23.245  12.802   7.367  0.00  0.00    +0.000 C 
BRANCH  12  13
ATOM     13  C   UNL     1     -23.649  11.590   6.734  0.00  0.00    +0.000 A 
ATOM     14  C   UNL     1     -23.218  10.365   7.241  0.00  0.00    +0.000 A 
ATOM     15  C   UNL     1     -24.472  11.633   5.609  0.00  0.00    +0.000 A 
ATOM     16  C   UNL     1     -23.611   9.180   6.625  0.00  0.00    +0.000 A 
ATOM     17  C   UNL     1     -24.867  10.451   4.989  0.00  0.00    +0.000 A 
ATOM     18  C   UNL     1     -24.432   9.233   5.502  0.00  0.00    +0.000 A 
BRANCH  18  19
ATOM     19  O   UNL     1     -24.832   8.087   4.878  0.00  0.00    +0.000 OA
ATOM     20  H   UNL     1     -24.100   7.773   4.320  0.00  0.00    +0.000 HD
ENDBRANCH  18  19
ENDBRANCH  12  13
ENDBRANCH   1  11
TORSDOF 5
ENDMDL
MODEL 8
REMARK VINA RESULT:      -4.6     14.447     15.888
REMARK  Name = Resveratrol.pdbqt.pdb
REMARK  5 active torsions:
REMARK  status: ('A' for Active; 'I' for Inactive)
REMARK    1  A    between atoms: C_1  and  C_11
REMARK    2  A    between atoms: C_4  and  O_7
REMARK    3  A    between atoms: C_5  and  O_9
REMARK    4  A    between atoms: C_12  and  C_13
REMARK    5  A    between atoms: C_18  and  O_19
REMARK                            x       y       z     vdW  Elec       q    Type
REMARK                         _______ _______ _______ _____ _____    ______ ____
ROOT
ATOM      1  C   UNL     1     -10.764  17.488  20.383  0.00  0.00    +0.000 A 
ATOM      2  C   UNL     1     -10.589  17.382  19.004  0.00  0.00    +0.000 A 
ATOM      3  C   UNL     1      -9.724  17.153  21.250  0.00  0.00    +0.000 A 
ATOM      4  C   UNL     1      -8.511  16.713  20.727  0.00  0.00    +0.000 A 
ATOM      5  C   UNL     1      -9.369  16.940  18.502  0.00  0.00    +0.000 A 
ATOM      6  C   UNL     1      -8.322  16.603  19.354  0.00  0.00    +0.000 A 
ENDROOT
BRANCH   4   7
ATOM      7  O   UNL     1      -7.476  16.379  21.552  0.00  0.00    +0.000 OA
ATOM      8  H   UNL     1      -7.683  15.524  21.968  0.00  0.00    +0.000 HD
ENDBRANCH   4   7
BRANCH   5   9
ATOM      9  O   UNL     1      -9.220  16.845  17.148  0.00  0.00    +0.000 OA
ATOM     10  H   UNL     1     -10.096  16.970  16.740  0.00  0.00    +0.000 HD
ENDBRANCH   5   9
BRANCH   1  11
ATOM     11  C   UNL     1     -12.010  17.939  20.910  0.00  0.00    +0.000 C 
ATOM     12  C   UNL     1     -13.060  18.319  21.354  0.00  0.00    +0.000 C 
BRANCH  12  13
ATOM     13  C   UNL     1     -14.306  18.769  21.881  0.00  0.00    +0.000 A 
ATOM     14  C   UNL     1     -15.227  19.399  21.045  0.00  0.00    +0.000 A 
ATOM     15  C   UNL     1     -14.600  18.578  23.231  0.00  0.00    +0.000 A 
ATOM     16  C   UNL     1     -16.444  19.839  21.557  0.00  0.00    +0.000 A 
ATOM     17  C   UNL     1     -15.816  19.017  23.747  0.00  0.00    +0.000 A 
ATOM     18  C   UNL     1     -16.729  19.645  22.905  0.00  0.00    +0.000 A 
BRANCH  18  19
ATOM     19  O   UNL     1     -17.914  20.066  23.434  0.00  0.00    +0.000 OA
ATOM     20  H   UNL     1     -17.739  20.838  23.999  0.00  0.00    +0.000 HD
ENDBRANCH  18  19
ENDBRANCH  12  13
ENDBRANCH   1  11
TORSDOF 5
ENDMDL
MODEL 9
REMARK VINA RESULT:      -4.5     14.517     17.226
REMARK  Name = Resveratrol.pdbqt.pdb
REMARK  5 active torsions:
REMARK  status: ('A' for Active; 'I' for Inactive)
REMARK    1  A    between atoms: C_1  and  C_11
REMARK    2  A    between atoms: C_4  and  O_7
REMARK    3  A    between atoms: C_5  and  O_9
REMARK    4  A    between atoms: C_12  and  C_13
REMARK    5  A    between atoms: C_18  and  O_19
REMARK                            x       y       z     vdW  Elec       q    Type
REMARK                         _______ _______ _______ _____ _____    ______ ____
ROOT
ATOM      1  C   UNL     1     -13.328   4.293  -2.507  0.00  0.00    +0.000 A 
ATOM      2  C   UNL     1     -12.540   4.373  -3.653  0.00  0.00    +0.000 A 
ATOM      3  C   UNL     1     -13.348   3.122  -1.749  0.00  0.00    +0.000 A 
ATOM      4  C   UNL     1     -12.574   2.036  -2.147  0.00  0.00    +0.000 A 
ATOM      5  C   UNL     1     -11.774   3.276  -4.034  0.00  0.00    +0.000 A 
ATOM      6  C   UNL     1     -11.782   2.102  -3.289  0.00  0.00    +0.000 A 
ENDROOT
BRANCH   4   7
ATOM      7  O   UNL     1     -12.574   0.878  -1.425  0.00  0.00    +0.000 OA
ATOM      8  H   UNL     1     -11.739   0.832  -0.926  0.00  0.00    +0.000 HD
ENDBRANCH   4   7
BRANCH   5   9
ATOM      9  O   UNL     1     -11.009   3.378  -5.161  0.00  0.00    +0.000 OA
ATOM     10  H   UNL     1     -10.159   3.781  -4.911  0.00  0.00    +0.000 HD
ENDBRANCH   5   9
BRANCH   1  11
ATOM     11  C   UNL     1     -14.119   5.410  -2.106  0.00  0.00    +0.000 C 
ATOM     12  C   UNL     1     -14.784   6.352  -1.768  0.00  0.00    +0.000 C 
BRANCH  12  13
ATOM     13  C   UNL     1     -15.574   7.469  -1.367  0.00  0.00    +0.000 A 
ATOM     14  C   UNL     1     -15.204   8.757  -1.755  0.00  0.00    +0.000 A 
ATOM     15  C   UNL     1     -16.714   7.272  -0.587  0.00  0.00    +0.000 A 
ATOM     16  C   UNL     1     -15.973   9.849  -1.365  0.00  0.00    +0.000 A 
ATOM     17  C   UNL     1     -17.486   8.363  -0.195  0.00  0.00    +0.000 A 
ATOM     18  C   UNL     1     -17.109   9.643  -0.587  0.00  0.00    +0.000 A 
BRANCH  18  19
ATOM     19  O   UNL     1     -17.881  10.696  -0.190  0.00  0.00    +0.000 OA
ATOM     20  H   UNL     1     -18.815  10.447  -0.299  0.00  0.00    +0.000 HD
ENDBRANCH  18  19
ENDBRANCH  12  13
ENDBRANCH   1  11
TORSDOF 5
ENDMDL
