MODEL 1
REMARK VINA RESULT:      -5.5      0.000      0.000
REMARK  Name = RetinoicAcid.pdbqt.pdb
REMARK  6 active torsions:
REMARK  status: ('A' for Active; 'I' for Inactive)
REMARK    1  A    between atoms: C_1  and  C_3
REMARK    2  A    between atoms: C_1  and  C_5
REMARK    3  A    between atoms: C_3  and  C_15
REMARK    4  A    between atoms: C_4  and  C_9
REMARK    5  A    between atoms: C_16  and  C_17
REMARK    6  A    between atoms: C_21  and  O_22
REMARK                            x       y       z     vdW  Elec       q    Type
REMARK                         _______ _______ _______ _____ _____    ______ ____
ROOT
ATOM      1  C   UNL     1     -14.589   6.460  -4.414  0.00  0.00    +0.000 C 
ATOM      2  C   UNL     1     -15.503   6.314  -5.592  0.00  0.00    +0.000 C 
ENDROOT
BRANCH   1   4
ATOM      3  C   UNL     1     -12.725   4.673  -3.981  0.00  0.00    +0.000 C 
ATOM      4  C   UNL     1     -13.580   5.496  -4.174  0.00  0.00    +0.000 C 
BRANCH   3   8
ATOM      5  C   UNL     1     -12.069   2.326  -3.068  0.00  0.00    +0.000 C 
ATOM      6  C   UNL     1     -10.840   1.505  -2.970  0.00  0.00    +0.000 C 
ATOM      7  C   UNL     1      -9.361   1.533  -3.305  0.00  0.00    +0.000 C 
ATOM      8  C   UNL     1     -11.698   3.683  -3.756  0.00  0.00    +0.000 C 
ATOM      9  C   UNL     1      -9.441   2.919  -3.907  0.00  0.00    +0.000 C 
ATOM     10  C   UNL     1     -10.422   3.923  -4.143  0.00  0.00    +0.000 C 
ATOM     11  C   UNL     1     -12.626   2.615  -1.647  0.00  0.00    +0.000 C 
ATOM     12  C   UNL     1     -13.124   1.595  -3.946  0.00  0.00    +0.000 C 
ATOM     13  C   UNL     1      -9.963   5.184  -4.822  0.00  0.00    +0.000 C 
ENDBRANCH   3   8
ENDBRANCH   1   4
BRANCH   1  14
ATOM     14  C   UNL     1     -14.754   7.444  -3.586  0.00  0.00    +0.000 C 
BRANCH  14  15
ATOM     15  C   UNL     1     -14.951   8.610  -2.609  0.00  0.00    +0.000 C 
ATOM     16  C   UNL     1     -15.107   9.522  -1.844  0.00  0.00    +0.000 C 
BRANCH  16  17
ATOM     17  C   UNL     1     -15.294  10.594  -0.939  0.00  0.00    +0.000 C 
ATOM     18  C   UNL     1     -16.232  10.437   0.218  0.00  0.00    +0.000 C 
ATOM     19  C   UNL     1     -14.683  11.715  -1.128  0.00  0.00    +0.000 C 
ATOM     20  O   UNL     1     -12.843  13.127  -0.996  0.00  0.00    +0.000 OA
ATOM     21  C   UNL     1     -13.995  12.939  -1.341  0.00  0.00    +0.000 C 
BRANCH  21  22
ATOM     22  O   UNL     1     -14.721  13.871  -1.979  0.00  0.00    +0.000 OA
ATOM     23  H   UNL     1     -14.965  14.508  -1.276  0.00  0.00    +0.000 HD
ENDBRANCH  21  22
ENDBRANCH  16  17
ENDBRANCH  14  15
ENDBRANCH   1  14
TORSDOF 6
ENDMDL
MODEL 2
REMARK VINA RESULT:      -5.1     17.282     21.810
REMARK  Name = RetinoicAcid.pdbqt.pdb
REMARK  6 active torsions:
REMARK  status: ('A' for Active; 'I' for Inactive)
REMARK    1  A    between atoms: C_1  and  C_3
REMARK    2  A    between atoms: C_1  and  C_5
REMARK    3  A    between atoms: C_3  and  C_15
REMARK    4  A    between atoms: C_4  and  C_9
REMARK    5  A    between atoms: C_16  and  C_17
REMARK    6  A    between atoms: C_21  and  O_22
REMARK                            x       y       z     vdW  Elec       q    Type
REMARK                         _______ _______ _______ _____ _____    ______ ____
ROOT
ATOM      1  C   UNL     1     -25.673  17.758  11.984  0.00  0.00    +0.000 C 
ATOM      2  C   UNL     1     -27.132  18.037  11.791  0.00  0.00    +0.000 C 
ENDROOT
BRANCH   1   4
ATOM      3  C   UNL     1     -24.496  15.909  10.550  0.00  0.00    +0.000 C 
ATOM      4  C   UNL     1     -25.032  16.762  11.207  0.00  0.00    +0.000 C 
BRANCH   3   8
ATOM      5  C   UNL     1     -24.736  13.800   9.045  0.00  0.00    +0.000 C 
ATOM      6  C   UNL     1     -23.833  12.885   8.308  0.00  0.00    +0.000 C 
ATOM      7  C   UNL     1     -22.365  12.643   8.016  0.00  0.00    +0.000 C 
ATOM      8  C   UNL     1     -23.859  14.882   9.761  0.00  0.00    +0.000 C 
ATOM      9  C   UNL     1     -21.921  13.830   8.842  0.00  0.00    +0.000 C 
ATOM     10  C   UNL     1     -22.509  14.858   9.634  0.00  0.00    +0.000 C 
ATOM     11  C   UNL     1     -25.533  13.006  10.116  0.00  0.00    +0.000 C 
ATOM     12  C   UNL     1     -25.693  14.514   8.049  0.00  0.00    +0.000 C 
ATOM     13  C   UNL     1     -21.578  15.854  10.267  0.00  0.00    +0.000 C 
ENDBRANCH   3   8
ENDBRANCH   1   4
BRANCH   1  14
ATOM     14  C   UNL     1     -25.008  18.396  12.895  0.00  0.00    +0.000 C 
BRANCH  14  15
ATOM     15  C   UNL     1     -24.222  19.150  13.976  0.00  0.00    +0.000 C 
ATOM     16  C   UNL     1     -23.606  19.741  14.820  0.00  0.00    +0.000 C 
BRANCH  16  17
ATOM     17  C   UNL     1     -22.881  20.443  15.812  0.00  0.00    +0.000 C 
ATOM     18  C   UNL     1     -21.569  21.079  15.466  0.00  0.00    +0.000 C 
ATOM     19  C   UNL     1     -23.333  20.507  17.020  0.00  0.00    +0.000 C 
ATOM     20  O   UNL     1     -24.689  21.389  18.687  0.00  0.00    +0.000 OA
ATOM     21  C   UNL     1     -23.846  20.581  18.342  0.00  0.00    +0.000 C 
BRANCH  21  22
ATOM     22  O   UNL     1     -23.336  19.663  19.179  0.00  0.00    +0.000 OA
ATOM     23  H   UNL     1     -22.378  19.660  18.975  0.00  0.00    +0.000 HD
ENDBRANCH  21  22
ENDBRANCH  16  17
ENDBRANCH  14  15
ENDBRANCH   1  14
TORSDOF 6
ENDMDL
MODEL 3
REMARK VINA RESULT:      -4.9     19.397     21.270
REMARK  Name = RetinoicAcid.pdbqt.pdb
REMARK  6 active torsions:
REMARK  status: ('A' for Active; 'I' for Inactive)
REMARK    1  A    between atoms: C_1  and  C_3
REMARK    2  A    between atoms: C_1  and  C_5
REMARK    3  A    between atoms: C_3  and  C_15
REMARK    4  A    between atoms: C_4  and  C_9
REMARK    5  A    between atoms: C_16  and  C_17
REMARK    6  A    between atoms: C_21  and  O_22
REMARK                            x       y       z     vdW  Elec       q    Type
REMARK                         _______ _______ _______ _____ _____    ______ ____
ROOT
ATOM      1  C   UNL     1      -6.147   8.075  16.941  0.00  0.00    +0.000 C 
ATOM      2  C   UNL     1      -4.838   7.401  16.665  0.00  0.00    +0.000 C 
ENDROOT
BRANCH   1   4
ATOM      3  C   UNL     1      -8.195   6.683  17.793  0.00  0.00    +0.000 C 
ATOM      4  C   UNL     1      -7.253   7.318  17.399  0.00  0.00    +0.000 C 
BRANCH   3   8
ATOM      5  C   UNL     1      -9.785   4.646  17.496  0.00  0.00    +0.000 C 
ATOM      6  C   UNL     1     -10.955   4.070  18.200  0.00  0.00    +0.000 C 
ATOM      7  C   UNL     1     -11.850   4.300  19.402  0.00  0.00    +0.000 C 
ATOM      8  C   UNL     1      -9.329   5.928  18.270  0.00  0.00    +0.000 C 
ATOM      9  C   UNL     1     -11.102   5.546  19.824  0.00  0.00    +0.000 C 
ATOM     10  C   UNL     1      -9.992   6.322  19.385  0.00  0.00    +0.000 C 
ATOM     11  C   UNL     1     -10.184   5.044  16.049  0.00  0.00    +0.000 C 
ATOM     12  C   UNL     1      -8.614   3.622  17.493  0.00  0.00    +0.000 C 
ATOM     13  C   UNL     1      -9.629   7.527  20.208  0.00  0.00    +0.000 C 
ENDBRANCH   3   8
ENDBRANCH   1   4
BRANCH   1  14
ATOM     14  C   UNL     1      -6.280   9.345  16.716  0.00  0.00    +0.000 C 
BRANCH  14  15
ATOM     15  C   UNL     1      -6.440  10.847  16.450  0.00  0.00    +0.000 C 
ATOM     16  C   UNL     1      -6.566  12.022  16.241  0.00  0.00    +0.000 C 
BRANCH  16  17
ATOM     17  C   UNL     1      -6.720  13.408  15.995  0.00  0.00    +0.000 C 
ATOM     18  C   UNL     1      -7.660  14.214  16.838  0.00  0.00    +0.000 C 
ATOM     19  C   UNL     1      -6.078  13.968  15.025  0.00  0.00    +0.000 C 
ATOM     20  O   UNL     1      -4.198  14.937  14.064  0.00  0.00    +0.000 OA
ATOM     21  C   UNL     1      -5.356  14.575  13.964  0.00  0.00    +0.000 C 
BRANCH  21  22
ATOM     22  O   UNL     1      -6.058  14.697  12.825  0.00  0.00    +0.000 OA
ATOM     23  H   UNL     1      -5.663  14.028  12.228  0.00  0.00    +0.000 HD
ENDBRANCH  21  22
ENDBRANCH  16  17
ENDBRANCH  14  15
ENDBRANCH   1  14
TORSDOF 6
ENDMDL
MODEL 4
REMARK VINA RESULT:      -4.9      2.056      2.449
REMARK  Name = RetinoicAcid.pdbqt.pdb
REMARK  6 active torsions:
REMARK  status: ('A' for Active; 'I' for Inactive)
REMARK    1  A    between atoms: C_1  and  C_3
REMARK    2  A    between atoms: C_1  and  C_5
REMARK    3  A    between atoms: C_3  and  C_15
REMARK    4  A    between atoms: C_4  and  C_9
REMARK    5  A    between atoms: C_16  and  C_17
REMARK    6  A    between atoms: C_21  and  O_22
REMARK                            x       y       z     vdW  Elec       q    Type
REMARK                         _______ _______ _______ _____ _____    ______ ____
ROOT
ATOM      1  C   UNL     1     -14.593   7.123  -4.999  0.00  0.00    +0.000 C 
ATOM      2  C   UNL     1     -14.678   7.606  -6.414  0.00  0.00    +0.000 C 
ENDROOT
BRANCH   1   4
ATOM      3  C   UNL     1     -14.296   4.570  -4.494  0.00  0.00    +0.000 C 
ATOM      4  C   UNL     1     -14.428   5.742  -4.730  0.00  0.00    +0.000 C 
BRANCH   3   8
ATOM      5  C   UNL     1     -14.160   2.668  -2.725  0.00  0.00    +0.000 C 
ATOM      6  C   UNL     1     -13.995   1.195  -2.726  0.00  0.00    +0.000 C 
ATOM      7  C   UNL     1     -13.817   0.019  -3.666  0.00  0.00    +0.000 C 
ATOM      8  C   UNL     1     -14.146   3.163  -4.210  0.00  0.00    +0.000 C 
ATOM      9  C   UNL     1     -13.858   0.894  -4.900  0.00  0.00    +0.000 C 
ATOM     10  C   UNL     1     -13.999   2.274  -5.223  0.00  0.00    +0.000 C 
ATOM     11  C   UNL     1     -12.982   3.330  -1.960  0.00  0.00    +0.000 C 
ATOM     12  C   UNL     1     -15.527   3.045  -2.087  0.00  0.00    +0.000 C 
ATOM     13  C   UNL     1     -13.985   2.641  -6.681  0.00  0.00    +0.000 C 
ENDBRANCH   3   8
ENDBRANCH   1   4
BRANCH   1  14
ATOM     14  C   UNL     1     -14.720   7.963  -4.020  0.00  0.00    +0.000 C 
BRANCH  14  15
ATOM     15  C   UNL     1     -14.871   8.959  -2.863  0.00  0.00    +0.000 C 
ATOM     16  C   UNL     1     -14.987   9.738  -1.957  0.00  0.00    +0.000 C 
BRANCH  16  17
ATOM     17  C   UNL     1     -15.120  10.659  -0.891  0.00  0.00    +0.000 C 
ATOM     18  C   UNL     1     -15.926  10.289   0.317  0.00  0.00    +0.000 C 
ATOM     19  C   UNL     1     -14.575  11.826  -0.973  0.00  0.00    +0.000 C 
ATOM     20  O   UNL     1     -12.787  13.300  -0.814  0.00  0.00    +0.000 OA
ATOM     21  C   UNL     1     -13.960  13.103  -1.069  0.00  0.00    +0.000 C 
BRANCH  21  22
ATOM     22  O   UNL     1     -14.785  14.076  -1.489  0.00  0.00    +0.000 OA
ATOM     23  H   UNL     1     -14.201  14.856  -1.594  0.00  0.00    +0.000 HD
ENDBRANCH  21  22
ENDBRANCH  16  17
ENDBRANCH  14  15
ENDBRANCH   1  14
TORSDOF 6
ENDMDL
MODEL 5
REMARK VINA RESULT:      -4.9     20.240     22.471
REMARK  Name = RetinoicAcid.pdbqt.pdb
REMARK  6 active torsions:
REMARK  status: ('A' for Active; 'I' for Inactive)
REMARK    1  A    between atoms: C_1  and  C_3
REMARK    2  A    between atoms: C_1  and  C_5
REMARK    3  A    between atoms: C_3  and  C_15
REMARK    4  A    between atoms: C_4  and  C_9
REMARK    5  A    between atoms: C_16  and  C_17
REMARK    6  A    between atoms: C_21  and  O_22
REMARK                            x       y       z     vdW  Elec       q    Type
REMARK                         _______ _______ _______ _____ _____    ______ ____
ROOT
ATOM      1  C   UNL     1      -8.014   9.222  20.785  0.00  0.00    +0.000 C 
ATOM      2  C   UNL     1      -7.631   8.698  22.135  0.00  0.00    +0.000 C 
ENDROOT
BRANCH   1   4
ATOM      3  C   UNL     1      -8.945   7.582  18.967  0.00  0.00    +0.000 C 
ATOM      4  C   UNL     1      -8.515   8.338  19.798  0.00  0.00    +0.000 C 
BRANCH   3   8
ATOM      5  C   UNL     1      -8.794   6.600  16.563  0.00  0.00    +0.000 C 
ATOM      6  C   UNL     1      -9.517   5.588  15.757  0.00  0.00    +0.000 C 
ATOM      7  C   UNL     1     -10.674   4.611  15.835  0.00  0.00    +0.000 C 
ATOM      8  C   UNL     1      -9.465   6.671  17.975  0.00  0.00    +0.000 C 
ATOM      9  C   UNL     1     -11.003   4.989  17.262  0.00  0.00    +0.000 C 
ATOM     10  C   UNL     1     -10.524   5.877  18.267  0.00  0.00    +0.000 C 
ATOM     11  C   UNL     1      -8.900   7.991  15.882  0.00  0.00    +0.000 C 
ATOM     12  C   UNL     1      -7.309   6.172  16.738  0.00  0.00    +0.000 C 
ATOM     13  C   UNL     1     -11.232   5.857  19.594  0.00  0.00    +0.000 C 
ENDBRANCH   3   8
ENDBRANCH   1   4
BRANCH   1  14
ATOM     14  C   UNL     1      -7.842  10.475  20.505  0.00  0.00    +0.000 C 
BRANCH  14  15
ATOM     15  C   UNL     1      -7.640  11.960  20.175  0.00  0.00    +0.000 C 
ATOM     16  C   UNL     1      -7.481  13.121  19.915  0.00  0.00    +0.000 C 
BRANCH  16  17
ATOM     17  C   UNL     1      -7.298  14.490  19.604  0.00  0.00    +0.000 C 
ATOM     18  C   UNL     1      -6.368  15.323  20.432  0.00  0.00    +0.000 C 
ATOM     19  C   UNL     1      -7.954  15.026  18.631  0.00  0.00    +0.000 C 
ATOM     20  O   UNL     1      -8.321  15.508  16.388  0.00  0.00    +0.000 OA
ATOM     21  C   UNL     1      -8.673  15.601  17.549  0.00  0.00    +0.000 C 
BRANCH  21  22
ATOM     22  O   UNL     1      -9.794  16.242  17.918  0.00  0.00    +0.000 OA
ATOM     23  H   UNL     1      -9.973  15.911  18.822  0.00  0.00    +0.000 HD
ENDBRANCH  21  22
ENDBRANCH  16  17
ENDBRANCH  14  15
ENDBRANCH   1  14
TORSDOF 6
ENDMDL
MODEL 6
REMARK VINA RESULT:      -4.8      2.476      2.981
REMARK  Name = RetinoicAcid.pdbqt.pdb
REMARK  6 active torsions:
REMARK  status: ('A' for Active; 'I' for Inactive)
REMARK    1  A    between atoms: C_1  and  C_3
REMARK    2  A    between atoms: C_1  and  C_5
REMARK    3  A    between atoms: C_3  and  C_15
REMARK    4  A    between atoms: C_4  and  C_9
REMARK    5  A    between atoms: C_16  and  C_17
REMARK    6  A    between atoms: C_21  and  O_22
REMARK                            x       y       z     vdW  Elec       q    Type
REMARK                         _______ _______ _______ _____ _____    ______ ____
ROOT
ATOM      1  C   UNL     1     -14.250   4.929  -4.102  0.00  0.00    +0.000 C 
ATOM      2  C   UNL     1     -15.264   4.277  -4.990  0.00  0.00    +0.000 C 
ENDROOT
BRANCH   1   4
ATOM      3  C   UNL     1     -11.749   4.155  -4.184  0.00  0.00    +0.000 C 
ATOM      4  C   UNL     1     -12.896   4.516  -4.148  0.00  0.00    +0.000 C 
BRANCH   3   8
ATOM      5  C   UNL     1     -10.009   2.270  -3.748  0.00  0.00    +0.000 C 
ATOM      6  C   UNL     1      -8.548   2.086  -3.906  0.00  0.00    +0.000 C 
ATOM      7  C   UNL     1      -7.301   2.813  -4.369  0.00  0.00    +0.000 C 
ATOM      8  C   UNL     1     -10.375   3.715  -4.228  0.00  0.00    +0.000 C 
ATOM      9  C   UNL     1      -8.065   4.071  -4.719  0.00  0.00    +0.000 C 
ATOM     10  C   UNL     1      -9.407   4.546  -4.688  0.00  0.00    +0.000 C 
ATOM     11  C   UNL     1     -10.401   2.120  -2.253  0.00  0.00    +0.000 C 
ATOM     12  C   UNL     1     -10.771   1.244  -4.634  0.00  0.00    +0.000 C 
ATOM     13  C   UNL     1      -9.651   5.944  -5.183  0.00  0.00    +0.000 C 
ENDBRANCH   3   8
ENDBRANCH   1   4
BRANCH   1  14
ATOM     14  C   UNL     1     -14.621   5.839  -3.256  0.00  0.00    +0.000 C 
BRANCH  14  15
ATOM     15  C   UNL     1     -15.057   6.916  -2.255  0.00  0.00    +0.000 C 
ATOM     16  C   UNL     1     -15.397   7.760  -1.471  0.00  0.00    +0.000 C 
BRANCH  16  17
ATOM     17  C   UNL     1     -15.795   8.758  -0.550  0.00  0.00    +0.000 C 
ATOM     18  C   UNL     1     -14.815   9.274   0.459  0.00  0.00    +0.000 C 
ATOM     19  C   UNL     1     -17.008   9.199  -0.559  0.00  0.00    +0.000 C 
ATOM     20  O   UNL     1     -18.724  10.545  -1.359  0.00  0.00    +0.000 OA
ATOM     21  C   UNL     1     -18.342   9.686  -0.586  0.00  0.00    +0.000 C 
BRANCH  21  22
ATOM     22  O   UNL     1     -19.157   9.097   0.304  0.00  0.00    +0.000 OA
ATOM     23  H   UNL     1     -19.372   8.232  -0.103  0.00  0.00    +0.000 HD
ENDBRANCH  21  22
ENDBRANCH  16  17
ENDBRANCH  14  15
ENDBRANCH   1  14
TORSDOF 6
ENDMDL
MODEL 7
REMARK VINA RESULT:      -4.8     20.727     22.660
REMARK  Name = RetinoicAcid.pdbqt.pdb
REMARK  6 active torsions:
REMARK  status: ('A' for Active; 'I' for Inactive)
REMARK    1  A    between atoms: C_1  and  C_3
REMARK    2  A    between atoms: C_1  and  C_5
REMARK    3  A    between atoms: C_3  and  C_15
REMARK    4  A    between atoms: C_4  and  C_9
REMARK    5  A    between atoms: C_16  and  C_17
REMARK    6  A    between atoms: C_21  and  O_22
REMARK                            x       y       z     vdW  Elec       q    Type
REMARK                         _______ _______ _______ _____ _____    ______ ____
ROOT
ATOM      1  C   UNL     1      -6.617   8.653  17.318  0.00  0.00    +0.000 C 
ATOM      2  C   UNL     1      -5.540   7.743  16.813  0.00  0.00    +0.000 C 
ENDROOT
BRANCH   1   4
ATOM      3  C   UNL     1      -8.512   7.724  18.870  0.00  0.00    +0.000 C 
ATOM      4  C   UNL     1      -7.641   8.145  18.155  0.00  0.00    +0.000 C 
BRANCH   3   8
ATOM      5  C   UNL     1      -9.480   7.478  21.272  0.00  0.00    +0.000 C 
ATOM      6  C   UNL     1     -10.674   6.869  21.903  0.00  0.00    +0.000 C 
ATOM      7  C   UNL     1     -11.932   6.092  21.566  0.00  0.00    +0.000 C 
ATOM      8  C   UNL     1      -9.558   7.224  19.729  0.00  0.00    +0.000 C 
ATOM      9  C   UNL     1     -11.621   6.074  20.085  0.00  0.00    +0.000 C 
ATOM     10  C   UNL     1     -10.608   6.545  19.203  0.00  0.00    +0.000 C 
ATOM     11  C   UNL     1      -8.192   6.812  21.829  0.00  0.00    +0.000 C 
ATOM     12  C   UNL     1      -9.473   9.012  21.525  0.00  0.00    +0.000 C 
ATOM     13  C   UNL     1     -10.786   6.259  17.738  0.00  0.00    +0.000 C 
ENDBRANCH   3   8
ENDBRANCH   1   4
BRANCH   1  14
ATOM     14  C   UNL     1      -6.639   9.896  16.951  0.00  0.00    +0.000 C 
BRANCH  14  15
ATOM     15  C   UNL     1      -6.667  11.367  16.517  0.00  0.00    +0.000 C 
ATOM     16  C   UNL     1      -6.686  12.519  16.178  0.00  0.00    +0.000 C 
BRANCH  16  17
ATOM     17  C   UNL     1      -6.705  13.876  15.777  0.00  0.00    +0.000 C 
ATOM     18  C   UNL     1      -5.987  14.293  14.530  0.00  0.00    +0.000 C 
ATOM     19  C   UNL     1      -7.311  14.756  16.500  0.00  0.00    +0.000 C 
ATOM     20  O   UNL     1      -9.193  15.899  17.240  0.00  0.00    +0.000 OA
ATOM     21  C   UNL     1      -7.992  15.714  17.298  0.00  0.00    +0.000 C 
BRANCH  21  22
ATOM     22  O   UNL     1      -7.194  16.385  18.145  0.00  0.00    +0.000 OA
ATOM     23  H   UNL     1      -7.783  16.619  18.894  0.00  0.00    +0.000 HD
ENDBRANCH  21  22
ENDBRANCH  16  17
ENDBRANCH  14  15
ENDBRANCH   1  14
TORSDOF 6
ENDMDL
MODEL 8
REMARK VINA RESULT:      -4.7     19.715     22.102
REMARK  Name = RetinoicAcid.pdbqt.pdb
REMARK  6 active torsions:
REMARK  status: ('A' for Active; 'I' for Inactive)
REMARK    1  A    between atoms: C_1  and  C_3
REMARK    2  A    between atoms: C_1  and  C_5
REMARK    3  A    between atoms: C_3  and  C_15
REMARK    4  A    between atoms: C_4  and  C_9
REMARK    5  A    between atoms: C_16  and  C_17
REMARK    6  A    between atoms: C_21  and  O_22
REMARK                            x       y       z     vdW  Elec       q    Type
REMARK                         _______ _______ _______ _____ _____    ______ ____
ROOT
ATOM      1  C   UNL     1      -2.733   4.987  16.968  0.00  0.00    +0.000 C 
ATOM      2  C   UNL     1      -2.209   4.498  18.283  0.00  0.00    +0.000 C 
ENDROOT
BRANCH   1   4
ATOM      3  C   UNL     1      -5.225   5.762  16.754  0.00  0.00    +0.000 C 
ATOM      4  C   UNL     1      -4.082   5.400  16.851  0.00  0.00    +0.000 C 
BRANCH   3   8
ATOM      5  C   UNL     1      -7.726   5.151  16.377  0.00  0.00    +0.000 C 
ATOM      6  C   UNL     1      -9.020   5.871  16.307  0.00  0.00    +0.000 C 
ATOM      7  C   UNL     1      -9.612   7.263  16.400  0.00  0.00    +0.000 C 
ATOM      8  C   UNL     1      -6.595   6.202  16.636  0.00  0.00    +0.000 C 
ATOM      9  C   UNL     1      -8.265   7.910  16.637  0.00  0.00    +0.000 C 
ATOM     10  C   UNL     1      -6.902   7.518  16.755  0.00  0.00    +0.000 C 
ATOM     11  C   UNL     1      -7.449   4.432  15.028  0.00  0.00    +0.000 C 
ATOM     12  C   UNL     1      -7.747   4.140  17.558  0.00  0.00    +0.000 C 
ATOM     13  C   UNL     1      -5.895   8.604  17.017  0.00  0.00    +0.000 C 
ENDBRANCH   3   8
ENDBRANCH   1   4
BRANCH   1  14
ATOM     14  C   UNL     1      -1.963   4.987  15.924  0.00  0.00    +0.000 C 
BRANCH  14  15
ATOM     15  C   UNL     1      -1.052   4.985  14.690  0.00  0.00    +0.000 C 
ATOM     16  C   UNL     1      -0.339   4.981  13.725  0.00  0.00    +0.000 C 
BRANCH  16  17
ATOM     17  C   UNL     1       0.499   4.972  12.584  0.00  0.00    +0.000 C 
ATOM     18  C   UNL     1       0.882   6.266  11.932  0.00  0.00    +0.000 C 
ATOM     19  C   UNL     1       0.905   3.852  12.087  0.00  0.00    +0.000 C 
ATOM     20  O   UNL     1       2.310   2.004  12.003  0.00  0.00    +0.000 OA
ATOM     21  C   UNL     1       1.355   2.614  11.558  0.00  0.00    +0.000 C 
BRANCH  21  22
ATOM     22  O   UNL     1       0.618   2.158  10.532  0.00  0.00    +0.000 OA
ATOM     23  H   UNL     1       0.185   1.354  10.887  0.00  0.00    +0.000 HD
ENDBRANCH  21  22
ENDBRANCH  16  17
ENDBRANCH  14  15
ENDBRANCH   1  14
TORSDOF 6
ENDMDL
MODEL 9
REMARK VINA RESULT:      -4.7     20.287     22.922
REMARK  Name = RetinoicAcid.pdbqt.pdb
REMARK  6 active torsions:
REMARK  status: ('A' for Active; 'I' for Inactive)
REMARK    1  A    between atoms: C_1  and  C_3
REMARK    2  A    between atoms: C_1  and  C_5
REMARK    3  A    between atoms: C_3  and  C_15
REMARK    4  A    between atoms: C_4  and  C_9
REMARK    5  A    between atoms: C_16  and  C_17
REMARK    6  A    between atoms: C_21  and  O_22
REMARK                            x       y       z     vdW  Elec       q    Type
REMARK                         _______ _______ _______ _____ _____    ______ ____
ROOT
ATOM      1  C   UNL     1      -6.495   9.387  17.370  0.00  0.00    +0.000 C 
ATOM      2  C   UNL     1      -5.716   8.289  16.713  0.00  0.00    +0.000 C 
ENDROOT
BRANCH   1   4
ATOM      3  C   UNL     1      -8.041   8.868  19.419  0.00  0.00    +0.000 C 
ATOM      4  C   UNL     1      -7.330   9.101  18.477  0.00  0.00    +0.000 C 
BRANCH   3   8
ATOM      5  C   UNL     1      -8.726   9.422  21.868  0.00  0.00    +0.000 C 
ATOM      6  C   UNL     1      -9.728   8.943  22.848  0.00  0.00    +0.000 C 
ATOM      7  C   UNL     1     -10.850   7.935  23.006  0.00  0.00    +0.000 C 
ATOM      8  C   UNL     1      -8.898   8.595  20.549  0.00  0.00    +0.000 C 
ATOM      9  C   UNL     1     -10.677   7.400  21.601  0.00  0.00    +0.000 C 
ATOM     10  C   UNL     1      -9.850   7.634  20.466  0.00  0.00    +0.000 C 
ATOM     11  C   UNL     1      -7.294   9.195  22.423  0.00  0.00    +0.000 C 
ATOM     12  C   UNL     1      -8.974  10.924  21.550  0.00  0.00    +0.000 C 
ATOM     13  C   UNL     1     -10.106   6.794  19.245  0.00  0.00    +0.000 C 
ENDBRANCH   3   8
ENDBRANCH   1   4
BRANCH   1  14
ATOM     14  C   UNL     1      -6.442  10.591  16.893  0.00  0.00    +0.000 C 
BRANCH  14  15
ATOM     15  C   UNL     1      -6.381  12.017  16.331  0.00  0.00    +0.000 C 
ATOM     16  C   UNL     1      -6.336  13.133  15.890  0.00  0.00    +0.000 C 
BRANCH  16  17
ATOM     17  C   UNL     1      -6.287  14.450  15.373  0.00  0.00    +0.000 C 
ATOM     18  C   UNL     1      -6.819  15.589  16.187  0.00  0.00    +0.000 C 
ATOM     19  C   UNL     1      -5.814  14.663  14.191  0.00  0.00    +0.000 C 
ATOM     20  O   UNL     1      -4.087  14.981  12.670  0.00  0.00    +0.000 OA
ATOM     21  C   UNL     1      -5.280  14.888  12.895  0.00  0.00    +0.000 C 
BRANCH  21  22
ATOM     22  O   UNL     1      -6.208  14.966  11.927  0.00  0.00    +0.000 OA
ATOM     23  H   UNL     1      -6.374  15.927  11.832  0.00  0.00    +0.000 HD
ENDBRANCH  21  22
ENDBRANCH  16  17
ENDBRANCH  14  15
ENDBRANCH   1  14
TORSDOF 6
ENDMDL
