MODEL 1
REMARK VINA RESULT:      -6.4      0.000      0.000
REMARK  Name = SB_202190.pdbqt.pdb
REMARK  4 active torsions:
REMARK  status: ('A' for Active; 'I' for Inactive)
REMARK    1  A    between atoms: C_4  and  C_7
REMARK    2  A    between atoms: C_5  and  C_19
REMARK    3  A    between atoms: C_6  and  C_8
REMARK    4  A    between atoms: C_15  and  O_26
REMARK                            x       y       z     vdW  Elec       q    Type
REMARK                         _______ _______ _______ _____ _____    ______ ____
ROOT
ATOM      1  N   UNL     1     -22.867  15.117   7.351  0.00  0.00    +0.000 N 
ATOM      2  N   UNL     1     -22.163  14.432   9.318  0.00  0.00    +0.000 NA
ATOM      3  C   UNL     1     -22.506  16.270   8.019  0.00  0.00    +0.000 A 
ATOM      4  C   UNL     1     -22.097  15.807   9.262  0.00  0.00    +0.000 A 
ATOM      5  C   UNL     1     -22.633  14.028   8.157  0.00  0.00    +0.000 A 
ATOM      6  H   UNL     1     -23.213  15.070   6.403  0.00  0.00    +0.000 HD
ENDROOT
BRANCH   4   7
ATOM      7  C   UNL     1     -21.661  16.583  10.404  0.00  0.00    +0.000 A 
ATOM      8  C   UNL     1     -20.487  16.269  11.091  0.00  0.00    +0.000 A 
ATOM      9  C   UNL     1     -20.059  17.053  12.159  0.00  0.00    +0.000 A 
ATOM     10  C   UNL     1     -20.805  18.167  12.525  0.00  0.00    +0.000 A 
ATOM     11  F   UNL     1     -20.399  18.922  13.555  0.00  0.00    +0.000 F 
ATOM     12  C   UNL     1     -21.967  18.509  11.843  0.00  0.00    +0.000 A 
ATOM     13  C   UNL     1     -22.388  17.717  10.777  0.00  0.00    +0.000 A 
ENDBRANCH   4   7
BRANCH   3  15
ATOM     14  N   UNL     1     -22.704  20.089   6.129  0.00  0.00    +0.000 NA
ATOM     15  C   UNL     1     -22.566  17.585   7.388  0.00  0.00    +0.000 A 
ATOM     16  C   UNL     1     -21.453  18.116   6.740  0.00  0.00    +0.000 A 
ATOM     17  C   UNL     1     -23.753  18.317   7.390  0.00  0.00    +0.000 A 
ATOM     18  C   UNL     1     -21.570  19.357   6.136  0.00  0.00    +0.000 A 
ATOM     19  C   UNL     1     -23.768  19.551   6.760  0.00  0.00    +0.000 A 
ENDBRANCH   3  15
BRANCH   5  20
ATOM     20  C   UNL     1     -22.877  12.647   7.757  0.00  0.00    +0.000 A 
ATOM     21  C   UNL     1     -23.699  12.378   6.659  0.00  0.00    +0.000 A 
ATOM     22  C   UNL     1     -22.305  11.577   8.451  0.00  0.00    +0.000 A 
ATOM     23  C   UNL     1     -23.947  11.067   6.258  0.00  0.00    +0.000 A 
ATOM     24  C   UNL     1     -22.546  10.263   8.059  0.00  0.00    +0.000 A 
ATOM     25  C   UNL     1     -23.366  10.019   6.964  0.00  0.00    +0.000 A 
BRANCH  25  26
ATOM     26  O   UNL     1     -23.589   8.724   6.597  0.00  0.00    +0.000 OA
ATOM     27  H   UNL     1     -24.303   8.368   7.155  0.00  0.00    +0.000 HD
ENDBRANCH  25  26
ENDBRANCH   5  20
TORSDOF 4
ENDMDL
MODEL 2
REMARK VINA RESULT:      -6.0      6.191      9.644
REMARK  Name = SB_202190.pdbqt.pdb
REMARK  4 active torsions:
REMARK  status: ('A' for Active; 'I' for Inactive)
REMARK    1  A    between atoms: C_4  and  C_7
REMARK    2  A    between atoms: C_5  and  C_19
REMARK    3  A    between atoms: C_6  and  C_8
REMARK    4  A    between atoms: C_15  and  O_26
REMARK                            x       y       z     vdW  Elec       q    Type
REMARK                         _______ _______ _______ _____ _____    ______ ____
ROOT
ATOM      1  N   UNL     1     -20.965  21.344  14.756  0.00  0.00    +0.000 N 
ATOM      2  N   UNL     1     -22.126  19.496  14.497  0.00  0.00    +0.000 NA
ATOM      3  C   UNL     1     -20.444  20.754  13.621  0.00  0.00    +0.000 A 
ATOM      4  C   UNL     1     -21.175  19.580  13.504  0.00  0.00    +0.000 A 
ATOM      5  C   UNL     1     -21.986  20.567  15.248  0.00  0.00    +0.000 A 
ATOM      6  H   UNL     1     -20.673  22.229  15.146  0.00  0.00    +0.000 HD
ENDROOT
BRANCH   4   7
ATOM      7  C   UNL     1     -21.022  18.528  12.522  0.00  0.00    +0.000 A 
ATOM      8  C   UNL     1     -20.118  17.481  12.714  0.00  0.00    +0.000 A 
ATOM      9  C   UNL     1     -20.016  16.452  11.781  0.00  0.00    +0.000 A 
ATOM     10  C   UNL     1     -20.839  16.468  10.660  0.00  0.00    +0.000 A 
ATOM     11  F   UNL     1     -20.741  15.483   9.758  0.00  0.00    +0.000 F 
ATOM     12  C   UNL     1     -21.758  17.491  10.459  0.00  0.00    +0.000 A 
ATOM     13  C   UNL     1     -21.852  18.516  11.398  0.00  0.00    +0.000 A 
ENDBRANCH   4   7
BRANCH   3  15
ATOM     14  N   UNL     1     -17.376  22.558  11.269  0.00  0.00    +0.000 NA
ATOM     15  C   UNL     1     -19.396  21.388  12.827  0.00  0.00    +0.000 A 
ATOM     16  C   UNL     1     -18.073  21.389  13.265  0.00  0.00    +0.000 A 
ATOM     17  C   UNL     1     -19.695  21.968  11.595  0.00  0.00    +0.000 A 
ATOM     18  C   UNL     1     -17.112  21.983  12.462  0.00  0.00    +0.000 A 
ATOM     19  C   UNL     1     -18.663  22.538  10.867  0.00  0.00    +0.000 A 
ENDBRANCH   3  15
BRANCH   5  20
ATOM     20  C   UNL     1     -22.777  20.906  16.426  0.00  0.00    +0.000 A 
ATOM     21  C   UNL     1     -22.920  19.973  17.457  0.00  0.00    +0.000 A 
ATOM     22  C   UNL     1     -23.398  22.152  16.551  0.00  0.00    +0.000 A 
ATOM     23  C   UNL     1     -23.670  20.274  18.592  0.00  0.00    +0.000 A 
ATOM     24  C   UNL     1     -24.151  22.462  17.681  0.00  0.00    +0.000 A 
ATOM     25  C   UNL     1     -24.280  21.520  18.693  0.00  0.00    +0.000 A 
BRANCH  25  26
ATOM     26  O   UNL     1     -25.020  21.845  19.792  0.00  0.00    +0.000 OA
ATOM     27  H   UNL     1     -24.849  21.181  20.482  0.00  0.00    +0.000 HD
ENDBRANCH  25  26
ENDBRANCH   5  20
TORSDOF 4
ENDMDL
MODEL 3
REMARK VINA RESULT:      -5.9      3.285      4.561
REMARK  Name = SB_202190.pdbqt.pdb
REMARK  4 active torsions:
REMARK  status: ('A' for Active; 'I' for Inactive)
REMARK    1  A    between atoms: C_4  and  C_7
REMARK    2  A    between atoms: C_5  and  C_19
REMARK    3  A    between atoms: C_6  and  C_8
REMARK    4  A    between atoms: C_15  and  O_26
REMARK                            x       y       z     vdW  Elec       q    Type
REMARK                         _______ _______ _______ _____ _____    ______ ____
ROOT
ATOM      1  N   UNL     1     -23.834  11.631   4.831  0.00  0.00    +0.000 N 
ATOM      2  N   UNL     1     -23.888  11.172   6.980  0.00  0.00    +0.000 NA
ATOM      3  C   UNL     1     -23.512  12.820   5.455  0.00  0.00    +0.000 A 
ATOM      4  C   UNL     1     -23.584  12.504   6.805  0.00  0.00    +0.000 A 
ATOM      5  C   UNL     1     -24.039  10.657   5.778  0.00  0.00    +0.000 A 
ATOM      6  H   UNL     1     -23.876  11.483   3.833  0.00  0.00    +0.000 HD
ENDROOT
BRANCH   4   7
ATOM      7  C   UNL     1     -23.398  13.385   7.939  0.00  0.00    +0.000 A 
ATOM      8  C   UNL     1     -24.487  13.935   8.618  0.00  0.00    +0.000 A 
ATOM      9  C   UNL     1     -24.291  14.744   9.734  0.00  0.00    +0.000 A 
ATOM     10  C   UNL     1     -22.997  14.986  10.179  0.00  0.00    +0.000 A 
ATOM     11  F   UNL     1     -22.804  15.767  11.250  0.00  0.00    +0.000 F 
ATOM     12  C   UNL     1     -21.900  14.433   9.529  0.00  0.00    +0.000 A 
ATOM     13  C   UNL     1     -22.106  13.626   8.412  0.00  0.00    +0.000 A 
ENDBRANCH   4   7
BRANCH   3  15
ATOM     14  N   UNL     1     -22.528  16.323   3.229  0.00  0.00    +0.000 NA
ATOM     15  C   UNL     1     -23.160  14.022   4.705  0.00  0.00    +0.000 A 
ATOM     16  C   UNL     1     -22.192  13.979   3.704  0.00  0.00    +0.000 A 
ATOM     17  C   UNL     1     -23.818  15.227   4.951  0.00  0.00    +0.000 A 
ATOM     18  C   UNL     1     -21.912  15.142   3.005  0.00  0.00    +0.000 A 
ATOM     19  C   UNL     1     -23.464  16.335   4.199  0.00  0.00    +0.000 A 
ENDBRANCH   3  15
BRANCH   5  20
ATOM     20  C   UNL     1     -24.372   9.271   5.468  0.00  0.00    +0.000 A 
ATOM     21  C   UNL     1     -24.854   8.941   4.198  0.00  0.00    +0.000 A 
ATOM     22  C   UNL     1     -24.218   8.256   6.417  0.00  0.00    +0.000 A 
ATOM     23  C   UNL     1     -25.179   7.625   3.879  0.00  0.00    +0.000 A 
ATOM     24  C   UNL     1     -24.539   6.937   6.108  0.00  0.00    +0.000 A 
ATOM     25  C   UNL     1     -25.017   6.632   4.839  0.00  0.00    +0.000 A 
BRANCH  25  26
ATOM     26  O   UNL     1     -25.326   5.333   4.557  0.00  0.00    +0.000 OA
ATOM     27  H   UNL     1     -24.797   5.055   3.789  0.00  0.00    +0.000 HD
ENDBRANCH  25  26
ENDBRANCH   5  20
TORSDOF 4
ENDMDL
MODEL 4
REMARK VINA RESULT:      -5.9      4.169      7.047
REMARK  Name = SB_202190.pdbqt.pdb
REMARK  4 active torsions:
REMARK  status: ('A' for Active; 'I' for Inactive)
REMARK    1  A    between atoms: C_4  and  C_7
REMARK    2  A    between atoms: C_5  and  C_19
REMARK    3  A    between atoms: C_6  and  C_8
REMARK    4  A    between atoms: C_15  and  O_26
REMARK                            x       y       z     vdW  Elec       q    Type
REMARK                         _______ _______ _______ _____ _____    ______ ____
ROOT
ATOM      1  N   UNL     1     -23.601  16.151   8.905  0.00  0.00    +0.000 N 
ATOM      2  N   UNL     1     -22.340  14.455   9.509  0.00  0.00    +0.000 NA
ATOM      3  C   UNL     1     -24.037  15.093   8.133  0.00  0.00    +0.000 A 
ATOM      4  C   UNL     1     -23.204  14.051   8.515  0.00  0.00    +0.000 A 
ATOM      5  C   UNL     1     -22.589  15.728   9.733  0.00  0.00    +0.000 A 
ATOM      6  H   UNL     1     -23.988  17.084   8.897  0.00  0.00    +0.000 HD
ENDROOT
BRANCH   4   7
ATOM      7  C   UNL     1     -23.164  12.702   7.990  0.00  0.00    +0.000 A 
ATOM      8  C   UNL     1     -22.459  11.689   8.643  0.00  0.00    +0.000 A 
ATOM      9  C   UNL     1     -22.469  10.387   8.149  0.00  0.00    +0.000 A 
ATOM     10  C   UNL     1     -23.204  10.101   7.004  0.00  0.00    +0.000 A 
ATOM     11  F   UNL     1     -23.212   8.850   6.523  0.00  0.00    +0.000 F 
ATOM     12  C   UNL     1     -23.927  11.090   6.349  0.00  0.00    +0.000 A 
ATOM     13  C   UNL     1     -23.911  12.390   6.851  0.00  0.00    +0.000 A 
ENDBRANCH   4   7
BRANCH   3  15
ATOM     14  N   UNL     1     -27.317  15.397   5.422  0.00  0.00    +0.000 NA
ATOM     15  C   UNL     1     -25.162  15.216   7.210  0.00  0.00    +0.000 A 
ATOM     16  C   UNL     1     -24.983  15.748   5.935  0.00  0.00    +0.000 A 
ATOM     17  C   UNL     1     -26.430  14.764   7.577  0.00  0.00    +0.000 A 
ATOM     18  C   UNL     1     -26.078  15.819   5.090  0.00  0.00    +0.000 A 
ATOM     19  C   UNL     1     -27.462  14.881   6.660  0.00  0.00    +0.000 A 
ENDBRANCH   3  15
BRANCH   5  20
ATOM     20  C   UNL     1     -21.913  16.583  10.703  0.00  0.00    +0.000 A 
ATOM     21  C   UNL     1     -22.476  17.813  11.054  0.00  0.00    +0.000 A 
ATOM     22  C   UNL     1     -20.707  16.198  11.295  0.00  0.00    +0.000 A 
ATOM     23  C   UNL     1     -21.849  18.646  11.977  0.00  0.00    +0.000 A 
ATOM     24  C   UNL     1     -20.072  17.023  12.219  0.00  0.00    +0.000 A 
ATOM     25  C   UNL     1     -20.649  18.242  12.554  0.00  0.00    +0.000 A 
BRANCH  25  26
ATOM     26  O   UNL     1     -20.011  19.035  13.462  0.00  0.00    +0.000 OA
ATOM     27  H   UNL     1     -19.055  18.990  13.286  0.00  0.00    +0.000 HD
ENDBRANCH  25  26
ENDBRANCH   5  20
TORSDOF 4
ENDMDL
MODEL 5
REMARK VINA RESULT:      -5.9     18.561     20.587
REMARK  Name = SB_202190.pdbqt.pdb
REMARK  4 active torsions:
REMARK  status: ('A' for Active; 'I' for Inactive)
REMARK    1  A    between atoms: C_4  and  C_7
REMARK    2  A    between atoms: C_5  and  C_19
REMARK    3  A    between atoms: C_6  and  C_8
REMARK    4  A    between atoms: C_15  and  O_26
REMARK                            x       y       z     vdW  Elec       q    Type
REMARK                         _______ _______ _______ _____ _____    ______ ____
ROOT
ATOM      1  N   UNL     1     -11.503   2.061  19.200  0.00  0.00    +0.000 N 
ATOM      2  N   UNL     1     -12.016   4.174  19.524  0.00  0.00    +0.000 NA
ATOM      3  C   UNL     1     -12.506   2.041  20.150  0.00  0.00    +0.000 A 
ATOM      4  C   UNL     1     -12.784   3.386  20.352  0.00  0.00    +0.000 A 
ATOM      5  C   UNL     1     -11.244   3.360  18.835  0.00  0.00    +0.000 A 
ATOM      6  H   UNL     1     -11.053   1.249  18.803  0.00  0.00    +0.000 HD
ENDROOT
BRANCH   4   7
ATOM      7  C   UNL     1     -13.719   3.973  21.289  0.00  0.00    +0.000 A 
ATOM      8  C   UNL     1     -15.073   4.105  20.978  0.00  0.00    +0.000 A 
ATOM      9  C   UNL     1     -15.967   4.630  21.909  0.00  0.00    +0.000 A 
ATOM     10  C   UNL     1     -15.498   5.006  23.162  0.00  0.00    +0.000 A 
ATOM     11  F   UNL     1     -16.353   5.515  24.059  0.00  0.00    +0.000 F 
ATOM     12  C   UNL     1     -14.157   4.865  23.499  0.00  0.00    +0.000 A 
ATOM     13  C   UNL     1     -13.271   4.340  22.561  0.00  0.00    +0.000 A 
ENDBRANCH   4   7
BRANCH   3  15
ATOM     14  N   UNL     1     -14.059  -1.625  21.680  0.00  0.00    +0.000 NA
ATOM     15  C   UNL     1     -13.055   0.795  20.675  0.00  0.00    +0.000 A 
ATOM     16  C   UNL     1     -13.686  -0.117  19.831  0.00  0.00    +0.000 A 
ATOM     17  C   UNL     1     -12.921   0.477  22.026  0.00  0.00    +0.000 A 
ATOM     18  C   UNL     1     -14.168  -1.296  20.375  0.00  0.00    +0.000 A 
ATOM     19  C   UNL     1     -13.439  -0.728  22.474  0.00  0.00    +0.000 A 
ENDBRANCH   3  15
BRANCH   5  20
ATOM     20  C   UNL     1     -10.258   3.747  17.832  0.00  0.00    +0.000 A 
ATOM     21  C   UNL     1      -8.977   3.191  17.869  0.00  0.00    +0.000 A 
ATOM     22  C   UNL     1     -10.567   4.667  16.826  0.00  0.00    +0.000 A 
ATOM     23  C   UNL     1      -8.018   3.545  16.922  0.00  0.00    +0.000 A 
ATOM     24  C   UNL     1      -9.616   5.028  15.874  0.00  0.00    +0.000 A 
ATOM     25  C   UNL     1      -8.348   4.463  15.930  0.00  0.00    +0.000 A 
BRANCH  25  26
ATOM     26  O   UNL     1      -7.432   4.829  14.988  0.00  0.00    +0.000 OA
ATOM     27  H   UNL     1      -7.911   5.190  14.222  0.00  0.00    +0.000 HD
ENDBRANCH  25  26
ENDBRANCH   5  20
TORSDOF 4
ENDMDL
MODEL 6
REMARK VINA RESULT:      -5.7     16.988     18.680
REMARK  Name = SB_202190.pdbqt.pdb
REMARK  4 active torsions:
REMARK  status: ('A' for Active; 'I' for Inactive)
REMARK    1  A    between atoms: C_4  and  C_7
REMARK    2  A    between atoms: C_5  and  C_19
REMARK    3  A    between atoms: C_6  and  C_8
REMARK    4  A    between atoms: C_15  and  O_26
REMARK                            x       y       z     vdW  Elec       q    Type
REMARK                         _______ _______ _______ _____ _____    ______ ____
ROOT
ATOM      1  N   UNL     1      -6.155  15.915  14.137  0.00  0.00    +0.000 N 
ATOM      2  N   UNL     1      -5.111  14.053  13.613  0.00  0.00    +0.000 NA
ATOM      3  C   UNL     1      -6.235  15.133  15.272  0.00  0.00    +0.000 A 
ATOM      4  C   UNL     1      -5.596  13.958  14.899  0.00  0.00    +0.000 A 
ATOM      5  C   UNL     1      -5.459  15.240  13.163  0.00  0.00    +0.000 A 
ATOM      6  H   UNL     1      -6.515  16.854  14.043  0.00  0.00    +0.000 HD
ENDROOT
BRANCH   4   7
ATOM      7  C   UNL     1      -5.428  12.748  15.676  0.00  0.00    +0.000 A 
ATOM      8  C   UNL     1      -6.528  12.014  16.125  0.00  0.00    +0.000 A 
ATOM      9  C   UNL     1      -6.347  10.828  16.832  0.00  0.00    +0.000 A 
ATOM     10  C   UNL     1      -5.057  10.370  17.072  0.00  0.00    +0.000 A 
ATOM     11  F   UNL     1      -4.879   9.232  17.756  0.00  0.00    +0.000 F 
ATOM     12  C   UNL     1      -3.949  11.076  16.618  0.00  0.00    +0.000 A 
ATOM     13  C   UNL     1      -4.140  12.262  15.913  0.00  0.00    +0.000 A 
ENDBRANCH   4   7
BRANCH   3  15
ATOM     14  N   UNL     1      -8.029  16.484  18.899  0.00  0.00    +0.000 NA
ATOM     15  C   UNL     1      -6.849  15.613  16.506  0.00  0.00    +0.000 A 
ATOM     16  C   UNL     1      -8.232  15.758  16.605  0.00  0.00    +0.000 A 
ATOM     17  C   UNL     1      -6.064  15.898  17.623  0.00  0.00    +0.000 A 
ATOM     18  C   UNL     1      -8.766  16.195  17.806  0.00  0.00    +0.000 A 
ATOM     19  C   UNL     1      -6.694  16.331  18.778  0.00  0.00    +0.000 A 
ENDBRANCH   3  15
BRANCH   5  20
ATOM     20  C   UNL     1      -5.165  15.783  11.842  0.00  0.00    +0.000 A 
ATOM     21  C   UNL     1      -3.964  15.452  11.207  0.00  0.00    +0.000 A 
ATOM     22  C   UNL     1      -6.062  16.634  11.190  0.00  0.00    +0.000 A 
ATOM     23  C   UNL     1      -3.662  15.958   9.945  0.00  0.00    +0.000 A 
ATOM     24  C   UNL     1      -5.769  17.146   9.928  0.00  0.00    +0.000 A 
ATOM     25  C   UNL     1      -4.570  16.803   9.316  0.00  0.00    +0.000 A 
BRANCH  25  26
ATOM     26  O   UNL     1      -4.303  17.315   8.079  0.00  0.00    +0.000 OA
ATOM     27  H   UNL     1      -4.794  16.793   7.421  0.00  0.00    +0.000 HD
ENDBRANCH  25  26
ENDBRANCH   5  20
TORSDOF 4
ENDMDL
MODEL 7
REMARK VINA RESULT:      -5.7     15.695     19.468
REMARK  Name = SB_202190.pdbqt.pdb
REMARK  4 active torsions:
REMARK  status: ('A' for Active; 'I' for Inactive)
REMARK    1  A    between atoms: C_4  and  C_7
REMARK    2  A    between atoms: C_5  and  C_19
REMARK    3  A    between atoms: C_6  and  C_8
REMARK    4  A    between atoms: C_15  and  O_26
REMARK                            x       y       z     vdW  Elec       q    Type
REMARK                         _______ _______ _______ _____ _____    ______ ____
ROOT
ATOM      1  N   UNL     1     -15.544  18.825  25.702  0.00  0.00    +0.000 N 
ATOM      2  N   UNL     1     -13.795  17.596  26.214  0.00  0.00    +0.000 NA
ATOM      3  C   UNL     1     -14.919  18.577  24.495  0.00  0.00    +0.000 A 
ATOM      4  C   UNL     1     -13.808  17.828  24.856  0.00  0.00    +0.000 A 
ATOM      5  C   UNL     1     -14.849  18.207  26.713  0.00  0.00    +0.000 A 
ATOM      6  H   UNL     1     -16.400  19.346  25.825  0.00  0.00    +0.000 HD
ENDROOT
BRANCH   4   7
ATOM      7  C   UNL     1     -12.751  17.331  24.001  0.00  0.00    +0.000 A 
ATOM      8  C   UNL     1     -11.818  18.194  23.422  0.00  0.00    +0.000 A 
ATOM      9  C   UNL     1     -10.780  17.693  22.639  0.00  0.00    +0.000 A 
ATOM     10  C   UNL     1     -10.672  16.320  22.453  0.00  0.00    +0.000 A 
ATOM     11  F   UNL     1      -9.678  15.835  21.697  0.00  0.00    +0.000 F 
ATOM     12  C   UNL     1     -11.579  15.443  23.035  0.00  0.00    +0.000 A 
ATOM     13  C   UNL     1     -12.614  15.953  23.815  0.00  0.00    +0.000 A 
ENDBRANCH   4   7
BRANCH   3  15
ATOM     14  N   UNL     1     -16.513  19.878  20.758  0.00  0.00    +0.000 NA
ATOM     15  C   UNL     1     -15.471  19.039  23.225  0.00  0.00    +0.000 A 
ATOM     16  C   UNL     1     -14.744  19.896  22.402  0.00  0.00    +0.000 A 
ATOM     17  C   UNL     1     -16.722  18.597  22.795  0.00  0.00    +0.000 A 
ATOM     18  C   UNL     1     -15.303  20.285  21.195  0.00  0.00    +0.000 A 
ATOM     19  C   UNL     1     -17.194  19.045  21.572  0.00  0.00    +0.000 A 
ENDBRANCH   3  15
BRANCH   5  20
ATOM     20  C   UNL     1     -15.244  18.240  28.117  0.00  0.00    +0.000 A 
ATOM     21  C   UNL     1     -16.529  18.665  28.466  0.00  0.00    +0.000 A 
ATOM     22  C   UNL     1     -14.361  17.853  29.130  0.00  0.00    +0.000 A 
ATOM     23  C   UNL     1     -16.929  18.705  29.799  0.00  0.00    +0.000 A 
ATOM     24  C   UNL     1     -14.751  17.890  30.466  0.00  0.00    +0.000 A 
ATOM     25  C   UNL     1     -16.033  18.315  30.790  0.00  0.00    +0.000 A 
BRANCH  25  26
ATOM     26  O   UNL     1     -16.395  18.343  32.106  0.00  0.00    +0.000 OA
ATOM     27  H   UNL     1     -17.344  18.551  32.156  0.00  0.00    +0.000 HD
ENDBRANCH  25  26
ENDBRANCH   5  20
TORSDOF 4
ENDMDL
MODEL 8
REMARK VINA RESULT:      -5.6     20.621     22.975
REMARK  Name = SB_202190.pdbqt.pdb
REMARK  4 active torsions:
REMARK  status: ('A' for Active; 'I' for Inactive)
REMARK    1  A    between atoms: C_4  and  C_7
REMARK    2  A    between atoms: C_5  and  C_19
REMARK    3  A    between atoms: C_6  and  C_8
REMARK    4  A    between atoms: C_15  and  O_26
REMARK                            x       y       z     vdW  Elec       q    Type
REMARK                         _______ _______ _______ _____ _____    ______ ____
ROOT
ATOM      1  N   UNL     1      -4.616   5.692  15.243  0.00  0.00    +0.000 N 
ATOM      2  N   UNL     1      -3.585   3.751  15.204  0.00  0.00    +0.000 NA
ATOM      3  C   UNL     1      -5.596   4.765  15.538  0.00  0.00    +0.000 A 
ATOM      4  C   UNL     1      -4.922   3.554  15.475  0.00  0.00    +0.000 A 
ATOM      5  C   UNL     1      -3.415   5.049  15.064  0.00  0.00    +0.000 A 
ATOM      6  H   UNL     1      -4.746   6.693  15.203  0.00  0.00    +0.000 HD
ENDROOT
BRANCH   4   7
ATOM      7  C   UNL     1      -5.463   2.221  15.641  0.00  0.00    +0.000 A 
ATOM      8  C   UNL     1      -5.639   1.367  14.551  0.00  0.00    +0.000 A 
ATOM      9  C   UNL     1      -6.118   0.072  14.734  0.00  0.00    +0.000 A 
ATOM     10  C   UNL     1      -6.405  -0.369  16.021  0.00  0.00    +0.000 A 
ATOM     11  F   UNL     1      -6.870  -1.613  16.201  0.00  0.00    +0.000 F 
ATOM     12  C   UNL     1      -6.220   0.458  17.122  0.00  0.00    +0.000 A 
ATOM     13  C   UNL     1      -5.741   1.752  16.928  0.00  0.00    +0.000 A 
ENDBRANCH   4   7
BRANCH   3  15
ATOM     14  N   UNL     1      -9.599   5.867  16.517  0.00  0.00    +0.000 NA
ATOM     15  C   UNL     1      -6.965   5.156  15.859  0.00  0.00    +0.000 A 
ATOM     16  C   UNL     1      -8.039   4.667  15.118  0.00  0.00    +0.000 A 
ATOM     17  C   UNL     1      -7.225   5.996  16.942  0.00  0.00    +0.000 A 
ATOM     18  C   UNL     1      -9.320   5.050  15.479  0.00  0.00    +0.000 A 
ATOM     19  C   UNL     1      -8.542   6.322  17.221  0.00  0.00    +0.000 A 
ENDBRANCH   3  15
BRANCH   5  20
ATOM     20  C   UNL     1      -2.160   5.728  14.764  0.00  0.00    +0.000 A 
ATOM     21  C   UNL     1      -1.517   6.469  15.760  0.00  0.00    +0.000 A 
ATOM     22  C   UNL     1      -1.578   5.654  13.495  0.00  0.00    +0.000 A 
ATOM     23  C   UNL     1      -0.317   7.126  15.497  0.00  0.00    +0.000 A 
ATOM     24  C   UNL     1      -0.379   6.307  13.222  0.00  0.00    +0.000 A 
ATOM     25  C   UNL     1       0.242   7.038  14.227  0.00  0.00    +0.000 A 
BRANCH  25  26
ATOM     26  O   UNL     1       1.417   7.670  13.938  0.00  0.00    +0.000 OA
ATOM     27  H   UNL     1       2.126   7.004  13.929  0.00  0.00    +0.000 HD
ENDBRANCH  25  26
ENDBRANCH   5  20
TORSDOF 4
ENDMDL
MODEL 9
REMARK VINA RESULT:      -5.6      6.662     11.604
REMARK  Name = SB_202190.pdbqt.pdb
REMARK  4 active torsions:
REMARK  status: ('A' for Active; 'I' for Inactive)
REMARK    1  A    between atoms: C_4  and  C_7
REMARK    2  A    between atoms: C_5  and  C_19
REMARK    3  A    between atoms: C_6  and  C_8
REMARK    4  A    between atoms: C_15  and  O_26
REMARK                            x       y       z     vdW  Elec       q    Type
REMARK                         _______ _______ _______ _____ _____    ______ ____
ROOT
ATOM      1  N   UNL     1     -24.482   8.088   5.913  0.00  0.00    +0.000 N 
ATOM      2  N   UNL     1     -24.595   9.668   4.388  0.00  0.00    +0.000 NA
ATOM      3  C   UNL     1     -25.021   7.470   4.802  0.00  0.00    +0.000 A 
ATOM      4  C   UNL     1     -25.107   8.497   3.872  0.00  0.00    +0.000 A 
ATOM      5  C   UNL     1     -24.223   9.406   5.624  0.00  0.00    +0.000 A 
ATOM      6  H   UNL     1     -24.271   7.638   6.792  0.00  0.00    +0.000 HD
ENDROOT
BRANCH   4   7
ATOM      7  C   UNL     1     -25.654   8.446   2.533  0.00  0.00    +0.000 A 
ATOM      8  C   UNL     1     -27.032   8.377   2.313  0.00  0.00    +0.000 A 
ATOM      9  C   UNL     1     -27.544   8.374   1.018  0.00  0.00    +0.000 A 
ATOM     10  C   UNL     1     -26.668   8.459  -0.058  0.00  0.00    +0.000 A 
ATOM     11  F   UNL     1     -27.156   8.452  -1.306  0.00  0.00    +0.000 F 
ATOM     12  C   UNL     1     -25.295   8.547   0.139  0.00  0.00    +0.000 A 
ATOM     13  C   UNL     1     -24.793   8.547   1.438  0.00  0.00    +0.000 A 
ENDBRANCH   4   7
BRANCH   3  15
ATOM     14  N   UNL     1     -25.958   3.310   4.694  0.00  0.00    +0.000 NA
ATOM     15  C   UNL     1     -25.327   6.043   4.777  0.00  0.00    +0.000 A 
ATOM     16  C   UNL     1     -26.132   5.470   5.760  0.00  0.00    +0.000 A 
ATOM     17  C   UNL     1     -24.851   5.235   3.745  0.00  0.00    +0.000 A 
ATOM     18  C   UNL     1     -26.412   4.116   5.677  0.00  0.00    +0.000 A 
ATOM     19  C   UNL     1     -25.185   3.890   3.753  0.00  0.00    +0.000 A 
ENDBRANCH   3  15
BRANCH   5  20
ATOM     20  C   UNL     1     -23.627  10.348   6.564  0.00  0.00    +0.000 A 
ATOM     21  C   UNL     1     -23.946  11.706   6.482  0.00  0.00    +0.000 A 
ATOM     22  C   UNL     1     -22.737   9.922   7.554  0.00  0.00    +0.000 A 
ATOM     23  C   UNL     1     -23.389  12.625   7.369  0.00  0.00    +0.000 A 
ATOM     24  C   UNL     1     -22.174  10.832   8.446  0.00  0.00    +0.000 A 
ATOM     25  C   UNL     1     -22.506  12.177   8.346  0.00  0.00    +0.000 A 
BRANCH  25  26
ATOM     26  O   UNL     1     -21.944  13.051   9.230  0.00  0.00    +0.000 OA
ATOM     27  H   UNL     1     -21.107  13.371   8.851  0.00  0.00    +0.000 HD
ENDBRANCH  25  26
ENDBRANCH   5  20
TORSDOF 4
ENDMDL
