MODEL 1
REMARK VINA RESULT:      -6.4      0.000      0.000
REMARK  Name = Simvastatin.pdbqt.pdb
REMARK  7 active torsions:
REMARK  status: ('A' for Active; 'I' for Inactive)
REMARK    1  A    between atoms: C_2  and  C_13
REMARK    2  A    between atoms: C_3  and  O_24
REMARK    3  A    between atoms: C_14  and  C_15
REMARK    4  A    between atoms: C_20  and  O_22
REMARK    5  A    between atoms: O_24  and  C_25
REMARK    6  A    between atoms: C_25  and  C_27
REMARK    7  A    between atoms: C_27  and  C_30
REMARK                            x       y       z     vdW  Elec       q    Type
REMARK                         _______ _______ _______ _____ _____    ______ ____
ROOT
ATOM      1  C   UNL     1     -14.747  10.547  -2.831  0.00  0.00    +0.000 A 
ATOM      2  C   UNL     1     -15.046   9.677  -1.628  0.00  0.00    +0.000 A 
ATOM      3  C   UNL     1     -14.907  10.130  -4.269  0.00  0.00    +0.000 A 
ATOM      4  C   UNL     1     -15.130  10.291  -0.275  0.00  0.00    +0.000 A 
ATOM      5  C   UNL     1     -14.321  12.003  -2.547  0.00  0.00    +0.000 A 
ATOM      6  C   UNL     1     -14.644  11.219  -5.170  0.00  0.00    +0.000 A 
ATOM      7  C   UNL     1     -14.306  12.598  -4.989  0.00  0.00    +0.000 A 
ATOM      8  C   UNL     1     -14.199  12.785  -3.578  0.00  0.00    +0.000 A 
ATOM      9  C   UNL     1     -14.808  11.678  -0.290  0.00  0.00    +0.000 A 
ATOM     10  C   UNL     1     -14.478  12.389  -1.198  0.00  0.00    +0.000 A 
ATOM     11  C   UNL     1     -15.445   9.583   1.008  0.00  0.00    +0.000 C 
ATOM     12  C   UNL     1     -14.954  13.641  -5.842  0.00  0.00    +0.000 C 
ENDROOT
BRANCH   2  13
ATOM     13  C   UNL     1     -15.026   8.259  -1.775  0.00  0.00    +0.000 C 
ATOM     14  C   UNL     1     -14.940   6.733  -1.899  0.00  0.00    +0.000 C 
BRANCH  14  15
ATOM     15  C   UNL     1     -14.816   5.325  -1.968  0.00  0.00    +0.000 C 
ATOM     16  O   UNL     1     -16.028   4.543  -1.997  0.00  0.00    +0.000 OA
ATOM     17  C   UNL     1     -15.970   3.146  -2.010  0.00  0.00    +0.000 C 
ATOM     18  O   UNL     1     -16.953   2.420  -2.035  0.00  0.00    +0.000 OA
ATOM     19  C   UNL     1     -14.630   2.613  -1.985  0.00  0.00    +0.000 C 
ATOM     20  C   UNL     1     -13.351   3.208  -1.945  0.00  0.00    +0.000 C 
ATOM     21  C   UNL     1     -13.596   4.599  -1.940  0.00  0.00    +0.000 C 
BRANCH  20  22
ATOM     22  O   UNL     1     -12.320   2.633  -1.261  0.00  0.00    +0.000 OA
ATOM     23  H   UNL     1     -11.455   2.797  -1.682  0.00  0.00    +0.000 HD
ENDBRANCH  20  22
ENDBRANCH  14  15
ENDBRANCH   2  13
BRANCH   3  24
ATOM     24  O   UNL     1     -16.009   9.309  -4.529  0.00  0.00    +0.000 OA
BRANCH  24  25
ATOM     25  C   UNL     1     -17.212   9.970  -4.361  0.00  0.00    +0.000 C 
ATOM     26  O   UNL     1     -17.367  11.171  -4.591  0.00  0.00    +0.000 OA
BRANCH  25  27
ATOM     27  C   UNL     1     -18.318   8.995  -3.827  0.00  0.00    +0.000 C 
ATOM     28  C   UNL     1     -17.831   7.507  -4.003  0.00  0.00    +0.000 C 
ATOM     29  C   UNL     1     -19.672   9.181  -4.623  0.00  0.00    +0.000 C 
BRANCH  27  30
ATOM     30  C   UNL     1     -18.538   9.321  -2.390  0.00  0.00    +0.000 C 
ATOM     31  C   UNL     1     -18.738   9.626  -0.876  0.00  0.00    +0.000 C 
ENDBRANCH  27  30
ENDBRANCH  25  27
ENDBRANCH  24  25
ENDBRANCH   3  24
TORSDOF 7
ENDMDL
MODEL 2
REMARK VINA RESULT:      -6.4      1.521      2.430
REMARK  Name = Simvastatin.pdbqt.pdb
REMARK  7 active torsions:
REMARK  status: ('A' for Active; 'I' for Inactive)
REMARK    1  A    between atoms: C_2  and  C_13
REMARK    2  A    between atoms: C_3  and  O_24
REMARK    3  A    between atoms: C_14  and  C_15
REMARK    4  A    between atoms: C_20  and  O_22
REMARK    5  A    between atoms: O_24  and  C_25
REMARK    6  A    between atoms: C_25  and  C_27
REMARK    7  A    between atoms: C_27  and  C_30
REMARK                            x       y       z     vdW  Elec       q    Type
REMARK                         _______ _______ _______ _____ _____    ______ ____
ROOT
ATOM      1  C   UNL     1     -14.756  10.052  -2.723  0.00  0.00    +0.000 A 
ATOM      2  C   UNL     1     -15.125   9.206  -1.523  0.00  0.00    +0.000 A 
ATOM      3  C   UNL     1     -14.761   9.584  -4.154  0.00  0.00    +0.000 A 
ATOM      4  C   UNL     1     -15.365   9.856  -0.206  0.00  0.00    +0.000 A 
ATOM      5  C   UNL     1     -14.427  11.536  -2.453  0.00  0.00    +0.000 A 
ATOM      6  C   UNL     1     -14.465  10.657  -5.065  0.00  0.00    +0.000 A 
ATOM      7  C   UNL     1     -14.211  12.056  -4.903  0.00  0.00    +0.000 A 
ATOM      8  C   UNL     1     -14.245  12.291  -3.495  0.00  0.00    +0.000 A 
ATOM      9  C   UNL     1     -15.108  11.257  -0.240  0.00  0.00    +0.000 A 
ATOM     10  C   UNL     1     -14.729  11.955  -1.138  0.00  0.00    +0.000 A 
ATOM     11  C   UNL     1     -15.766   9.173   1.066  0.00  0.00    +0.000 C 
ATOM     12  C   UNL     1     -14.824  13.038  -5.848  0.00  0.00    +0.000 C 
ENDROOT
BRANCH   2  13
ATOM     13  C   UNL     1     -15.025   7.787  -1.617  0.00  0.00    +0.000 C 
ATOM     14  C   UNL     1     -14.846   6.268  -1.728  0.00  0.00    +0.000 C 
BRANCH  14  15
ATOM     15  C   UNL     1     -14.618   4.874  -1.816  0.00  0.00    +0.000 C 
ATOM     16  O   UNL     1     -13.258   4.406  -1.700  0.00  0.00    +0.000 OA
ATOM     17  C   UNL     1     -12.963   3.045  -1.832  0.00  0.00    +0.000 C 
ATOM     18  O   UNL     1     -11.838   2.578  -1.745  0.00  0.00    +0.000 OA
ATOM     19  C   UNL     1     -14.115   2.217  -2.091  0.00  0.00    +0.000 C 
ATOM     20  C   UNL     1     -15.491   2.491  -2.245  0.00  0.00    +0.000 C 
ATOM     21  C   UNL     1     -15.606   3.889  -2.080  0.00  0.00    +0.000 C 
BRANCH  20  22
ATOM     22  O   UNL     1     -16.264   1.780  -3.117  0.00  0.00    +0.000 OA
ATOM     23  H   UNL     1     -17.123   2.210  -3.290  0.00  0.00    +0.000 HD
ENDBRANCH  20  22
ENDBRANCH  14  15
ENDBRANCH   2  13
BRANCH   3  24
ATOM     24  O   UNL     1     -15.793   8.702  -4.486  0.00  0.00    +0.000 OA
BRANCH  24  25
ATOM     25  C   UNL     1     -15.326   7.533  -5.059  0.00  0.00    +0.000 C 
ATOM     26  O   UNL     1     -14.135   7.322  -5.301  0.00  0.00    +0.000 OA
BRANCH  25  27
ATOM     27  C   UNL     1     -16.507   6.550  -5.371  0.00  0.00    +0.000 C 
ATOM     28  C   UNL     1     -15.939   5.093  -5.557  0.00  0.00    +0.000 C 
ATOM     29  C   UNL     1     -17.261   6.972  -6.696  0.00  0.00    +0.000 C 
BRANCH  27  30
ATOM     30  C   UNL     1     -17.451   6.616  -4.220  0.00  0.00    +0.000 C 
ATOM     31  C   UNL     1     -18.412   6.648  -2.995  0.00  0.00    +0.000 C 
ENDBRANCH  27  30
ENDBRANCH  25  27
ENDBRANCH  24  25
ENDBRANCH   3  24
TORSDOF 7
ENDMDL
MODEL 3
REMARK VINA RESULT:      -6.0     20.313     22.203
REMARK  Name = Simvastatin.pdbqt.pdb
REMARK  7 active torsions:
REMARK  status: ('A' for Active; 'I' for Inactive)
REMARK    1  A    between atoms: C_2  and  C_13
REMARK    2  A    between atoms: C_3  and  O_24
REMARK    3  A    between atoms: C_14  and  C_15
REMARK    4  A    between atoms: C_20  and  O_22
REMARK    5  A    between atoms: O_24  and  C_25
REMARK    6  A    between atoms: C_25  and  C_27
REMARK    7  A    between atoms: C_27  and  C_30
REMARK                            x       y       z     vdW  Elec       q    Type
REMARK                         _______ _______ _______ _____ _____    ______ ____
ROOT
ATOM      1  C   UNL     1      -6.754   6.377  16.378  0.00  0.00    +0.000 A 
ATOM      2  C   UNL     1      -5.409   6.962  16.751  0.00  0.00    +0.000 A 
ATOM      3  C   UNL     1      -6.985   4.983  15.857  0.00  0.00    +0.000 A 
ATOM      4  C   UNL     1      -5.343   8.232  17.524  0.00  0.00    +0.000 A 
ATOM      5  C   UNL     1      -7.992   7.264  16.632  0.00  0.00    +0.000 A 
ATOM      6  C   UNL     1      -8.385   4.699  15.699  0.00  0.00    +0.000 A 
ATOM      7  C   UNL     1      -9.583   5.435  15.966  0.00  0.00    +0.000 A 
ATOM      8  C   UNL     1      -9.153   6.711  16.441  0.00  0.00    +0.000 A 
ATOM      9  C   UNL     1      -6.631   8.801  17.737  0.00  0.00    +0.000 A 
ATOM     10  C   UNL     1      -7.715   8.426  17.385  0.00  0.00    +0.000 A 
ATOM     11  C   UNL     1      -4.103   8.925  17.997  0.00  0.00    +0.000 C 
ATOM     12  C   UNL     1     -10.753   4.750  16.597  0.00  0.00    +0.000 C 
ENDROOT
BRANCH   2  13
ATOM     13  C   UNL     1      -4.228   6.410  16.174  0.00  0.00    +0.000 C 
ATOM     14  C   UNL     1      -2.979   5.841  15.489  0.00  0.00    +0.000 C 
BRANCH  14  15
ATOM     15  C   UNL     1      -1.837   5.358  14.808  0.00  0.00    +0.000 C 
ATOM     16  O   UNL     1      -1.407   6.066  13.626  0.00  0.00    +0.000 OA
ATOM     17  C   UNL     1      -0.318   5.606  12.880  0.00  0.00    +0.000 C 
ATOM     18  O   UNL     1       0.101   6.153  11.871  0.00  0.00    +0.000 OA
ATOM     19  C   UNL     1       0.284   4.403  13.400  0.00  0.00    +0.000 C 
ATOM     20  C   UNL     1       0.002   3.580  14.512  0.00  0.00    +0.000 C 
ATOM     21  C   UNL     1      -1.107   4.187  15.143  0.00  0.00    +0.000 C 
BRANCH  20  22
ATOM     22  O   UNL     1       0.178   2.229  14.459  0.00  0.00    +0.000 OA
ATOM     23  H   UNL     1      -0.445   1.747  15.037  0.00  0.00    +0.000 HD
ENDBRANCH  20  22
ENDBRANCH  14  15
ENDBRANCH   2  13
BRANCH   3  24
ATOM     24  O   UNL     1      -6.170   3.997  16.422  0.00  0.00    +0.000 OA
BRANCH  24  25
ATOM     25  C   UNL     1      -5.673   3.117  15.478  0.00  0.00    +0.000 C 
ATOM     26  O   UNL     1      -5.278   3.466  14.363  0.00  0.00    +0.000 OA
BRANCH  25  27
ATOM     27  C   UNL     1      -5.708   1.643  16.012  0.00  0.00    +0.000 C 
ATOM     28  C   UNL     1      -4.328   1.299  16.687  0.00  0.00    +0.000 C 
ATOM     29  C   UNL     1      -5.965   0.619  14.834  0.00  0.00    +0.000 C 
BRANCH  27  30
ATOM     30  C   UNL     1      -6.824   1.557  16.997  0.00  0.00    +0.000 C 
ATOM     31  C   UNL     1      -7.995   1.515  18.022  0.00  0.00    +0.000 C 
ENDBRANCH  27  30
ENDBRANCH  25  27
ENDBRANCH  24  25
ENDBRANCH   3  24
TORSDOF 7
ENDMDL
MODEL 4
REMARK VINA RESULT:      -5.9      1.810      2.736
REMARK  Name = Simvastatin.pdbqt.pdb
REMARK  7 active torsions:
REMARK  status: ('A' for Active; 'I' for Inactive)
REMARK    1  A    between atoms: C_2  and  C_13
REMARK    2  A    between atoms: C_3  and  O_24
REMARK    3  A    between atoms: C_14  and  C_15
REMARK    4  A    between atoms: C_20  and  O_22
REMARK    5  A    between atoms: O_24  and  C_25
REMARK    6  A    between atoms: C_25  and  C_27
REMARK    7  A    between atoms: C_27  and  C_30
REMARK                            x       y       z     vdW  Elec       q    Type
REMARK                         _______ _______ _______ _____ _____    ______ ____
ROOT
ATOM      1  C   UNL     1     -14.771   9.854  -2.845  0.00  0.00    +0.000 A 
ATOM      2  C   UNL     1     -15.172   8.959  -1.691  0.00  0.00    +0.000 A 
ATOM      3  C   UNL     1     -14.713   9.439  -4.291  0.00  0.00    +0.000 A 
ATOM      4  C   UNL     1     -15.473   9.556  -0.362  0.00  0.00    +0.000 A 
ATOM      5  C   UNL     1     -14.478  11.332  -2.508  0.00  0.00    +0.000 A 
ATOM      6  C   UNL     1     -14.400  10.548  -5.150  0.00  0.00    +0.000 A 
ATOM      7  C   UNL     1     -14.177  11.944  -4.928  0.00  0.00    +0.000 A 
ATOM      8  C   UNL     1     -14.269  12.127  -3.515  0.00  0.00    +0.000 A 
ATOM      9  C   UNL     1     -15.239  10.961  -0.336  0.00  0.00    +0.000 A 
ATOM     10  C   UNL     1     -14.837  11.698  -1.193  0.00  0.00    +0.000 A 
ATOM     11  C   UNL     1     -15.911   8.822   0.868  0.00  0.00    +0.000 C 
ATOM     12  C   UNL     1     -14.770  12.951  -5.861  0.00  0.00    +0.000 C 
ENDROOT
BRANCH   2  13
ATOM     13  C   UNL     1     -15.044   7.546  -1.832  0.00  0.00    +0.000 C 
ATOM     14  C   UNL     1     -14.852   6.028  -1.936  0.00  0.00    +0.000 C 
BRANCH  14  15
ATOM     15  C   UNL     1     -14.644   4.629  -1.975  0.00  0.00    +0.000 C 
ATOM     16  O   UNL     1     -15.807   3.775  -1.991  0.00  0.00    +0.000 OA
ATOM     17  C   UNL     1     -15.665   2.384  -1.976  0.00  0.00    +0.000 C 
ATOM     18  O   UNL     1     -16.602   1.601  -1.988  0.00  0.00    +0.000 OA
ATOM     19  C   UNL     1     -14.296   1.934  -1.935  0.00  0.00    +0.000 C 
ATOM     20  C   UNL     1     -13.055   2.605  -1.904  0.00  0.00    +0.000 C 
ATOM     21  C   UNL     1     -13.382   3.979  -1.929  0.00  0.00    +0.000 C 
BRANCH  20  22
ATOM     22  O   UNL     1     -11.994   2.107  -1.205  0.00  0.00    +0.000 OA
ATOM     23  H   UNL     1     -11.859   2.565  -0.354  0.00  0.00    +0.000 HD
ENDBRANCH  20  22
ENDBRANCH  14  15
ENDBRANCH   2  13
BRANCH   3  24
ATOM     24  O   UNL     1     -15.716   8.553  -4.694  0.00  0.00    +0.000 OA
BRANCH  24  25
ATOM     25  C   UNL     1     -15.212   7.452  -5.362  0.00  0.00    +0.000 C 
ATOM     26  O   UNL     1     -14.010   7.184  -5.424  0.00  0.00    +0.000 OA
BRANCH  25  27
ATOM     27  C   UNL     1     -16.365   6.626  -6.032  0.00  0.00    +0.000 C 
ATOM     28  C   UNL     1     -17.459   7.613  -6.589  0.00  0.00    +0.000 C 
ATOM     29  C   UNL     1     -17.047   5.653  -4.987  0.00  0.00    +0.000 C 
BRANCH  27  30
ATOM     30  C   UNL     1     -15.755   5.826  -7.130  0.00  0.00    +0.000 C 
ATOM     31  C   UNL     1     -15.132   5.023  -8.310  0.00  0.00    +0.000 C 
ENDBRANCH  27  30
ENDBRANCH  25  27
ENDBRANCH  24  25
ENDBRANCH   3  24
TORSDOF 7
ENDMDL
MODEL 5
REMARK VINA RESULT:      -5.9     20.052     23.359
REMARK  Name = Simvastatin.pdbqt.pdb
REMARK  7 active torsions:
REMARK  status: ('A' for Active; 'I' for Inactive)
REMARK    1  A    between atoms: C_2  and  C_13
REMARK    2  A    between atoms: C_3  and  O_24
REMARK    3  A    between atoms: C_14  and  C_15
REMARK    4  A    between atoms: C_20  and  O_22
REMARK    5  A    between atoms: O_24  and  C_25
REMARK    6  A    between atoms: C_25  and  C_27
REMARK    7  A    between atoms: C_27  and  C_30
REMARK                            x       y       z     vdW  Elec       q    Type
REMARK                         _______ _______ _______ _____ _____    ______ ____
ROOT
ATOM      1  C   UNL     1      -9.438   7.786  20.934  0.00  0.00    +0.000 A 
ATOM      2  C   UNL     1      -9.878   6.484  20.301  0.00  0.00    +0.000 A 
ATOM      3  C   UNL     1      -8.327   8.669  20.430  0.00  0.00    +0.000 A 
ATOM      4  C   UNL     1     -11.164   5.860  20.714  0.00  0.00    +0.000 A 
ATOM      5  C   UNL     1     -10.253   8.280  22.149  0.00  0.00    +0.000 A 
ATOM      6  C   UNL     1      -8.228   9.886  21.190  0.00  0.00    +0.000 A 
ATOM      7  C   UNL     1      -8.973  10.440  22.278  0.00  0.00    +0.000 A 
ATOM      8  C   UNL     1      -9.960   9.462  22.605  0.00  0.00    +0.000 A 
ATOM      9  C   UNL     1     -11.793   6.569  21.777  0.00  0.00    +0.000 A 
ATOM     10  C   UNL     1     -11.441   7.550  22.371  0.00  0.00    +0.000 A 
ATOM     11  C   UNL     1     -11.759   4.597  20.169  0.00  0.00    +0.000 C 
ATOM     12  C   UNL     1      -9.322  11.894  22.277  0.00  0.00    +0.000 C 
ENDROOT
BRANCH   2  13
ATOM     13  C   UNL     1      -8.959   5.764  19.483  0.00  0.00    +0.000 C 
ATOM     14  C   UNL     1      -8.025   4.978  18.556  0.00  0.00    +0.000 C 
BRANCH  14  15
ATOM     15  C   UNL     1      -7.205   4.261  17.652  0.00  0.00    +0.000 C 
ATOM     16  O   UNL     1      -6.148   3.447  18.202  0.00  0.00    +0.000 OA
ATOM     17  C   UNL     1      -5.271   2.758  17.357  0.00  0.00    +0.000 C 
ATOM     18  O   UNL     1      -4.355   2.052  17.751  0.00  0.00    +0.000 OA
ATOM     19  C   UNL     1      -5.532   2.956  15.953  0.00  0.00    +0.000 C 
ATOM     20  C   UNL     1      -6.491   3.707  15.241  0.00  0.00    +0.000 C 
ATOM     21  C   UNL     1      -7.282   4.324  16.235  0.00  0.00    +0.000 C 
BRANCH  20  22
ATOM     22  O   UNL     1      -6.186   4.309  14.056  0.00  0.00    +0.000 OA
ATOM     23  H   UNL     1      -6.514   5.227  14.007  0.00  0.00    +0.000 HD
ENDBRANCH  20  22
ENDBRANCH  14  15
ENDBRANCH   2  13
BRANCH   3  24
ATOM     24  O   UNL     1      -8.219   8.749  19.038  0.00  0.00    +0.000 OA
BRANCH  24  25
ATOM     25  C   UNL     1      -6.916   8.603  18.600  0.00  0.00    +0.000 C 
ATOM     26  O   UNL     1      -5.941   8.586  19.355  0.00  0.00    +0.000 OA
BRANCH  25  27
ATOM     27  C   UNL     1      -6.860   8.487  17.037  0.00  0.00    +0.000 C 
ATOM     28  C   UNL     1      -5.668   7.544  16.625  0.00  0.00    +0.000 C 
ATOM     29  C   UNL     1      -6.636   9.905  16.371  0.00  0.00    +0.000 C 
BRANCH  27  30
ATOM     30  C   UNL     1      -8.166   7.929  16.588  0.00  0.00    +0.000 C 
ATOM     31  C   UNL     1      -9.531   7.377  16.081  0.00  0.00    +0.000 C 
ENDBRANCH  27  30
ENDBRANCH  25  27
ENDBRANCH  24  25
ENDBRANCH   3  24
TORSDOF 7
ENDMDL
MODEL 6
REMARK VINA RESULT:      -5.8     26.677     30.189
REMARK  Name = Simvastatin.pdbqt.pdb
REMARK  7 active torsions:
REMARK  status: ('A' for Active; 'I' for Inactive)
REMARK    1  A    between atoms: C_2  and  C_13
REMARK    2  A    between atoms: C_3  and  O_24
REMARK    3  A    between atoms: C_14  and  C_15
REMARK    4  A    between atoms: C_20  and  O_22
REMARK    5  A    between atoms: O_24  and  C_25
REMARK    6  A    between atoms: C_25  and  C_27
REMARK    7  A    between atoms: C_27  and  C_30
REMARK                            x       y       z     vdW  Elec       q    Type
REMARK                         _______ _______ _______ _____ _____    ______ ____
ROOT
ATOM      1  C   UNL     1     -13.658  16.340  27.770  0.00  0.00    +0.000 A 
ATOM      2  C   UNL     1     -14.366  17.664  27.581  0.00  0.00    +0.000 A 
ATOM      3  C   UNL     1     -12.879  15.608  26.709  0.00  0.00    +0.000 A 
ATOM      4  C   UNL     1     -14.846  18.422  28.768  0.00  0.00    +0.000 A 
ATOM      5  C   UNL     1     -13.676  15.739  29.192  0.00  0.00    +0.000 A 
ATOM      6  C   UNL     1     -12.239  14.433  27.234  0.00  0.00    +0.000 A 
ATOM      7  C   UNL     1     -12.157  13.846  28.537  0.00  0.00    +0.000 A 
ATOM      8  C   UNL     1     -12.954  14.675  29.383  0.00  0.00    +0.000 A 
ATOM      9  C   UNL     1     -14.642  17.708  29.983  0.00  0.00    +0.000 A 
ATOM     10  C   UNL     1     -14.171  16.622  30.176  0.00  0.00    +0.000 A 
ATOM     11  C   UNL     1     -15.533  19.754  28.759  0.00  0.00    +0.000 C 
ATOM     12  C   UNL     1     -10.854  13.299  29.025  0.00  0.00    +0.000 C 
ENDROOT
BRANCH   2  13
ATOM     13  C   UNL     1     -14.756  18.062  26.268  0.00  0.00    +0.000 C 
ATOM     14  C   UNL     1     -15.107  18.475  24.834  0.00  0.00    +0.000 C 
BRANCH  14  15
ATOM     15  C   UNL     1     -15.379  18.824  23.490  0.00  0.00    +0.000 C 
ATOM     16  O   UNL     1     -16.712  18.588  22.990  0.00  0.00    +0.000 OA
ATOM     17  C   UNL     1     -17.027  18.862  21.655  0.00  0.00    +0.000 C 
ATOM     18  O   UNL     1     -18.132  18.687  21.163  0.00  0.00    +0.000 OA
ATOM     19  C   UNL     1     -15.922  19.372  20.883  0.00  0.00    +0.000 C 
ATOM     20  C   UNL     1     -14.573  19.653  21.189  0.00  0.00    +0.000 C 
ATOM     21  C   UNL     1     -14.434  19.326  22.557  0.00  0.00    +0.000 C 
BRANCH  20  22
ATOM     22  O   UNL     1     -13.580  19.457  20.275  0.00  0.00    +0.000 OA
ATOM     23  H   UNL     1     -13.662  18.601  19.812  0.00  0.00    +0.000 HD
ENDBRANCH  20  22
ENDBRANCH  14  15
ENDBRANCH   2  13
BRANCH   3  24
ATOM     24  O   UNL     1     -12.150  16.425  25.840  0.00  0.00    +0.000 OA
BRANCH  24  25
ATOM     25  C   UNL     1     -12.254  16.021  24.522  0.00  0.00    +0.000 C 
ATOM     26  O   UNL     1     -12.990  15.106  24.146  0.00  0.00    +0.000 OA
BRANCH  25  27
ATOM     27  C   UNL     1     -11.304  16.863  23.601  0.00  0.00    +0.000 C 
ATOM     28  C   UNL     1     -11.831  16.808  22.117  0.00  0.00    +0.000 C 
ATOM     29  C   UNL     1      -9.829  16.292  23.635  0.00  0.00    +0.000 C 
BRANCH  27  30
ATOM     30  C   UNL     1     -11.308  18.259  24.120  0.00  0.00    +0.000 C 
ATOM     31  C   UNL     1     -11.303  19.735  24.618  0.00  0.00    +0.000 C 
ENDBRANCH  27  30
ENDBRANCH  25  27
ENDBRANCH  24  25
ENDBRANCH   3  24
TORSDOF 7
ENDMDL
MODEL 7
REMARK VINA RESULT:      -5.7      2.526      7.191
REMARK  Name = Simvastatin.pdbqt.pdb
REMARK  7 active torsions:
REMARK  status: ('A' for Active; 'I' for Inactive)
REMARK    1  A    between atoms: C_2  and  C_13
REMARK    2  A    between atoms: C_3  and  O_24
REMARK    3  A    between atoms: C_14  and  C_15
REMARK    4  A    between atoms: C_20  and  O_22
REMARK    5  A    between atoms: O_24  and  C_25
REMARK    6  A    between atoms: C_25  and  C_27
REMARK    7  A    between atoms: C_27  and  C_30
REMARK                            x       y       z     vdW  Elec       q    Type
REMARK                         _______ _______ _______ _____ _____    ______ ____
ROOT
ATOM      1  C   UNL     1     -16.113   8.062  -1.480  0.00  0.00    +0.000 A 
ATOM      2  C   UNL     1     -15.355   9.372  -1.509  0.00  0.00    +0.000 A 
ATOM      3  C   UNL     1     -16.124   7.037  -2.583  0.00  0.00    +0.000 A 
ATOM      4  C   UNL     1     -15.185  10.156  -0.255  0.00  0.00    +0.000 A 
ATOM      5  C   UNL     1     -16.868   7.724  -0.177  0.00  0.00    +0.000 A 
ATOM      6  C   UNL     1     -16.852   5.857  -2.205  0.00  0.00    +0.000 A 
ATOM      7  C   UNL     1     -17.522   5.444  -1.009  0.00  0.00    +0.000 A 
ATOM      8  C   UNL     1     -17.402   6.541  -0.104  0.00  0.00    +0.000 A 
ATOM      9  C   UNL     1     -15.881   9.574   0.843  0.00  0.00    +0.000 A 
ATOM     10  C   UNL     1     -16.567   8.592   0.896  0.00  0.00    +0.000 A 
ATOM     11  C   UNL     1     -14.442  11.448  -0.104  0.00  0.00    +0.000 C 
ATOM     12  C   UNL     1     -17.371   4.040  -0.519  0.00  0.00    +0.000 C 
ENDROOT
BRANCH   2  13
ATOM     13  C   UNL     1     -15.003   9.943  -2.767  0.00  0.00    +0.000 C 
ATOM     14  C   UNL     1     -14.555  10.542  -4.106  0.00  0.00    +0.000 C 
BRANCH  14  15
ATOM     15  C   UNL     1     -14.087  11.060  -5.337  0.00  0.00    +0.000 C 
ATOM     16  O   UNL     1     -14.379  10.313  -6.536  0.00  0.00    +0.000 OA
ATOM     17  C   UNL     1     -13.897  10.747  -7.776  0.00  0.00    +0.000 C 
ATOM     18  O   UNL     1     -14.104  10.167  -8.831  0.00  0.00    +0.000 OA
ATOM     19  C   UNL     1     -13.114  11.956  -7.711  0.00  0.00    +0.000 C 
ATOM     20  C   UNL     1     -12.722  12.802  -6.652  0.00  0.00    +0.000 C 
ATOM     21  C   UNL     1     -13.289  12.224  -5.495  0.00  0.00    +0.000 C 
BRANCH  20  22
ATOM     22  O   UNL     1     -11.508  13.425  -6.652  0.00  0.00    +0.000 OA
ATOM     23  H   UNL     1     -11.386  14.004  -5.875  0.00  0.00    +0.000 HD
ENDBRANCH  20  22
ENDBRANCH  14  15
ENDBRANCH   2  13
BRANCH   3  24
ATOM     24  O   UNL     1     -14.909   6.876  -3.255  0.00  0.00    +0.000 OA
BRANCH  24  25
ATOM     25  C   UNL     1     -14.269   5.698  -2.916  0.00  0.00    +0.000 C 
ATOM     26  O   UNL     1     -14.038   5.359  -1.753  0.00  0.00    +0.000 OA
BRANCH  25  27
ATOM     27  C   UNL     1     -13.869   4.888  -4.198  0.00  0.00    +0.000 C 
ATOM     28  C   UNL     1     -14.053   5.799  -5.470  0.00  0.00    +0.000 C 
ATOM     29  C   UNL     1     -14.776   3.602  -4.362  0.00  0.00    +0.000 C 
BRANCH  27  30
ATOM     30  C   UNL     1     -12.447   4.475  -4.034  0.00  0.00    +0.000 C 
ATOM     31  C   UNL     1     -10.954   4.082  -3.834  0.00  0.00    +0.000 C 
ENDBRANCH  27  30
ENDBRANCH  25  27
ENDBRANCH  24  25
ENDBRANCH   3  24
TORSDOF 7
ENDMDL
MODEL 8
REMARK VINA RESULT:      -5.7     17.771     20.423
REMARK  Name = Simvastatin.pdbqt.pdb
REMARK  7 active torsions:
REMARK  status: ('A' for Active; 'I' for Inactive)
REMARK    1  A    between atoms: C_2  and  C_13
REMARK    2  A    between atoms: C_3  and  O_24
REMARK    3  A    between atoms: C_14  and  C_15
REMARK    4  A    between atoms: C_20  and  O_22
REMARK    5  A    between atoms: O_24  and  C_25
REMARK    6  A    between atoms: C_25  and  C_27
REMARK    7  A    between atoms: C_27  and  C_30
REMARK                            x       y       z     vdW  Elec       q    Type
REMARK                         _______ _______ _______ _____ _____    ______ ____
ROOT
ATOM      1  C   UNL     1     -22.372   5.823  16.818  0.00  0.00    +0.000 A 
ATOM      2  C   UNL     1     -22.279   4.313  16.867  0.00  0.00    +0.000 A 
ATOM      3  C   UNL     1     -23.378   6.609  16.019  0.00  0.00    +0.000 A 
ATOM      4  C   UNL     1     -21.444   3.658  17.909  0.00  0.00    +0.000 A 
ATOM      5  C   UNL     1     -21.402   6.610  17.726  0.00  0.00    +0.000 A 
ATOM      6  C   UNL     1     -23.270   8.021  16.270  0.00  0.00    +0.000 A 
ATOM      7  C   UNL     1     -22.450   8.816  17.132  0.00  0.00    +0.000 A 
ATOM      8  C   UNL     1     -21.576   7.897  17.786  0.00  0.00    +0.000 A 
ATOM      9  C   UNL     1     -20.733   4.602  18.705  0.00  0.00    +0.000 A 
ATOM     10  C   UNL     1     -20.703   5.799  18.647  0.00  0.00    +0.000 A 
ATOM     11  C   UNL     1     -21.268   2.184  18.116  0.00  0.00    +0.000 C 
ATOM     12  C   UNL     1     -23.052   9.955  17.890  0.00  0.00    +0.000 C 
ENDROOT
BRANCH   2  13
ATOM     13  C   UNL     1     -22.812   3.550  15.788  0.00  0.00    +0.000 C 
ATOM     14  C   UNL     1     -23.379   2.787  14.584  0.00  0.00    +0.000 C 
BRANCH  14  15
ATOM     15  C   UNL     1     -23.875   2.126  13.435  0.00  0.00    +0.000 C 
ATOM     16  O   UNL     1     -23.913   2.867  12.197  0.00  0.00    +0.000 OA
ATOM     17  C   UNL     1     -24.442   2.286  11.040  0.00  0.00    +0.000 C 
ATOM     18  O   UNL     1     -24.507   2.852   9.959  0.00  0.00    +0.000 OA
ATOM     19  C   UNL     1     -24.923   0.940  11.225  0.00  0.00    +0.000 C 
ATOM     20  C   UNL     1     -24.978   0.075  12.339  0.00  0.00    +0.000 C 
ATOM     21  C   UNL     1     -24.409   0.811  13.401  0.00  0.00    +0.000 C 
BRANCH  20  22
ATOM     22  O   UNL     1     -26.013  -0.797  12.511  0.00  0.00    +0.000 OA
ATOM     23  H   UNL     1     -26.032  -1.495  11.829  0.00  0.00    +0.000 HD
ENDBRANCH  20  22
ENDBRANCH  14  15
ENDBRANCH   2  13
BRANCH   3  24
ATOM     24  O   UNL     1     -24.656   6.045  15.956  0.00  0.00    +0.000 OA
BRANCH  24  25
ATOM     25  C   UNL     1     -25.097   5.880  14.656  0.00  0.00    +0.000 C 
ATOM     26  O   UNL     1     -24.440   6.211  13.667  0.00  0.00    +0.000 OA
BRANCH  25  27
ATOM     27  C   UNL     1     -26.531   5.246  14.628  0.00  0.00    +0.000 C 
ATOM     28  C   UNL     1     -26.771   4.560  13.230  0.00  0.00    +0.000 C 
ATOM     29  C   UNL     1     -27.644   6.349  14.847  0.00  0.00    +0.000 C 
BRANCH  27  30
ATOM     30  C   UNL     1     -26.596   4.249  15.733  0.00  0.00    +0.000 C 
ATOM     31  C   UNL     1     -26.691   3.179  16.860  0.00  0.00    +0.000 C 
ENDBRANCH  27  30
ENDBRANCH  25  27
ENDBRANCH  24  25
ENDBRANCH   3  24
TORSDOF 7
ENDMDL
MODEL 9
REMARK VINA RESULT:      -5.6      2.728      7.388
REMARK  Name = Simvastatin.pdbqt.pdb
REMARK  7 active torsions:
REMARK  status: ('A' for Active; 'I' for Inactive)
REMARK    1  A    between atoms: C_2  and  C_13
REMARK    2  A    between atoms: C_3  and  O_24
REMARK    3  A    between atoms: C_14  and  C_15
REMARK    4  A    between atoms: C_20  and  O_22
REMARK    5  A    between atoms: O_24  and  C_25
REMARK    6  A    between atoms: C_25  and  C_27
REMARK    7  A    between atoms: C_27  and  C_30
REMARK                            x       y       z     vdW  Elec       q    Type
REMARK                         _______ _______ _______ _____ _____    ______ ____
ROOT
ATOM      1  C   UNL     1     -16.493   7.721  -2.055  0.00  0.00    +0.000 A 
ATOM      2  C   UNL     1     -15.723   8.808  -1.335  0.00  0.00    +0.000 A 
ATOM      3  C   UNL     1     -16.329   7.351  -3.506  0.00  0.00    +0.000 A 
ATOM      4  C   UNL     1     -15.760   8.880   0.150  0.00  0.00    +0.000 A 
ATOM      5  C   UNL     1     -17.464   6.876  -1.202  0.00  0.00    +0.000 A 
ATOM      6  C   UNL     1     -17.128   6.208  -3.856  0.00  0.00    +0.000 A 
ATOM      7  C   UNL     1     -17.997   5.341  -3.121  0.00  0.00    +0.000 A 
ATOM      8  C   UNL     1     -18.019   5.858  -1.790  0.00  0.00    +0.000 A 
ATOM      9  C   UNL     1     -16.641   7.915   0.716  0.00  0.00    +0.000 A 
ATOM     10  C   UNL     1     -17.339   7.096   0.187  0.00  0.00    +0.000 A 
ATOM     11  C   UNL     1     -15.036   9.868   1.014  0.00  0.00    +0.000 C 
ATOM     12  C   UNL     1     -17.952   3.866  -3.357  0.00  0.00    +0.000 C 
ENDROOT
BRANCH   2  13
ATOM     13  C   UNL     1     -15.154   9.873  -2.093  0.00  0.00    +0.000 C 
ATOM     14  C   UNL     1     -14.598  11.013  -2.955  0.00  0.00    +0.000 C 
BRANCH  14  15
ATOM     15  C   UNL     1     -14.143  12.072  -3.777  0.00  0.00    +0.000 C 
ATOM     16  O   UNL     1     -13.667  11.743  -5.098  0.00  0.00    +0.000 OA
ATOM     17  C   UNL     1     -13.156  12.739  -5.936  0.00  0.00    +0.000 C 
ATOM     18  O   UNL     1     -12.735  12.534  -7.065  0.00  0.00    +0.000 OA
ATOM     19  C   UNL     1     -13.155  14.056  -5.350  0.00  0.00    +0.000 C 
ATOM     20  C   UNL     1     -13.561  14.560  -4.096  0.00  0.00    +0.000 C 
ATOM     21  C   UNL     1     -14.046  13.436  -3.391  0.00  0.00    +0.000 C 
BRANCH  20  22
ATOM     22  O   UNL     1     -12.893  15.583  -3.491  0.00  0.00    +0.000 OA
ATOM     23  H   UNL     1     -13.332  15.884  -2.672  0.00  0.00    +0.000 HD
ENDBRANCH  20  22
ENDBRANCH  14  15
ENDBRANCH   2  13
BRANCH   3  24
ATOM     24  O   UNL     1     -15.019   7.415  -3.989  0.00  0.00    +0.000 OA
BRANCH  24  25
ATOM     25  C   UNL     1     -14.375   6.193  -3.934  0.00  0.00    +0.000 C 
ATOM     26  O   UNL     1     -14.325   5.495  -2.919  0.00  0.00    +0.000 OA
BRANCH  25  27
ATOM     27  C   UNL     1     -13.712   5.846  -5.312  0.00  0.00    +0.000 C 
ATOM     28  C   UNL     1     -14.648   4.859  -6.107  0.00  0.00    +0.000 C 
ATOM     29  C   UNL     1     -12.305   5.153  -5.107  0.00  0.00    +0.000 C 
BRANCH  27  30
ATOM     30  C   UNL     1     -13.532   7.127  -6.051  0.00  0.00    +0.000 C 
ATOM     31  C   UNL     1     -13.296   8.465  -6.812  0.00  0.00    +0.000 C 
ENDBRANCH  27  30
ENDBRANCH  25  27
ENDBRANCH  24  25
ENDBRANCH   3  24
TORSDOF 7
ENDMDL
