MODEL 1
REMARK VINA RESULT:      -8.3      0.000      0.000
REMARK  Name = Staurosporine.pdbqt.pdb
REMARK  2 active torsions:
REMARK  status: ('A' for Active; 'I' for Inactive)
REMARK    1  A    between atoms: C_3  and  O_11
REMARK    2  A    between atoms: C_5  and  N_8
REMARK                            x       y       z     vdW  Elec       q    Type
REMARK                         _______ _______ _______ _____ _____    ______ ____
ROOT
ATOM      1  O   UNL     1     -16.386   7.703  -4.842  0.00  0.00    +0.000 OA
ATOM      2  C   UNL     1     -16.198   7.213  -3.486  0.00  0.00    +0.000 C 
ATOM      3  C   UNL     1     -15.185   6.059  -3.346  0.00  0.00    +0.000 C 
ATOM      4  C   UNL     1     -15.195   7.971  -5.497  0.00  0.00    +0.000 C 
ATOM      5  C   UNL     1     -14.166   5.893  -4.380  0.00  0.00    +0.000 C 
ATOM      6  C   UNL     1     -14.317   6.873  -5.378  0.00  0.00    +0.000 C 
ATOM      7  C   UNL     1     -17.605   6.630  -3.118  0.00  0.00    +0.000 C 
ATOM      8  N   UNL     1     -15.850   8.377  -2.640  0.00  0.00    +0.000 N 
ATOM      9  C   UNL     1     -15.281   9.588  -2.948  0.00  0.00    +0.000 A 
ATOM     10  C   UNL     1     -14.752   9.999  -4.175  0.00  0.00    +0.000 A 
ATOM     11  C   UNL     1     -15.124  10.539  -1.931  0.00  0.00    +0.000 A 
ATOM     12  N   UNL     1     -14.669   9.230  -5.296  0.00  0.00    +0.000 N 
ATOM     13  C   UNL     1     -14.132  11.257  -4.165  0.00  0.00    +0.000 A 
ATOM     14  C   UNL     1     -13.829  10.034  -6.092  0.00  0.00    +0.000 A 
ATOM     15  C   UNL     1     -13.524  11.286  -5.439  0.00  0.00    +0.000 A 
ATOM     16  C   UNL     1     -13.332   9.755  -7.375  0.00  0.00    +0.000 A 
ATOM     17  C   UNL     1     -12.705  12.205  -6.125  0.00  0.00    +0.000 A 
ATOM     18  C   UNL     1     -12.221  11.909  -7.398  0.00  0.00    +0.000 A 
ATOM     19  C   UNL     1     -12.530  10.703  -8.009  0.00  0.00    +0.000 A 
ATOM     20  C   UNL     1     -13.978  12.223  -3.152  0.00  0.00    +0.000 A 
ATOM     21  C   UNL     1     -14.544  11.814  -1.912  0.00  0.00    +0.000 A 
ATOM     22  C   UNL     1     -13.356  13.521  -3.020  0.00  0.00    +0.000 C 
ATOM     23  C   UNL     1     -14.272  12.904  -0.937  0.00  0.00    +0.000 C 
ATOM     24  N   UNL     1     -13.596  13.815  -1.671  0.00  0.00    +0.000 N 
ATOM     25  H   UNL     1     -13.271  14.688  -1.280  0.00  0.00    +0.000 HD
ATOM     26  O   UNL     1     -12.759  14.258  -3.790  0.00  0.00    +0.000 OA
ATOM     27  C   UNL     1     -15.626   9.862  -0.807  0.00  0.00    +0.000 A 
ATOM     28  C   UNL     1     -16.046   8.552  -1.243  0.00  0.00    +0.000 A 
ATOM     29  C   UNL     1     -15.759  10.193   0.557  0.00  0.00    +0.000 A 
ATOM     30  C   UNL     1     -16.577   7.646  -0.308  0.00  0.00    +0.000 A 
ATOM     31  C   UNL     1     -16.692   8.020   1.031  0.00  0.00    +0.000 A 
ATOM     32  C   UNL     1     -16.291   9.274   1.460  0.00  0.00    +0.000 A 
ENDROOT
BRANCH   5  33
ATOM     33  N   UNL     1     -13.056   5.012  -4.271  0.00  0.00    +0.000 N 
ATOM     34  C   UNL     1     -12.075   5.129  -5.327  0.00  0.00    +0.000 C 
ATOM     35  H   UNL     1     -13.289   4.058  -3.984  0.00  0.00    +0.000 HD
ENDBRANCH   5  33
BRANCH   3  36
ATOM     36  O   UNL     1     -14.956   5.617  -2.060  0.00  0.00    +0.000 OA
ATOM     37  C   UNL     1     -15.381   4.293  -1.879  0.00  0.00    +0.000 C 
ENDBRANCH   3  36
TORSDOF 2
ENDMDL
MODEL 2
REMARK VINA RESULT:      -7.2      2.112      6.088
REMARK  Name = Staurosporine.pdbqt.pdb
REMARK  2 active torsions:
REMARK  status: ('A' for Active; 'I' for Inactive)
REMARK    1  A    between atoms: C_3  and  O_11
REMARK    2  A    between atoms: C_5  and  N_8
REMARK                            x       y       z     vdW  Elec       q    Type
REMARK                         _______ _______ _______ _____ _____    ______ ____
ROOT
ATOM      1  O   UNL     1     -14.270   9.108  -5.917  0.00  0.00    +0.000 OA
ATOM      2  C   UNL     1     -14.406  10.519  -5.594  0.00  0.00    +0.000 C 
ATOM      3  C   UNL     1     -15.483  11.271  -6.402  0.00  0.00    +0.000 C 
ATOM      4  C   UNL     1     -15.479   8.431  -5.933  0.00  0.00    +0.000 C 
ATOM      5  C   UNL     1     -16.572  10.502  -7.000  0.00  0.00    +0.000 C 
ATOM      6  C   UNL     1     -16.419   9.133  -6.716  0.00  0.00    +0.000 C 
ATOM      7  C   UNL     1     -13.021  11.118  -6.014  0.00  0.00    +0.000 C 
ATOM      8  N   UNL     1     -14.624  10.618  -4.132  0.00  0.00    +0.000 N 
ATOM      9  C   UNL     1     -15.129   9.721  -3.225  0.00  0.00    +0.000 A 
ATOM     10  C   UNL     1     -15.705   8.473  -3.482  0.00  0.00    +0.000 A 
ATOM     11  C   UNL     1     -15.161  10.076  -1.869  0.00  0.00    +0.000 A 
ATOM     12  N   UNL     1     -15.907   7.937  -4.718  0.00  0.00    +0.000 N 
ATOM     13  C   UNL     1     -16.238   7.820  -2.362  0.00  0.00    +0.000 A 
ATOM     14  C   UNL     1     -16.739   6.849  -4.388  0.00  0.00    +0.000 A 
ATOM     15  C   UNL     1     -16.920   6.738  -2.960  0.00  0.00    +0.000 A 
ATOM     16  C   UNL     1     -17.332   5.922  -5.260  0.00  0.00    +0.000 A 
ATOM     17  C   UNL     1     -17.717   5.681  -2.476  0.00  0.00    +0.000 A 
ATOM     18  C   UNL     1     -18.296   4.771  -3.358  0.00  0.00    +0.000 A 
ATOM     19  C   UNL     1     -18.107   4.893  -4.726  0.00  0.00    +0.000 A 
ATOM     20  C   UNL     1     -16.265   8.163  -0.995  0.00  0.00    +0.000 A 
ATOM     21  C   UNL     1     -15.653   9.420  -0.733  0.00  0.00    +0.000 A 
ATOM     22  C   UNL     1     -16.791   7.593   0.223  0.00  0.00    +0.000 C 
ATOM     23  C   UNL     1     -15.791   9.667   0.727  0.00  0.00    +0.000 C 
ATOM     24  N   UNL     1     -16.449   8.572   1.166  0.00  0.00    +0.000 N 
ATOM     25  H   UNL     1     -16.691   8.442   2.138  0.00  0.00    +0.000 HD
ATOM     26  O   UNL     1     -17.384   6.558   0.489  0.00  0.00    +0.000 OA
ATOM     27  C   UNL     1     -14.636  11.379  -1.888  0.00  0.00    +0.000 A 
ATOM     28  C   UNL     1     -14.331  11.703  -3.261  0.00  0.00    +0.000 A 
ATOM     29  C   UNL     1     -14.398  12.354  -0.897  0.00  0.00    +0.000 A 
ATOM     30  C   UNL     1     -13.805  12.968  -3.576  0.00  0.00    +0.000 A 
ATOM     31  C   UNL     1     -13.583  13.898  -2.560  0.00  0.00    +0.000 A 
ATOM     32  C   UNL     1     -13.873  13.598  -1.240  0.00  0.00    +0.000 A 
ENDROOT
BRANCH   5  33
ATOM     33  N   UNL     1     -17.729  11.083  -7.587  0.00  0.00    +0.000 N 
ATOM     34  C   UNL     1     -18.859  11.235  -6.696  0.00  0.00    +0.000 C 
ATOM     35  H   UNL     1     -17.947  10.752  -8.529  0.00  0.00    +0.000 HD
ENDBRANCH   5  33
BRANCH   3  36
ATOM     36  O   UNL     1     -15.662  12.597  -6.071  0.00  0.00    +0.000 OA
ATOM     37  C   UNL     1     -15.326  13.450  -7.133  0.00  0.00    +0.000 C 
ENDBRANCH   3  36
TORSDOF 2
ENDMDL
MODEL 3
REMARK VINA RESULT:      -7.1      1.888      5.705
REMARK  Name = Staurosporine.pdbqt.pdb
REMARK  2 active torsions:
REMARK  status: ('A' for Active; 'I' for Inactive)
REMARK    1  A    between atoms: C_3  and  O_11
REMARK    2  A    between atoms: C_5  and  N_8
REMARK                            x       y       z     vdW  Elec       q    Type
REMARK                         _______ _______ _______ _____ _____    ______ ____
ROOT
ATOM      1  O   UNL     1     -15.518   5.791  -3.740  0.00  0.00    +0.000 OA
ATOM      2  C   UNL     1     -15.883   6.291  -5.055  0.00  0.00    +0.000 C 
ATOM      3  C   UNL     1     -17.374   6.136  -5.419  0.00  0.00    +0.000 C 
ATOM      4  C   UNL     1     -16.351   6.245  -2.730  0.00  0.00    +0.000 C 
ATOM      5  C   UNL     1     -18.348   6.010  -4.337  0.00  0.00    +0.000 C 
ATOM      6  C   UNL     1     -17.701   6.045  -3.088  0.00  0.00    +0.000 C 
ATOM      7  C   UNL     1     -15.079   5.362  -6.027  0.00  0.00    +0.000 C 
ATOM      8  N   UNL     1     -15.424   7.696  -5.136  0.00  0.00    +0.000 N 
ATOM      9  C   UNL     1     -15.179   8.631  -4.162  0.00  0.00    +0.000 A 
ATOM     10  C   UNL     1     -15.429   8.525  -2.790  0.00  0.00    +0.000 A 
ATOM     11  C   UNL     1     -14.684   9.887  -4.540  0.00  0.00    +0.000 A 
ATOM     12  N   UNL     1     -16.014   7.461  -2.175  0.00  0.00    +0.000 N 
ATOM     13  C   UNL     1     -15.179   9.689  -2.048  0.00  0.00    +0.000 A 
ATOM     14  C   UNL     1     -16.256   8.010  -0.899  0.00  0.00    +0.000 A 
ATOM     15  C   UNL     1     -15.721   9.346  -0.790  0.00  0.00    +0.000 A 
ATOM     16  C   UNL     1     -16.893   7.401   0.194  0.00  0.00    +0.000 A 
ATOM     17  C   UNL     1     -15.871  10.019   0.439  0.00  0.00    +0.000 A 
ATOM     18  C   UNL     1     -16.507   9.397   1.513  0.00  0.00    +0.000 A 
ATOM     19  C   UNL     1     -17.009   8.111   1.388  0.00  0.00    +0.000 A 
ATOM     20  C   UNL     1     -14.672  10.951  -2.416  0.00  0.00    +0.000 A 
ATOM     21  C   UNL     1     -14.391  11.045  -3.808  0.00  0.00    +0.000 A 
ATOM     22  C   UNL     1     -14.394  12.206  -1.758  0.00  0.00    +0.000 C 
ATOM     23  C   UNL     1     -13.907  12.430  -4.054  0.00  0.00    +0.000 C 
ATOM     24  N   UNL     1     -13.950  12.996  -2.828  0.00  0.00    +0.000 N 
ATOM     25  H   UNL     1     -13.671  13.953  -2.666  0.00  0.00    +0.000 HD
ATOM     26  O   UNL     1     -14.478  12.596  -0.603  0.00  0.00    +0.000 OA
ATOM     27  C   UNL     1     -14.619   9.776  -5.938  0.00  0.00    +0.000 A 
ATOM     28  C   UNL     1     -15.085   8.455  -6.290  0.00  0.00    +0.000 A 
ATOM     29  C   UNL     1     -14.240  10.654  -6.974  0.00  0.00    +0.000 A 
ATOM     30  C   UNL     1     -15.143   8.077  -7.642  0.00  0.00    +0.000 A 
ATOM     31  C   UNL     1     -14.754   8.979  -8.632  0.00  0.00    +0.000 A 
ATOM     32  C   UNL     1     -14.307  10.249  -8.306  0.00  0.00    +0.000 A 
ENDROOT
BRANCH   5  33
ATOM     33  N   UNL     1     -19.756   6.069  -4.522  0.00  0.00    +0.000 N 
ATOM     34  C   UNL     1     -20.405   4.790  -4.708  0.00  0.00    +0.000 C 
ATOM     35  H   UNL     1     -20.080   6.825  -5.129  0.00  0.00    +0.000 HD
ENDBRANCH   5  33
BRANCH   3  36
ATOM     36  O   UNL     1     -17.748   6.652  -6.641  0.00  0.00    +0.000 OA
ATOM     37  C   UNL     1     -18.097   5.643  -7.549  0.00  0.00    +0.000 C 
ENDBRANCH   3  36
TORSDOF 2
ENDMDL
MODEL 4
REMARK VINA RESULT:      -7.1      1.822      7.386
REMARK  Name = Staurosporine.pdbqt.pdb
REMARK  2 active torsions:
REMARK  status: ('A' for Active; 'I' for Inactive)
REMARK    1  A    between atoms: C_3  and  O_11
REMARK    2  A    between atoms: C_5  and  N_8
REMARK                            x       y       z     vdW  Elec       q    Type
REMARK                         _______ _______ _______ _____ _____    ______ ____
ROOT
ATOM      1  O   UNL     1     -15.299  12.120  -5.257  0.00  0.00    +0.000 OA
ATOM      2  C   UNL     1     -14.297  11.818  -6.266  0.00  0.00    +0.000 C 
ATOM      3  C   UNL     1     -12.940  12.522  -6.066  0.00  0.00    +0.000 C 
ATOM      4  C   UNL     1     -14.829  11.989  -3.961  0.00  0.00    +0.000 C 
ATOM      5  C   UNL     1     -12.581  12.981  -4.727  0.00  0.00    +0.000 C 
ATOM      6  C   UNL     1     -13.610  12.683  -3.814  0.00  0.00    +0.000 C 
ATOM      7  C   UNL     1     -14.923  12.400  -7.578  0.00  0.00    +0.000 C 
ATOM      8  N   UNL     1     -14.165  10.344  -6.330  0.00  0.00    +0.000 N 
ATOM      9  C   UNL     1     -14.429   9.366  -5.404  0.00  0.00    +0.000 A 
ATOM     10  C   UNL     1     -14.793   9.530  -4.064  0.00  0.00    +0.000 A 
ATOM     11  C   UNL     1     -14.264   8.024  -5.772  0.00  0.00    +0.000 A 
ATOM     12  N   UNL     1     -14.909  10.723  -3.418  0.00  0.00    +0.000 N 
ATOM     13  C   UNL     1     -14.891   8.343  -3.324  0.00  0.00    +0.000 A 
ATOM     14  C   UNL     1     -15.013  10.279  -2.085  0.00  0.00    +0.000 A 
ATOM     15  C   UNL     1     -15.044   8.838  -2.010  0.00  0.00    +0.000 A 
ATOM     16  C   UNL     1     -15.114  11.060  -0.921  0.00  0.00    +0.000 A 
ATOM     17  C   UNL     1     -15.164   8.245  -0.737  0.00  0.00    +0.000 A 
ATOM     18  C   UNL     1     -15.263   9.037   0.406  0.00  0.00    +0.000 A 
ATOM     19  C   UNL     1     -15.236  10.421   0.312  0.00  0.00    +0.000 A 
ATOM     20  C   UNL     1     -14.737   6.990  -3.687  0.00  0.00    +0.000 A 
ATOM     21  C   UNL     1     -14.396   6.826  -5.058  0.00  0.00    +0.000 A 
ATOM     22  C   UNL     1     -14.794   5.709  -3.023  0.00  0.00    +0.000 C 
ATOM     23  C   UNL     1     -14.227   5.365  -5.285  0.00  0.00    +0.000 C 
ATOM     24  N   UNL     1     -14.475   4.832  -4.069  0.00  0.00    +0.000 N 
ATOM     25  H   UNL     1     -14.441   3.837  -3.900  0.00  0.00    +0.000 HD
ATOM     26  O   UNL     1     -15.039   5.355  -1.879  0.00  0.00    +0.000 OA
ATOM     27  C   UNL     1     -13.807   8.131  -7.096  0.00  0.00    +0.000 A 
ATOM     28  C   UNL     1     -13.735   9.536  -7.418  0.00  0.00    +0.000 A 
ATOM     29  C   UNL     1     -13.417   7.195  -8.076  0.00  0.00    +0.000 A 
ATOM     30  C   UNL     1     -13.286   9.936  -8.688  0.00  0.00    +0.000 A 
ATOM     31  C   UNL     1     -12.912   8.973  -9.626  0.00  0.00    +0.000 A 
ATOM     32  C   UNL     1     -12.977   7.622  -9.328  0.00  0.00    +0.000 A 
ENDROOT
BRANCH   5  33
ATOM     33  N   UNL     1     -11.290  13.453  -4.365  0.00  0.00    +0.000 N 
ATOM     34  C   UNL     1     -11.029  14.838  -4.692  0.00  0.00    +0.000 C 
ATOM     35  H   UNL     1     -10.524  12.801  -4.550  0.00  0.00    +0.000 HD
ENDBRANCH   5  33
BRANCH   3  36
ATOM     36  O   UNL     1     -11.961  12.207  -6.984  0.00  0.00    +0.000 OA
ATOM     37  C   UNL     1     -11.714  13.266  -7.870  0.00  0.00    +0.000 C 
ENDBRANCH   3  36
TORSDOF 2
ENDMDL
MODEL 5
REMARK VINA RESULT:      -7.0      2.199      5.489
REMARK  Name = Staurosporine.pdbqt.pdb
REMARK  2 active torsions:
REMARK  status: ('A' for Active; 'I' for Inactive)
REMARK    1  A    between atoms: C_3  and  O_11
REMARK    2  A    between atoms: C_5  and  N_8
REMARK                            x       y       z     vdW  Elec       q    Type
REMARK                         _______ _______ _______ _____ _____    ______ ____
ROOT
ATOM      1  O   UNL     1     -14.447  10.570  -7.126  0.00  0.00    +0.000 OA
ATOM      2  C   UNL     1     -13.897   9.231  -7.261  0.00  0.00    +0.000 C 
ATOM      3  C   UNL     1     -12.385   9.176  -7.558  0.00  0.00    +0.000 C 
ATOM      4  C   UNL     1     -13.717  11.378  -6.270  0.00  0.00    +0.000 C 
ATOM      5  C   UNL     1     -11.558  10.322  -7.190  0.00  0.00    +0.000 C 
ATOM      6  C   UNL     1     -12.347  11.329  -6.605  0.00  0.00    +0.000 C 
ATOM      7  C   UNL     1     -14.630   8.670  -8.526  0.00  0.00    +0.000 C 
ATOM      8  N   UNL     1     -14.261   8.479  -6.039  0.00  0.00    +0.000 N 
ATOM      9  C   UNL     1     -14.568   8.899  -4.769  0.00  0.00    +0.000 A 
ATOM     10  C   UNL     1     -14.492  10.197  -4.254  0.00  0.00    +0.000 A 
ATOM     11  C   UNL     1     -14.940   7.945  -3.813  0.00  0.00    +0.000 A 
ATOM     12  N   UNL     1     -14.048  11.291  -4.933  0.00  0.00    +0.000 N 
ATOM     13  C   UNL     1     -14.762  10.311  -2.883  0.00  0.00    +0.000 A 
ATOM     14  C   UNL     1     -13.930  12.214  -3.875  0.00  0.00    +0.000 A 
ATOM     15  C   UNL     1     -14.397  11.651  -2.630  0.00  0.00    +0.000 A 
ATOM     16  C   UNL     1     -13.467  13.538  -3.935  0.00  0.00    +0.000 A 
ATOM     17  C   UNL     1     -14.357  12.467  -1.482  0.00  0.00    +0.000 A 
ATOM     18  C   UNL     1     -13.894  13.779  -1.561  0.00  0.00    +0.000 A 
ATOM     19  C   UNL     1     -13.455  14.302  -2.768  0.00  0.00    +0.000 A 
ATOM     20  C   UNL     1     -15.147   9.361  -1.916  0.00  0.00    +0.000 A 
ATOM     21  C   UNL     1     -15.252   8.046  -2.450  0.00  0.00    +0.000 A 
ATOM     22  C   UNL     1     -15.430   9.356  -0.500  0.00  0.00    +0.000 C 
ATOM     23  C   UNL     1     -15.622   7.153  -1.319  0.00  0.00    +0.000 C 
ATOM     24  N   UNL     1     -15.695   7.999  -0.268  0.00  0.00    +0.000 N 
ATOM     25  H   UNL     1     -15.935   7.684   0.661  0.00  0.00    +0.000 HD
ATOM     26  O   UNL     1     -15.463  10.221   0.363  0.00  0.00    +0.000 OA
ATOM     27  C   UNL     1     -14.841   6.744  -4.533  0.00  0.00    +0.000 A 
ATOM     28  C   UNL     1     -14.414   7.075  -5.871  0.00  0.00    +0.000 A 
ATOM     29  C   UNL     1     -15.042   5.386  -4.207  0.00  0.00    +0.000 A 
ATOM     30  C   UNL     1     -14.215   6.049  -6.811  0.00  0.00    +0.000 A 
ATOM     31  C   UNL     1     -14.429   4.720  -6.442  0.00  0.00    +0.000 A 
ATOM     32  C   UNL     1     -14.838   4.392  -5.160  0.00  0.00    +0.000 A 
ENDROOT
BRANCH   5  33
ATOM     33  N   UNL     1     -10.136  10.321  -7.216  0.00  0.00    +0.000 N 
ATOM     34  C   UNL     1      -9.509  11.408  -6.497  0.00  0.00    +0.000 C 
ATOM     35  H   UNL     1      -9.721  10.088  -8.121  0.00  0.00    +0.000 HD
ENDBRANCH   5  33
BRANCH   3  36
ATOM     36  O   UNL     1     -11.837   7.914  -7.638  0.00  0.00    +0.000 OA
ATOM     37  C   UNL     1     -11.351   7.635  -8.924  0.00  0.00    +0.000 C 
ENDBRANCH   3  36
TORSDOF 2
ENDMDL
MODEL 6
REMARK VINA RESULT:      -6.9     20.643     24.612
REMARK  Name = Staurosporine.pdbqt.pdb
REMARK  2 active torsions:
REMARK  status: ('A' for Active; 'I' for Inactive)
REMARK    1  A    between atoms: C_3  and  O_11
REMARK    2  A    between atoms: C_5  and  N_8
REMARK                            x       y       z     vdW  Elec       q    Type
REMARK                         _______ _______ _______ _____ _____    ______ ____
ROOT
ATOM      1  O   UNL     1     -10.973   5.399  17.158  0.00  0.00    +0.000 OA
ATOM      2  C   UNL     1      -9.539   5.273  16.955  0.00  0.00    +0.000 C 
ATOM      3  C   UNL     1      -8.691   6.393  17.590  0.00  0.00    +0.000 C 
ATOM      4  C   UNL     1     -11.321   5.632  18.479  0.00  0.00    +0.000 C 
ATOM      5  C   UNL     1      -9.254   7.149  18.707  0.00  0.00    +0.000 C 
ATOM      6  C   UNL     1     -10.550   6.690  19.005  0.00  0.00    +0.000 C 
ATOM      7  C   UNL     1      -9.384   5.410  15.403  0.00  0.00    +0.000 C 
ATOM      8  N   UNL     1      -9.143   3.926  17.428  0.00  0.00    +0.000 N 
ATOM      9  C   UNL     1      -9.719   3.076  18.337  0.00  0.00    +0.000 A 
ATOM     10  C   UNL     1     -10.810   3.328  19.176  0.00  0.00    +0.000 A 
ATOM     11  C   UNL     1      -9.143   1.814  18.542  0.00  0.00    +0.000 A 
ATOM     12  N   UNL     1     -11.479   4.510  19.265  0.00  0.00    +0.000 N 
ATOM     13  C   UNL     1     -11.110   2.304  20.086  0.00  0.00    +0.000 A 
ATOM     14  C   UNL     1     -12.253   4.274  20.419  0.00  0.00    +0.000 A 
ATOM     15  C   UNL     1     -12.073   2.928  20.909  0.00  0.00    +0.000 A 
ATOM     16  C   UNL     1     -13.138   5.157  21.058  0.00  0.00    +0.000 A 
ATOM     17  C   UNL     1     -12.800   2.539  22.051  0.00  0.00    +0.000 A 
ATOM     18  C   UNL     1     -13.673   3.430  22.672  0.00  0.00    +0.000 A 
ATOM     19  C   UNL     1     -13.836   4.718  22.183  0.00  0.00    +0.000 A 
ATOM     20  C   UNL     1     -10.544   1.030  20.292  0.00  0.00    +0.000 A 
ATOM     21  C   UNL     1      -9.454   0.766  19.418  0.00  0.00    +0.000 A 
ATOM     22  C   UNL     1     -10.752  -0.081  21.192  0.00  0.00    +0.000 C 
ATOM     23  C   UNL     1      -8.937  -0.583  19.774  0.00  0.00    +0.000 C 
ATOM     24  N   UNL     1      -9.743  -0.966  20.788  0.00  0.00    +0.000 N 
ATOM     25  H   UNL     1      -9.643  -1.859  21.248  0.00  0.00    +0.000 HD
ATOM     26  O   UNL     1     -11.546  -0.306  22.094  0.00  0.00    +0.000 OA
ATOM     27  C   UNL     1      -8.035   1.847  17.680  0.00  0.00    +0.000 A 
ATOM     28  C   UNL     1      -8.034   3.133  17.025  0.00  0.00    +0.000 A 
ATOM     29  C   UNL     1      -6.997   0.940  17.383  0.00  0.00    +0.000 A 
ATOM     30  C   UNL     1      -7.012   3.447  16.112  0.00  0.00    +0.000 A 
ATOM     31  C   UNL     1      -6.008   2.515  15.848  0.00  0.00    +0.000 A 
ATOM     32  C   UNL     1      -5.999   1.278  16.472  0.00  0.00    +0.000 A 
ENDROOT
BRANCH   5  33
ATOM     33  N   UNL     1      -8.511   8.056  19.510  0.00  0.00    +0.000 N 
ATOM     34  C   UNL     1      -9.001   8.222  20.861  0.00  0.00    +0.000 C 
ATOM     35  H   UNL     1      -8.218   8.913  19.035  0.00  0.00    +0.000 HD
ENDBRANCH   5  33
BRANCH   3  36
ATOM     36  O   UNL     1      -7.326   6.261  17.452  0.00  0.00    +0.000 OA
ATOM     37  C   UNL     1      -6.777   7.292  16.675  0.00  0.00    +0.000 C 
ENDBRANCH   3  36
TORSDOF 2
ENDMDL
MODEL 7
REMARK VINA RESULT:      -6.7      9.961     13.097
REMARK  Name = Staurosporine.pdbqt.pdb
REMARK  2 active torsions:
REMARK  status: ('A' for Active; 'I' for Inactive)
REMARK    1  A    between atoms: C_3  and  O_11
REMARK    2  A    between atoms: C_5  and  N_8
REMARK                            x       y       z     vdW  Elec       q    Type
REMARK                         _______ _______ _______ _____ _____    ______ ____
ROOT
ATOM      1  O   UNL     1      -4.990  14.575   1.755  0.00  0.00    +0.000 OA
ATOM      2  C   UNL     1      -4.288  15.774   2.181  0.00  0.00    +0.000 C 
ATOM      3  C   UNL     1      -2.797  15.828   1.792  0.00  0.00    +0.000 C 
ATOM      4  C   UNL     1      -4.787  14.266   0.420  0.00  0.00    +0.000 C 
ATOM      5  C   UNL     1      -2.338  15.017   0.667  0.00  0.00    +0.000 C 
ATOM      6  C   UNL     1      -3.409  14.286   0.120  0.00  0.00    +0.000 C 
ATOM      7  C   UNL     1      -4.348  15.688   3.744  0.00  0.00    +0.000 C 
ATOM      8  N   UNL     1      -5.049  16.936   1.668  0.00  0.00    +0.000 N 
ATOM      9  C   UNL     1      -5.909  17.064   0.607  0.00  0.00    +0.000 A 
ATOM     10  C   UNL     1      -6.205  16.114  -0.376  0.00  0.00    +0.000 A 
ATOM     11  C   UNL     1      -6.542  18.296   0.394  0.00  0.00    +0.000 A 
ATOM     12  N   UNL     1      -5.641  14.878  -0.474  0.00  0.00    +0.000 N 
ATOM     13  C   UNL     1      -7.042  16.564  -1.408  0.00  0.00    +0.000 A 
ATOM     14  C   UNL     1      -6.087  14.499  -1.756  0.00  0.00    +0.000 A 
ATOM     15  C   UNL     1      -6.971  15.490  -2.322  0.00  0.00    +0.000 A 
ATOM     16  C   UNL     1      -5.795  13.317  -2.455  0.00  0.00    +0.000 A 
ATOM     17  C   UNL     1      -7.513  15.239  -3.598  0.00  0.00    +0.000 A 
ATOM     18  C   UNL     1      -7.210  14.061  -4.276  0.00  0.00    +0.000 A 
ATOM     19  C   UNL     1      -6.363  13.118  -3.713  0.00  0.00    +0.000 A 
ATOM     20  C   UNL     1      -7.690  17.796  -1.625  0.00  0.00    +0.000 A 
ATOM     21  C   UNL     1      -7.411  18.750  -0.608  0.00  0.00    +0.000 A 
ATOM     22  C   UNL     1      -8.544  18.372  -2.638  0.00  0.00    +0.000 C 
ATOM     23  C   UNL     1      -8.122  20.001  -0.987  0.00  0.00    +0.000 C 
ATOM     24  N   UNL     1      -8.728  19.673  -2.149  0.00  0.00    +0.000 N 
ATOM     25  H   UNL     1      -9.302  20.327  -2.661  0.00  0.00    +0.000 HD
ATOM     26  O   UNL     1      -9.036  17.950  -3.674  0.00  0.00    +0.000 OA
ATOM     27  C   UNL     1      -6.013  19.087   1.426  0.00  0.00    +0.000 A 
ATOM     28  C   UNL     1      -5.099  18.262   2.180  0.00  0.00    +0.000 A 
ATOM     29  C   UNL     1      -6.179  20.434   1.812  0.00  0.00    +0.000 A 
ATOM     30  C   UNL     1      -4.407  18.812   3.272  0.00  0.00    +0.000 A 
ATOM     31  C   UNL     1      -4.606  20.148   3.618  0.00  0.00    +0.000 A 
ATOM     32  C   UNL     1      -5.480  20.949   2.901  0.00  0.00    +0.000 A 
ENDROOT
BRANCH   5  33
ATOM     33  N   UNL     1      -1.049  15.129   0.077  0.00  0.00    +0.000 N 
ATOM     34  C   UNL     1      -0.074  14.170   0.548  0.00  0.00    +0.000 C 
ATOM     35  H   UNL     1      -0.710  16.086  -0.042  0.00  0.00    +0.000 HD
ENDBRANCH   5  33
BRANCH   3  36
ATOM     36  O   UNL     1      -2.129  16.982   2.142  0.00  0.00    +0.000 OA
ATOM     37  C   UNL     1      -1.138  16.740   3.105  0.00  0.00    +0.000 C 
ENDBRANCH   3  36
TORSDOF 2
ENDMDL
MODEL 8
REMARK VINA RESULT:      -6.7     20.680     23.603
REMARK  Name = Staurosporine.pdbqt.pdb
REMARK  2 active torsions:
REMARK  status: ('A' for Active; 'I' for Inactive)
REMARK    1  A    between atoms: C_3  and  O_11
REMARK    2  A    between atoms: C_5  and  N_8
REMARK                            x       y       z     vdW  Elec       q    Type
REMARK                         _______ _______ _______ _____ _____    ______ ____
ROOT
ATOM      1  O   UNL     1      -8.722   7.222  16.227  0.00  0.00    +0.000 OA
ATOM      2  C   UNL     1      -8.750   5.822  16.620  0.00  0.00    +0.000 C 
ATOM      3  C   UNL     1      -7.398   5.088  16.506  0.00  0.00    +0.000 C 
ATOM      4  C   UNL     1      -7.690   7.935  16.813  0.00  0.00    +0.000 C 
ATOM      5  C   UNL     1      -6.169   5.878  16.529  0.00  0.00    +0.000 C 
ATOM      6  C   UNL     1      -6.469   7.248  16.649  0.00  0.00    +0.000 C 
ATOM      7  C   UNL     1      -9.710   5.174  15.565  0.00  0.00    +0.000 C 
ATOM      8  N   UNL     1      -9.315   5.759  17.987  0.00  0.00    +0.000 N 
ATOM      9  C   UNL     1      -9.365   6.688  18.995  0.00  0.00    +0.000 A 
ATOM     10  C   UNL     1      -8.759   7.948  19.030  0.00  0.00    +0.000 A 
ATOM     11  C   UNL     1     -10.031   6.361  20.184  0.00  0.00    +0.000 A 
ATOM     12  N   UNL     1      -7.958   8.466  18.058  0.00  0.00    +0.000 N 
ATOM     13  C   UNL     1      -8.891   8.639  20.243  0.00  0.00    +0.000 A 
ATOM     14  C   UNL     1      -7.432   9.585  18.734  0.00  0.00    +0.000 A 
ATOM     15  C   UNL     1      -8.016   9.730  20.046  0.00  0.00    +0.000 A 
ATOM     16  C   UNL     1      -6.490  10.513  18.262  0.00  0.00    +0.000 A 
ATOM     17  C   UNL     1      -7.600  10.819  20.837  0.00  0.00    +0.000 A 
ATOM     18  C   UNL     1      -6.663  11.730  20.351  0.00  0.00    +0.000 A 
ATOM     19  C   UNL     1      -6.118  11.575  19.085  0.00  0.00    +0.000 A 
ATOM     20  C   UNL     1      -9.566   8.324  21.439  0.00  0.00    +0.000 A 
ATOM     21  C   UNL     1     -10.206   7.054  21.389  0.00  0.00    +0.000 A 
ATOM     22  C   UNL     1      -9.754   8.934  22.735  0.00  0.00    +0.000 C 
ATOM     23  C   UNL     1     -10.837   6.840  22.719  0.00  0.00    +0.000 C 
ATOM     24  N   UNL     1     -10.517   7.963  23.398  0.00  0.00    +0.000 N 
ATOM     25  H   UNL     1     -10.812   8.120  24.351  0.00  0.00    +0.000 HD
ATOM     26  O   UNL     1      -9.399   9.992  23.234  0.00  0.00    +0.000 OA
ATOM     27  C   UNL     1     -10.449   5.043  19.940  0.00  0.00    +0.000 A 
ATOM     28  C   UNL     1      -9.998   4.682  18.618  0.00  0.00    +0.000 A 
ATOM     29  C   UNL     1     -11.149   4.081  20.698  0.00  0.00    +0.000 A 
ATOM     30  C   UNL     1     -10.266   3.396  18.118  0.00  0.00    +0.000 A 
ATOM     31  C   UNL     1     -10.964   2.479  18.904  0.00  0.00    +0.000 A 
ATOM     32  C   UNL     1     -11.402   2.815  20.175  0.00  0.00    +0.000 A 
ENDROOT
BRANCH   5  33
ATOM     33  N   UNL     1      -4.866   5.322  16.642  0.00  0.00    +0.000 N 
ATOM     34  C   UNL     1      -4.138   5.208  15.397  0.00  0.00    +0.000 C 
ATOM     35  H   UNL     1      -4.791   4.523  17.276  0.00  0.00    +0.000 HD
ENDBRANCH   5  33
BRANCH   3  36
ATOM     36  O   UNL     1      -7.394   3.775  16.925  0.00  0.00    +0.000 OA
ATOM     37  C   UNL     1      -7.007   2.901  15.898  0.00  0.00    +0.000 C 
ENDBRANCH   3  36
TORSDOF 2
ENDMDL
MODEL 9
REMARK VINA RESULT:      -6.5     21.378     24.284
REMARK  Name = Staurosporine.pdbqt.pdb
REMARK  2 active torsions:
REMARK  status: ('A' for Active; 'I' for Inactive)
REMARK    1  A    between atoms: C_3  and  O_11
REMARK    2  A    between atoms: C_5  and  N_8
REMARK                            x       y       z     vdW  Elec       q    Type
REMARK                         _______ _______ _______ _____ _____    ______ ____
ROOT
ATOM      1  O   UNL     1      -7.284   9.578  18.108  0.00  0.00    +0.000 OA
ATOM      2  C   UNL     1      -6.292   8.649  17.593  0.00  0.00    +0.000 C 
ATOM      3  C   UNL     1      -5.020   8.512  18.454  0.00  0.00    +0.000 C 
ATOM      4  C   UNL     1      -7.580   9.378  19.446  0.00  0.00    +0.000 C 
ATOM      5  C   UNL     1      -5.093   8.866  19.870  0.00  0.00    +0.000 C 
ATOM      6  C   UNL     1      -6.390   9.301  20.200  0.00  0.00    +0.000 C 
ATOM      7  C   UNL     1      -5.856   9.306  16.239  0.00  0.00    +0.000 C 
ATOM      8  N   UNL     1      -6.972   7.351  17.378  0.00  0.00    +0.000 N 
ATOM      9  C   UNL     1      -8.096   6.807  17.947  0.00  0.00    +0.000 A 
ATOM     10  C   UNL     1      -8.848   7.315  19.012  0.00  0.00    +0.000 A 
ATOM     11  C   UNL     1      -8.548   5.561  17.494  0.00  0.00    +0.000 A 
ATOM     12  N   UNL     1      -8.562   8.446  19.712  0.00  0.00    +0.000 N 
ATOM     13  C   UNL     1      -9.886   6.483  19.457  0.00  0.00    +0.000 A 
ATOM     14  C   UNL     1      -9.456   8.307  20.792  0.00  0.00    +0.000 A 
ATOM     15  C   UNL     1     -10.296   7.144  20.635  0.00  0.00    +0.000 A 
ATOM     16  C   UNL     1      -9.608   9.157  21.900  0.00  0.00    +0.000 A 
ATOM     17  C   UNL     1     -11.256   6.884  21.633  0.00  0.00    +0.000 A 
ATOM     18  C   UNL     1     -11.391   7.739  22.725  0.00  0.00    +0.000 A 
ATOM     19  C   UNL     1     -10.577   8.855  22.855  0.00  0.00    +0.000 A 
ATOM     20  C   UNL     1     -10.354   5.234  19.001  0.00  0.00    +0.000 A 
ATOM     21  C   UNL     1      -9.605   4.735  17.900  0.00  0.00    +0.000 A 
ATOM     22  C   UNL     1     -11.381   4.292  19.383  0.00  0.00    +0.000 C 
ATOM     23  C   UNL     1     -10.180   3.407  17.557  0.00  0.00    +0.000 C 
ATOM     24  N   UNL     1     -11.176   3.259  18.458  0.00  0.00    +0.000 N 
ATOM     25  H   UNL     1     -11.767   2.440  18.479  0.00  0.00    +0.000 HD
ATOM     26  O   UNL     1     -12.245   4.282  20.247  0.00  0.00    +0.000 OA
ATOM     27  C   UNL     1      -7.588   5.229  16.524  0.00  0.00    +0.000 A 
ATOM     28  C   UNL     1      -6.632   6.308  16.473  0.00  0.00    +0.000 A 
ATOM     29  C   UNL     1      -7.393   4.115  15.680  0.00  0.00    +0.000 A 
ATOM     30  C   UNL     1      -5.541   6.229  15.590  0.00  0.00    +0.000 A 
ATOM     31  C   UNL     1      -5.391   5.108  14.773  0.00  0.00    +0.000 A 
ATOM     32  C   UNL     1      -6.302   4.067  14.814  0.00  0.00    +0.000 A 
ENDROOT
BRANCH   5  33
ATOM     33  N   UNL     1      -4.065   8.593  20.813  0.00  0.00    +0.000 N 
ATOM     34  C   UNL     1      -3.915   9.581  21.859  0.00  0.00    +0.000 C 
ATOM     35  H   UNL     1      -3.196   8.234  20.413  0.00  0.00    +0.000 HD
ENDBRANCH   5  33
BRANCH   3  36
ATOM     36  O   UNL     1      -4.092   7.596  18.008  0.00  0.00    +0.000 OA
ATOM     37  C   UNL     1      -2.901   8.216  17.600  0.00  0.00    +0.000 C 
ENDBRANCH   3  36
TORSDOF 2
ENDMDL
