MODEL 1
REMARK VINA RESULT:      -6.9      0.000      0.000
REMARK  Name = Testosterone.pdbqt.pdb
REMARK  1 active torsions:
REMARK  status: ('A' for Active; 'I' for Inactive)
REMARK    1  A    between atoms: C_9  and  O_21
REMARK                            x       y       z     vdW  Elec       q    Type
REMARK                         _______ _______ _______ _____ _____    ______ ____
ROOT
ATOM      1  O   UNL     1      -9.913  12.872  -6.372  0.00  0.00    +0.000 OA
ATOM      2  C   UNL     1     -15.531   9.604  -2.326  0.00  0.00    +0.000 C 
ATOM      3  C   UNL     1     -15.903  10.089  -0.845  0.00  0.00    +0.000 C 
ATOM      4  C   UNL     1     -14.922  10.522  -3.310  0.00  0.00    +0.000 C 
ATOM      5  C   UNL     1     -14.298  11.856  -3.008  0.00  0.00    +0.000 C 
ATOM      6  C   UNL     1     -13.755  12.819  -4.087  0.00  0.00    +0.000 C 
ATOM      7  C   UNL     1     -15.118  11.304  -0.615  0.00  0.00    +0.000 C 
ATOM      8  C   UNL     1     -14.384  12.157  -1.620  0.00  0.00    +0.000 C 
ATOM      9  C   UNL     1     -15.441   8.914   0.050  0.00  0.00    +0.000 C 
ATOM     10  C   UNL     1     -15.033   8.266  -2.205  0.00  0.00    +0.000 C 
ATOM     11  C   UNL     1     -14.738  10.130  -4.656  0.00  0.00    +0.000 C 
ATOM     12  C   UNL     1     -14.925   7.862  -0.755  0.00  0.00    +0.000 C 
ATOM     13  C   UNL     1     -13.410  12.119  -5.547  0.00  0.00    +0.000 C 
ATOM     14  C   UNL     1     -14.026  10.860  -5.754  0.00  0.00    +0.000 C 
ATOM     15  C   UNL     1     -17.431  10.308  -0.719  0.00  0.00    +0.000 C 
ATOM     16  C   UNL     1     -12.429  13.381  -3.665  0.00  0.00    +0.000 C 
ATOM     17  C   UNL     1     -14.794  13.942  -4.358  0.00  0.00    +0.000 C 
ATOM     18  C   UNL     1     -11.058  13.474  -4.373  0.00  0.00    +0.000 C 
ATOM     19  C   UNL     1     -12.205  12.306  -6.046  0.00  0.00    +0.000 C 
ATOM     20  C   UNL     1     -10.923  12.898  -5.696  0.00  0.00    +0.000 C 
ENDROOT
BRANCH   9  21
ATOM     21  O   UNL     1     -16.041   8.632   1.263  0.00  0.00    +0.000 OA
ATOM     22  H   UNL     1     -16.522   7.782   1.233  0.00  0.00    +0.000 HD
ENDBRANCH   9  21
TORSDOF 1
ENDMDL
MODEL 2
REMARK VINA RESULT:      -6.5     12.668     14.828
REMARK  Name = Testosterone.pdbqt.pdb
REMARK  1 active torsions:
REMARK  status: ('A' for Active; 'I' for Inactive)
REMARK    1  A    between atoms: C_9  and  O_21
REMARK                            x       y       z     vdW  Elec       q    Type
REMARK                         _______ _______ _______ _____ _____    ______ ____
ROOT
ATOM      1  O   UNL     1     -24.477  13.494  11.023  0.00  0.00    +0.000 OA
ATOM      2  C   UNL     1     -24.516   8.880   4.914  0.00  0.00    +0.000 C 
ATOM      3  C   UNL     1     -25.388   9.206   3.610  0.00  0.00    +0.000 C 
ATOM      4  C   UNL     1     -24.026   9.952   5.804  0.00  0.00    +0.000 C 
ATOM      5  C   UNL     1     -24.502  11.379   5.817  0.00  0.00    +0.000 C 
ATOM      6  C   UNL     1     -23.891  12.483   6.707  0.00  0.00    +0.000 C 
ATOM      7  C   UNL     1     -25.920  10.555   3.813  0.00  0.00    +0.000 C 
ATOM      8  C   UNL     1     -25.498  11.593   4.824  0.00  0.00    +0.000 C 
ATOM      9  C   UNL     1     -26.498   8.128   3.635  0.00  0.00    +0.000 C 
ATOM     10  C   UNL     1     -25.063   7.684   5.483  0.00  0.00    +0.000 C 
ATOM     11  C   UNL     1     -23.132   9.669   6.863  0.00  0.00    +0.000 C 
ATOM     12  C   UNL     1     -26.303   7.254   4.739  0.00  0.00    +0.000 C 
ATOM     13  C   UNL     1     -23.043  11.941   8.022  0.00  0.00    +0.000 C 
ATOM     14  C   UNL     1     -22.638  10.586   7.940  0.00  0.00    +0.000 C 
ATOM     15  C   UNL     1     -24.519   9.071   2.335  0.00  0.00    +0.000 C 
ATOM     16  C   UNL     1     -24.978  13.310   7.330  0.00  0.00    +0.000 C 
ATOM     17  C   UNL     1     -22.918  13.355   5.867  0.00  0.00    +0.000 C 
ATOM     18  C   UNL     1     -25.263  13.738   8.788  0.00  0.00    +0.000 C 
ATOM     19  C   UNL     1     -23.377  12.415   9.204  0.00  0.00    +0.000 C 
ATOM     20  C   UNL     1     -24.378  13.264   9.833  0.00  0.00    +0.000 C 
ENDROOT
BRANCH   9  21
ATOM     21  O   UNL     1     -27.104   7.667   2.480  0.00  0.00    +0.000 OA
ATOM     22  H   UNL     1     -27.551   6.812   2.631  0.00  0.00    +0.000 HD
ENDBRANCH   9  21
TORSDOF 1
ENDMDL
MODEL 3
REMARK VINA RESULT:      -6.5      4.051      7.466
REMARK  Name = Testosterone.pdbqt.pdb
REMARK  1 active torsions:
REMARK  status: ('A' for Active; 'I' for Inactive)
REMARK    1  A    between atoms: C_9  and  O_21
REMARK                            x       y       z     vdW  Elec       q    Type
REMARK                         _______ _______ _______ _____ _____    ______ ____
ROOT
ATOM      1  O   UNL     1     -14.388   0.976  -1.441  0.00  0.00    +0.000 OA
ATOM      2  C   UNL     1     -16.661   8.240  -0.621  0.00  0.00    +0.000 C 
ATOM      3  C   UNL     1     -15.998   9.436  -1.456  0.00  0.00    +0.000 C 
ATOM      4  C   UNL     1     -16.690   6.858  -1.141  0.00  0.00    +0.000 C 
ATOM      5  C   UNL     1     -15.877   6.328  -2.290  0.00  0.00    +0.000 C 
ATOM      6  C   UNL     1     -16.011   4.896  -2.852  0.00  0.00    +0.000 C 
ATOM      7  C   UNL     1     -15.115   8.798  -2.434  0.00  0.00    +0.000 C 
ATOM      8  C   UNL     1     -15.065   7.350  -2.855  0.00  0.00    +0.000 C 
ATOM      9  C   UNL     1     -15.209  10.232  -0.388  0.00  0.00    +0.000 C 
ATOM     10  C   UNL     1     -16.335   8.472   0.755  0.00  0.00    +0.000 C 
ATOM     11  C   UNL     1     -17.409   5.842  -0.471  0.00  0.00    +0.000 C 
ATOM     12  C   UNL     1     -15.406   9.652   0.895  0.00  0.00    +0.000 C 
ATOM     13  C   UNL     1     -16.705   3.797  -1.826  0.00  0.00    +0.000 C 
ATOM     14  C   UNL     1     -17.445   4.373  -0.764  0.00  0.00    +0.000 C 
ATOM     15  C   UNL     1     -17.097  10.318  -2.098  0.00  0.00    +0.000 C 
ATOM     16  C   UNL     1     -14.655   4.305  -3.104  0.00  0.00    +0.000 C 
ATOM     17  C   UNL     1     -16.876   4.918  -4.143  0.00  0.00    +0.000 C 
ATOM     18  C   UNL     1     -14.002   2.966  -2.690  0.00  0.00    +0.000 C 
ATOM     19  C   UNL     1     -16.046   2.683  -1.585  0.00  0.00    +0.000 C 
ATOM     20  C   UNL     1     -14.764   2.052  -1.864  0.00  0.00    +0.000 C 
ENDROOT
BRANCH   9  21
ATOM     21  O   UNL     1     -14.968  11.588  -0.509  0.00  0.00    +0.000 OA
ATOM     22  H   UNL     1     -15.755  12.061  -0.843  0.00  0.00    +0.000 HD
ENDBRANCH   9  21
TORSDOF 1
ENDMDL
MODEL 4
REMARK VINA RESULT:      -6.2      4.106      7.876
REMARK  Name = Testosterone.pdbqt.pdb
REMARK  1 active torsions:
REMARK  status: ('A' for Active; 'I' for Inactive)
REMARK    1  A    between atoms: C_9  and  O_21
REMARK                            x       y       z     vdW  Elec       q    Type
REMARK                         _______ _______ _______ _____ _____    ______ ____
ROOT
ATOM      1  O   UNL     1     -19.845   2.721  -4.537  0.00  0.00    +0.000 OA
ATOM      2  C   UNL     1     -15.183   8.060  -1.643  0.00  0.00    +0.000 C 
ATOM      3  C   UNL     1     -15.722   9.233  -0.694  0.00  0.00    +0.000 C 
ATOM      4  C   UNL     1     -15.869   6.755  -1.724  0.00  0.00    +0.000 C 
ATOM      5  C   UNL     1     -17.255   6.451  -1.226  0.00  0.00    +0.000 C 
ATOM      6  C   UNL     1     -17.892   5.044  -1.254  0.00  0.00    +0.000 C 
ATOM      7  C   UNL     1     -17.120   8.903  -0.407  0.00  0.00    +0.000 C 
ATOM      8  C   UNL     1     -17.844   7.598  -0.625  0.00  0.00    +0.000 C 
ATOM      9  C   UNL     1     -15.588  10.502  -1.570  0.00  0.00    +0.000 C 
ATOM     10  C   UNL     1     -14.714   8.688  -2.842  0.00  0.00    +0.000 C 
ATOM     11  C   UNL     1     -15.303   5.677  -2.443  0.00  0.00    +0.000 C 
ATOM     12  C   UNL     1     -15.009  10.168  -2.824  0.00  0.00    +0.000 C 
ATOM     13  C   UNL     1     -17.204   3.979  -2.319  0.00  0.00    +0.000 C 
ATOM     14  C   UNL     1     -15.903   4.339  -2.750  0.00  0.00    +0.000 C 
ATOM     15  C   UNL     1     -14.841   9.345   0.575  0.00  0.00    +0.000 C 
ATOM     16  C   UNL     1     -19.312   5.124  -1.733  0.00  0.00    +0.000 C 
ATOM     17  C   UNL     1     -17.798   4.398   0.156  0.00  0.00    +0.000 C 
ATOM     18  C   UNL     1     -20.092   4.363  -2.830  0.00  0.00    +0.000 C 
ATOM     19  C   UNL     1     -17.997   3.380  -3.183  0.00  0.00    +0.000 C 
ATOM     20  C   UNL     1     -19.382   3.385  -3.630  0.00  0.00    +0.000 C 
ENDROOT
BRANCH   9  21
ATOM     21  O   UNL     1     -15.389  11.757  -1.023  0.00  0.00    +0.000 OA
ATOM     22  H   UNL     1     -15.883  12.441  -1.516  0.00  0.00    +0.000 HD
ENDBRANCH   9  21
TORSDOF 1
ENDMDL
MODEL 5
REMARK VINA RESULT:      -5.8     20.483     22.911
REMARK  Name = Testosterone.pdbqt.pdb
REMARK  1 active torsions:
REMARK  status: ('A' for Active; 'I' for Inactive)
REMARK    1  A    between atoms: C_9  and  O_21
REMARK                            x       y       z     vdW  Elec       q    Type
REMARK                         _______ _______ _______ _____ _____    ______ ____
ROOT
ATOM      1  O   UNL     1      -9.998   1.409  19.112  0.00  0.00    +0.000 OA
ATOM      2  C   UNL     1      -7.733   8.625  17.922  0.00  0.00    +0.000 C 
ATOM      3  C   UNL     1      -6.330   8.971  17.228  0.00  0.00    +0.000 C 
ATOM      4  C   UNL     1      -8.442   7.360  17.642  0.00  0.00    +0.000 C 
ATOM      5  C   UNL     1      -7.857   6.146  16.975  0.00  0.00    +0.000 C 
ATOM      6  C   UNL     1      -8.668   4.879  16.625  0.00  0.00    +0.000 C 
ATOM      7  C   UNL     1      -5.791   7.693  16.759  0.00  0.00    +0.000 C 
ATOM      8  C   UNL     1      -6.500   6.369  16.610  0.00  0.00    +0.000 C 
ATOM      9  C   UNL     1      -5.492   9.572  18.382  0.00  0.00    +0.000 C 
ATOM     10  C   UNL     1      -7.654   9.109  19.268  0.00  0.00    +0.000 C 
ATOM     11  C   UNL     1      -9.747   7.131  18.137  0.00  0.00    +0.000 C 
ATOM     12  C   UNL     1      -6.273   9.636  19.568  0.00  0.00    +0.000 C 
ATOM     13  C   UNL     1     -10.081   4.691  17.468  0.00  0.00    +0.000 C 
ATOM     14  C   UNL     1     -10.564   5.876  18.075  0.00  0.00    +0.000 C 
ATOM     15  C   UNL     1      -6.532  10.008  16.096  0.00  0.00    +0.000 C 
ATOM     16  C   UNL     1      -7.895   3.646  16.992  0.00  0.00    +0.000 C 
ATOM     17  C   UNL     1      -9.040   4.895  15.117  0.00  0.00    +0.000 C 
ATOM     18  C   UNL     1      -8.257   2.389  17.816  0.00  0.00    +0.000 C 
ATOM     19  C   UNL     1     -10.268   3.552  18.102  0.00  0.00    +0.000 C 
ATOM     20  C   UNL     1      -9.571   2.316  18.423  0.00  0.00    +0.000 C 
ENDROOT
BRANCH   9  21
ATOM     21  O   UNL     1      -4.487  10.495  18.159  0.00  0.00    +0.000 OA
ATOM     22  H   UNL     1      -3.688  10.069  17.793  0.00  0.00    +0.000 HD
ENDBRANCH   9  21
TORSDOF 1
ENDMDL
MODEL 6
REMARK VINA RESULT:      -5.3     13.721     15.159
REMARK  Name = Testosterone.pdbqt.pdb
REMARK  1 active torsions:
REMARK  status: ('A' for Active; 'I' for Inactive)
REMARK    1  A    between atoms: C_9  and  O_21
REMARK                            x       y       z     vdW  Elec       q    Type
REMARK                         _______ _______ _______ _____ _____    ______ ____
ROOT
ATOM      1  O   UNL     1     -19.329  20.462   5.731  0.00  0.00    +0.000 OA
ATOM      2  C   UNL     1     -23.628  14.604   8.143  0.00  0.00    +0.000 C 
ATOM      3  C   UNL     1     -24.203  14.532   9.637  0.00  0.00    +0.000 C 
ATOM      4  C   UNL     1     -23.335  15.895   7.489  0.00  0.00    +0.000 C 
ATOM      5  C   UNL     1     -23.223  17.229   8.174  0.00  0.00    +0.000 C 
ATOM      6  C   UNL     1     -23.004  18.565   7.430  0.00  0.00    +0.000 C 
ATOM      7  C   UNL     1     -23.896  15.827  10.245  0.00  0.00    +0.000 C 
ATOM      8  C   UNL     1     -23.462  17.106   9.571  0.00  0.00    +0.000 C 
ATOM      9  C   UNL     1     -23.399  13.377  10.281  0.00  0.00    +0.000 C 
ATOM     10  C   UNL     1     -22.703  13.517   8.008  0.00  0.00    +0.000 C 
ATOM     11  C   UNL     1     -22.974  15.955   6.123  0.00  0.00    +0.000 C 
ATOM     12  C   UNL     1     -22.521  12.801   9.323  0.00  0.00    +0.000 C 
ATOM     13  C   UNL     1     -22.380  18.427   5.903  0.00  0.00    +0.000 C 
ATOM     14  C   UNL     1     -22.514  17.139   5.328  0.00  0.00    +0.000 C 
ATOM     15  C   UNL     1     -25.716  14.203   9.615  0.00  0.00    +0.000 C 
ATOM     16  C   UNL     1     -21.972  19.392   8.138  0.00  0.00    +0.000 C 
ATOM     17  C   UNL     1     -24.355  19.320   7.301  0.00  0.00    +0.000 C 
ATOM     18  C   UNL     1     -20.690  20.108   7.653  0.00  0.00    +0.000 C 
ATOM     19  C   UNL     1     -21.296  19.119   5.620  0.00  0.00    +0.000 C 
ATOM     20  C   UNL     1     -20.312  19.979   6.260  0.00  0.00    +0.000 C 
ENDROOT
BRANCH   9  21
ATOM     21  O   UNL     1     -23.913  12.605  11.307  0.00  0.00    +0.000 OA
ATOM     22  H   UNL     1     -23.229  12.400  11.974  0.00  0.00    +0.000 HD
ENDBRANCH   9  21
TORSDOF 1
ENDMDL
MODEL 7
REMARK VINA RESULT:      -5.2     20.599     24.384
REMARK  Name = Testosterone.pdbqt.pdb
REMARK  1 active torsions:
REMARK  status: ('A' for Active; 'I' for Inactive)
REMARK    1  A    between atoms: C_9  and  O_21
REMARK                            x       y       z     vdW  Elec       q    Type
REMARK                         _______ _______ _______ _____ _____    ______ ____
ROOT
ATOM      1  O   UNL     1     -10.362   5.370  25.024  0.00  0.00    +0.000 OA
ATOM      2  C   UNL     1      -9.505   6.183  17.460  0.00  0.00    +0.000 C 
ATOM      3  C   UNL     1      -9.414   4.922  16.476  0.00  0.00    +0.000 C 
ATOM      4  C   UNL     1     -10.229   6.110  18.745  0.00  0.00    +0.000 C 
ATOM      5  C   UNL     1     -10.679   4.853  19.437  0.00  0.00    +0.000 C 
ATOM      6  C   UNL     1     -11.514   4.836  20.737  0.00  0.00    +0.000 C 
ATOM      7  C   UNL     1      -9.721   3.751  17.299  0.00  0.00    +0.000 C 
ATOM      8  C   UNL     1     -10.337   3.702  18.676  0.00  0.00    +0.000 C 
ATOM      9  C   UNL     1      -7.942   4.935  16.001  0.00  0.00    +0.000 C 
ATOM     10  C   UNL     1      -8.232   6.840  17.402  0.00  0.00    +0.000 C 
ATOM     11  C   UNL     1     -10.434   7.266  19.533  0.00  0.00    +0.000 C 
ATOM     12  C   UNL     1      -7.261   6.053  16.557  0.00  0.00    +0.000 C 
ATOM     13  C   UNL     1     -11.459   6.231  21.628  0.00  0.00    +0.000 C 
ATOM     14  C   UNL     1     -11.016   7.369  20.910  0.00  0.00    +0.000 C 
ATOM     15  C   UNL     1     -10.380   5.105  15.278  0.00  0.00    +0.000 C 
ATOM     16  C   UNL     1     -10.973   3.811  21.690  0.00  0.00    +0.000 C 
ATOM     17  C   UNL     1     -13.007   4.574  20.398  0.00  0.00    +0.000 C 
ATOM     18  C   UNL     1     -10.567   3.877  23.180  0.00  0.00    +0.000 C 
ATOM     19  C   UNL     1     -11.124   6.133  22.898  0.00  0.00    +0.000 C 
ATOM     20  C   UNL     1     -10.659   5.151  23.866  0.00  0.00    +0.000 C 
ENDROOT
BRANCH   9  21
ATOM     21  O   UNL     1      -7.559   4.428  14.773  0.00  0.00    +0.000 OA
ATOM     22  H   UNL     1      -7.043   3.604  14.874  0.00  0.00    +0.000 HD
ENDBRANCH   9  21
TORSDOF 1
ENDMDL
MODEL 8
REMARK VINA RESULT:      -5.0     21.017     22.745
REMARK  Name = Testosterone.pdbqt.pdb
REMARK  1 active torsions:
REMARK  status: ('A' for Active; 'I' for Inactive)
REMARK    1  A    between atoms: C_9  and  O_21
REMARK                            x       y       z     vdW  Elec       q    Type
REMARK                         _______ _______ _______ _____ _____    ______ ____
ROOT
ATOM      1  O   UNL     1      -6.494   0.540  17.860  0.00  0.00    +0.000 OA
ATOM      2  C   UNL     1      -7.496   8.105  17.242  0.00  0.00    +0.000 C 
ATOM      3  C   UNL     1      -6.262   9.127  17.235  0.00  0.00    +0.000 C 
ATOM      4  C   UNL     1      -7.349   6.712  16.776  0.00  0.00    +0.000 C 
ATOM      5  C   UNL     1      -6.051   5.987  16.549  0.00  0.00    +0.000 C 
ATOM      6  C   UNL     1      -5.951   4.557  15.973  0.00  0.00    +0.000 C 
ATOM      7  C   UNL     1      -5.058   8.297  17.167  0.00  0.00    +0.000 C 
ATOM      8  C   UNL     1      -4.940   6.833  16.822  0.00  0.00    +0.000 C 
ATOM      9  C   UNL     1      -6.391   9.863  18.590  0.00  0.00    +0.000 C 
ATOM     10  C   UNL     1      -8.245   8.377  18.434  0.00  0.00    +0.000 C 
ATOM     11  C   UNL     1      -8.473   5.865  16.642  0.00  0.00    +0.000 C 
ATOM     12  C   UNL     1      -7.545   9.408  19.283  0.00  0.00    +0.000 C 
ATOM     13  C   UNL     1      -7.330   3.649  16.096  0.00  0.00    +0.000 C 
ATOM     14  C   UNL     1      -8.509   4.402  16.319  0.00  0.00    +0.000 C 
ATOM     15  C   UNL     1      -6.394  10.121  16.054  0.00  0.00    +0.000 C 
ATOM     16  C   UNL     1      -4.951   3.751  16.750  0.00  0.00    +0.000 C 
ATOM     17  C   UNL     1      -5.585   4.624  14.465  0.00  0.00    +0.000 C 
ATOM     18  C   UNL     1      -5.022   2.360  17.420  0.00  0.00    +0.000 C 
ATOM     19  C   UNL     1      -7.235   2.467  16.667  0.00  0.00    +0.000 C 
ATOM     20  C   UNL     1      -6.273   1.630  17.369  0.00  0.00    +0.000 C 
ENDROOT
BRANCH   9  21
ATOM     21  O   UNL     1      -5.934  11.156  18.772  0.00  0.00    +0.000 OA
ATOM     22  H   UNL     1      -5.371  11.442  18.026  0.00  0.00    +0.000 HD
ENDBRANCH   9  21
TORSDOF 1
ENDMDL
MODEL 9
REMARK VINA RESULT:      -4.8      5.460      9.460
REMARK  Name = Testosterone.pdbqt.pdb
REMARK  1 active torsions:
REMARK  status: ('A' for Active; 'I' for Inactive)
REMARK    1  A    between atoms: C_9  and  O_21
REMARK                            x       y       z     vdW  Elec       q    Type
REMARK                         _______ _______ _______ _____ _____    ______ ____
ROOT
ATOM      1  O   UNL     1     -14.365  -1.361   0.603  0.00  0.00    +0.000 OA
ATOM      2  C   UNL     1     -16.883   5.533  -1.572  0.00  0.00    +0.000 C 
ATOM      3  C   UNL     1     -15.878   6.719  -1.963  0.00  0.00    +0.000 C 
ATOM      4  C   UNL     1     -16.502   4.115  -1.728  0.00  0.00    +0.000 C 
ATOM      5  C   UNL     1     -15.109   3.592  -1.946  0.00  0.00    +0.000 C 
ATOM      6  C   UNL     1     -14.775   2.104  -2.192  0.00  0.00    +0.000 C 
ATOM      7  C   UNL     1     -14.544   6.118  -1.991  0.00  0.00    +0.000 C 
ATOM      8  C   UNL     1     -14.168   4.657  -2.010  0.00  0.00    +0.000 C 
ATOM      9  C   UNL     1     -16.041   7.731  -0.804  0.00  0.00    +0.000 C 
ATOM     10  C   UNL     1     -17.573   5.955  -0.389  0.00  0.00    +0.000 C 
ATOM     11  C   UNL     1     -17.444   3.081  -1.527  0.00  0.00    +0.000 C 
ATOM     12  C   UNL     1     -17.024   7.268   0.113  0.00  0.00    +0.000 C 
ATOM     13  C   UNL     1     -15.935   1.030  -1.698  0.00  0.00    +0.000 C 
ATOM     14  C   UNL     1     -17.218   1.600  -1.505  0.00  0.00    +0.000 C 
ATOM     15  C   UNL     1     -16.297   7.356  -3.311  0.00  0.00    +0.000 C 
ATOM     16  C   UNL     1     -13.578   1.697  -1.384  0.00  0.00    +0.000 C 
ATOM     17  C   UNL     1     -14.552   1.862  -3.710  0.00  0.00    +0.000 C 
ATOM     18  C   UNL     1     -13.319   0.521  -0.415  0.00  0.00    +0.000 C 
ATOM     19  C   UNL     1     -15.564   0.057  -0.891  0.00  0.00    +0.000 C 
ATOM     20  C   UNL     1     -14.403  -0.403  -0.145  0.00  0.00    +0.000 C 
ENDROOT
BRANCH   9  21
ATOM     21  O   UNL     1     -15.834   9.088  -0.975  0.00  0.00    +0.000 OA
ATOM     22  H   UNL     1     -16.676   9.559  -1.132  0.00  0.00    +0.000 HD
ENDBRANCH   9  21
TORSDOF 1
ENDMDL
