MODEL 1
REMARK VINA RESULT:      -3.2      0.000      0.000
REMARK  Name = Tetrachloroethylene.pdbqt.pdb
REMARK  0 active torsions:
REMARK  status: ('A' for Active; 'I' for Inactive)
REMARK                            x       y       z     vdW  Elec       q    Type
REMARK                         _______ _______ _______ _____ _____    ______ ____
ROOT
ATOM      1 CL   UNL     1     -14.847  10.757  -3.281  0.00  0.00    +0.000 Cl
ATOM      2 CL   UNL     1     -14.422  12.259  -0.804  0.00  0.00    +0.000 Cl
ATOM      3 CL   UNL     1     -15.150   9.636   0.912  0.00  0.00    +0.000 Cl
ATOM      4 CL   UNL     1     -15.575   8.134  -1.565  0.00  0.00    +0.000 Cl
ATOM      5  C   UNL     1     -14.846  10.744  -1.543  0.00  0.00    +0.000 C 
ATOM      6  C   UNL     1     -15.150   9.649  -0.826  0.00  0.00    +0.000 C 
ENDROOT
TORSDOF 0
ENDMDL
MODEL 2
REMARK VINA RESULT:      -3.1      0.674      2.568
REMARK  Name = Tetrachloroethylene.pdbqt.pdb
REMARK  0 active torsions:
REMARK  status: ('A' for Active; 'I' for Inactive)
REMARK                            x       y       z     vdW  Elec       q    Type
REMARK                         _______ _______ _______ _____ _____    ______ ____
ROOT
ATOM      1 CL   UNL     1     -14.724  10.593  -3.533  0.00  0.00    +0.000 Cl
ATOM      2 CL   UNL     1     -15.245   8.020  -2.236  0.00  0.00    +0.000 Cl
ATOM      3 CL   UNL     1     -15.177   9.457   0.643  0.00  0.00    +0.000 Cl
ATOM      4 CL   UNL     1     -14.656  12.030  -0.654  0.00  0.00    +0.000 Cl
ATOM      5  C   UNL     1     -14.965   9.725  -2.046  0.00  0.00    +0.000 C 
ATOM      6  C   UNL     1     -14.936  10.325  -0.844  0.00  0.00    +0.000 C 
ENDROOT
TORSDOF 0
ENDMDL
MODEL 3
REMARK VINA RESULT:      -2.9     18.733     19.929
REMARK  Name = Tetrachloroethylene.pdbqt.pdb
REMARK  0 active torsions:
REMARK  status: ('A' for Active; 'I' for Inactive)
REMARK                            x       y       z     vdW  Elec       q    Type
REMARK                         _______ _______ _______ _____ _____    ______ ____
ROOT
ATOM      1 CL   UNL     1     -22.867   6.390  18.138  0.00  0.00    +0.000 Cl
ATOM      2 CL   UNL     1     -20.465   5.764  16.586  0.00  0.00    +0.000 Cl
ATOM      3 CL   UNL     1     -19.808   8.904  16.334  0.00  0.00    +0.000 Cl
ATOM      4 CL   UNL     1     -22.211   9.531  17.885  0.00  0.00    +0.000 Cl
ATOM      5  C   UNL     1     -21.475   6.991  17.289  0.00  0.00    +0.000 C 
ATOM      6  C   UNL     1     -21.201   8.303  17.183  0.00  0.00    +0.000 C 
ENDROOT
TORSDOF 0
ENDMDL
MODEL 4
REMARK VINA RESULT:      -2.9     18.634     19.828
REMARK  Name = Tetrachloroethylene.pdbqt.pdb
REMARK  0 active torsions:
REMARK  status: ('A' for Active; 'I' for Inactive)
REMARK                            x       y       z     vdW  Elec       q    Type
REMARK                         _______ _______ _______ _____ _____    ______ ____
ROOT
ATOM      1 CL   UNL     1     -19.601   8.577  16.352  0.00  0.00    +0.000 Cl
ATOM      2 CL   UNL     1     -20.372   5.769  16.656  0.00  0.00    +0.000 Cl
ATOM      3 CL   UNL     1     -23.097   6.674  18.109  0.00  0.00    +0.000 Cl
ATOM      4 CL   UNL     1     -22.326   9.482  17.805  0.00  0.00    +0.000 Cl
ATOM      5  C   UNL     1     -20.780   7.436  16.927  0.00  0.00    +0.000 C 
ATOM      6  C   UNL     1     -21.918   7.814  17.534  0.00  0.00    +0.000 C 
ENDROOT
TORSDOF 0
ENDMDL
MODEL 5
REMARK VINA RESULT:      -2.9     18.670     19.815
REMARK  Name = Tetrachloroethylene.pdbqt.pdb
REMARK  0 active torsions:
REMARK  status: ('A' for Active; 'I' for Inactive)
REMARK                            x       y       z     vdW  Elec       q    Type
REMARK                         _______ _______ _______ _____ _____    ______ ____
ROOT
ATOM      1 CL   UNL     1     -23.157   6.681  18.066  0.00  0.00    +0.000 Cl
ATOM      2 CL   UNL     1     -22.395   9.496  17.803  0.00  0.00    +0.000 Cl
ATOM      3 CL   UNL     1     -19.638   8.618  16.394  0.00  0.00    +0.000 Cl
ATOM      4 CL   UNL     1     -20.400   5.803  16.658  0.00  0.00    +0.000 Cl
ATOM      5  C   UNL     1     -21.973   7.833  17.524  0.00  0.00    +0.000 C 
ATOM      6  C   UNL     1     -20.822   7.466  16.936  0.00  0.00    +0.000 C 
ENDROOT
TORSDOF 0
ENDMDL
MODEL 6
REMARK VINA RESULT:      -2.9     18.701     19.759
REMARK  Name = Tetrachloroethylene.pdbqt.pdb
REMARK  0 active torsions:
REMARK  status: ('A' for Active; 'I' for Inactive)
REMARK                            x       y       z     vdW  Elec       q    Type
REMARK                         _______ _______ _______ _____ _____    ______ ____
ROOT
ATOM      1 CL   UNL     1     -22.632   9.594  17.547  0.00  0.00    +0.000 Cl
ATOM      2 CL   UNL     1     -20.056   9.098  16.247  0.00  0.00    +0.000 Cl
ATOM      3 CL   UNL     1     -20.346   5.955  16.872  0.00  0.00    +0.000 Cl
ATOM      4 CL   UNL     1     -22.923   6.451  18.171  0.00  0.00    +0.000 Cl
ATOM      5  C   UNL     1     -21.429   8.431  17.079  0.00  0.00    +0.000 C 
ATOM      6  C   UNL     1     -21.550   7.118  17.340  0.00  0.00    +0.000 C 
ENDROOT
TORSDOF 0
ENDMDL
MODEL 7
REMARK VINA RESULT:      -2.8     15.039     15.533
REMARK  Name = Tetrachloroethylene.pdbqt.pdb
REMARK  0 active torsions:
REMARK  status: ('A' for Active; 'I' for Inactive)
REMARK                            x       y       z     vdW  Elec       q    Type
REMARK                         _______ _______ _______ _____ _____    ______ ____
ROOT
ATOM      1 CL   UNL     1      -0.158   3.250   4.046  0.00  0.00    +0.000 Cl
ATOM      2 CL   UNL     1       0.246   6.094   4.611  0.00  0.00    +0.000 Cl
ATOM      3 CL   UNL     1      -2.592   6.768   3.253  0.00  0.00    +0.000 Cl
ATOM      4 CL   UNL     1      -2.996   3.924   2.687  0.00  0.00    +0.000 Cl
ATOM      5  C   UNL     1      -0.782   4.868   3.933  0.00  0.00    +0.000 C 
ATOM      6  C   UNL     1      -1.968   5.150   3.366  0.00  0.00    +0.000 C 
ENDROOT
TORSDOF 0
ENDMDL
MODEL 8
REMARK VINA RESULT:      -2.7     15.373     15.959
REMARK  Name = Tetrachloroethylene.pdbqt.pdb
REMARK  0 active torsions:
REMARK  status: ('A' for Active; 'I' for Inactive)
REMARK                            x       y       z     vdW  Elec       q    Type
REMARK                         _______ _______ _______ _____ _____    ______ ____
ROOT
ATOM      1 CL   UNL     1      -2.486   3.223   2.977  0.00  0.00    +0.000 Cl
ATOM      2 CL   UNL     1       0.188   3.058   4.158  0.00  0.00    +0.000 Cl
ATOM      3 CL   UNL     1       0.245   6.259   4.478  0.00  0.00    +0.000 Cl
ATOM      4 CL   UNL     1      -2.430   6.424   3.298  0.00  0.00    +0.000 Cl
ATOM      5  C   UNL     1      -1.132   4.072   3.661  0.00  0.00    +0.000 C 
ATOM      6  C   UNL     1      -1.109   5.409   3.795  0.00  0.00    +0.000 C 
ENDROOT
TORSDOF 0
ENDMDL
MODEL 9
REMARK VINA RESULT:      -2.5     19.016     19.934
REMARK  Name = Tetrachloroethylene.pdbqt.pdb
REMARK  0 active torsions:
REMARK  status: ('A' for Active; 'I' for Inactive)
REMARK                            x       y       z     vdW  Elec       q    Type
REMARK                         _______ _______ _______ _____ _____    ______ ____
ROOT
ATOM      1 CL   UNL     1     -21.842   6.278  18.054  0.00  0.00    +0.000 Cl
ATOM      2 CL   UNL     1     -23.430   5.824  15.637  0.00  0.00    +0.000 Cl
ATOM      3 CL   UNL     1     -23.731   9.003  15.238  0.00  0.00    +0.000 Cl
ATOM      4 CL   UNL     1     -22.143   9.457  17.655  0.00  0.00    +0.000 Cl
ATOM      5  C   UNL     1     -22.724   6.977  16.729  0.00  0.00    +0.000 C 
ATOM      6  C   UNL     1     -22.849   8.304  16.563  0.00  0.00    +0.000 C 
ENDROOT
TORSDOF 0
ENDMDL
