MODEL 1
REMARK VINA RESULT:      -6.8      0.000      0.000
REMARK  Name = Thalidomide.pdbqt.pdb
REMARK  1 active torsions:
REMARK  status: ('A' for Active; 'I' for Inactive)
REMARK    1  A    between atoms: N_3  and  C_12
REMARK                            x       y       z     vdW  Elec       q    Type
REMARK                         _______ _______ _______ _____ _____    ______ ____
ROOT
ATOM      1  O   UNL     1     -14.520  10.170  -4.511  0.00  0.00    +0.000 OA
ATOM      2  O   UNL     1     -14.370  12.802  -0.740  0.00  0.00    +0.000 OA
ATOM      3  N   UNL     1     -14.528  11.901  -2.912  0.00  0.00    +0.000 N 
ATOM      4  C   UNL     1     -14.641  10.613  -3.383  0.00  0.00    +0.000 C 
ATOM      5  C   UNL     1     -14.645  11.926  -1.539  0.00  0.00    +0.000 C 
ATOM      6  C   UNL     1     -14.977   9.771  -2.241  0.00  0.00    +0.000 A 
ATOM      7  C   UNL     1     -14.999  10.575  -1.120  0.00  0.00    +0.000 A 
ATOM      8  C   UNL     1     -15.223   8.416  -2.178  0.00  0.00    +0.000 A 
ATOM      9  C   UNL     1     -15.254  10.075   0.139  0.00  0.00    +0.000 A 
ATOM     10  C   UNL     1     -15.499   7.887  -0.915  0.00  0.00    +0.000 A 
ATOM     11  C   UNL     1     -15.514   8.705   0.228  0.00  0.00    +0.000 A 
ENDROOT
BRANCH   3  12
ATOM     12  C   UNL     1     -14.213  12.992  -3.684  0.00  0.00    +0.000 C 
ATOM     13  C   UNL     1     -12.885  13.374  -3.976  0.00  0.00    +0.000 C 
ATOM     14  C   UNL     1     -12.562  14.657  -4.678  0.00  0.00    +0.000 C 
ATOM     15  C   UNL     1     -13.580  15.552  -5.144  0.00  0.00    +0.000 C 
ATOM     16  O   UNL     1     -13.318  16.558  -5.782  0.00  0.00    +0.000 OA
ATOM     17  N   UNL     1     -14.867  15.114  -4.841  0.00  0.00    +0.000 N 
ATOM     18  C   UNL     1     -15.277  13.874  -4.329  0.00  0.00    +0.000 C 
ATOM     19  H   UNL     1     -15.603  15.652  -5.274  0.00  0.00    +0.000 HD
ATOM     20  O   UNL     1     -16.423  13.479  -4.525  0.00  0.00    +0.000 OA
ENDBRANCH   3  12
TORSDOF 1
ENDMDL
MODEL 2
REMARK VINA RESULT:      -6.2      3.414      6.856
REMARK  Name = Thalidomide.pdbqt.pdb
REMARK  1 active torsions:
REMARK  status: ('A' for Active; 'I' for Inactive)
REMARK    1  A    between atoms: N_3  and  C_12
REMARK                            x       y       z     vdW  Elec       q    Type
REMARK                         _______ _______ _______ _____ _____    ______ ____
ROOT
ATOM      1  O   UNL     1     -15.988   9.201  -3.804  0.00  0.00    +0.000 OA
ATOM      2  O   UNL     1     -15.644   9.690   0.758  0.00  0.00    +0.000 OA
ATOM      3  N   UNL     1     -15.840   8.938  -1.467  0.00  0.00    +0.000 N 
ATOM      4  C   UNL     1     -15.687   9.565  -2.683  0.00  0.00    +0.000 C 
ATOM      5  C   UNL     1     -15.446   9.769  -0.440  0.00  0.00    +0.000 C 
ATOM      6  C   UNL     1     -15.033  10.842  -2.421  0.00  0.00    +0.000 A 
ATOM      7  C   UNL     1     -14.868  10.957  -1.056  0.00  0.00    +0.000 A 
ATOM      8  C   UNL     1     -14.633  11.832  -3.295  0.00  0.00    +0.000 A 
ATOM      9  C   UNL     1     -14.307  12.074  -0.474  0.00  0.00    +0.000 A 
ATOM     10  C   UNL     1     -14.047  12.966  -2.731  0.00  0.00    +0.000 A 
ATOM     11  C   UNL     1     -13.886  13.087  -1.340  0.00  0.00    +0.000 A 
ENDROOT
BRANCH   3  12
ATOM     12  C   UNL     1     -16.424   7.708  -1.289  0.00  0.00    +0.000 C 
ATOM     13  C   UNL     1     -15.722   6.491  -1.434  0.00  0.00    +0.000 C 
ATOM     14  C   UNL     1     -16.415   5.163  -1.400  0.00  0.00    +0.000 C 
ATOM     15  C   UNL     1     -17.823   5.042  -1.166  0.00  0.00    +0.000 C 
ATOM     16  O   UNL     1     -18.373   3.958  -1.062  0.00  0.00    +0.000 OA
ATOM     17  N   UNL     1     -18.457   6.273  -1.015  0.00  0.00    +0.000 N 
ATOM     18  C   UNL     1     -17.885   7.546  -0.881  0.00  0.00    +0.000 C 
ATOM     19  H   UNL     1     -19.419   6.213  -0.715  0.00  0.00    +0.000 HD
ATOM     20  O   UNL     1     -18.513   8.445  -0.330  0.00  0.00    +0.000 OA
ENDBRANCH   3  12
TORSDOF 1
ENDMDL
MODEL 3
REMARK VINA RESULT:      -5.8      4.570      7.989
REMARK  Name = Thalidomide.pdbqt.pdb
REMARK  1 active torsions:
REMARK  status: ('A' for Active; 'I' for Inactive)
REMARK    1  A    between atoms: N_3  and  C_12
REMARK                            x       y       z     vdW  Elec       q    Type
REMARK                         _______ _______ _______ _____ _____    ______ ____
ROOT
ATOM      1  O   UNL     1     -15.820   7.343  -3.753  0.00  0.00    +0.000 OA
ATOM      2  O   UNL     1     -16.984   7.459   0.697  0.00  0.00    +0.000 OA
ATOM      3  N   UNL     1     -16.396   6.890  -1.513  0.00  0.00    +0.000 N 
ATOM      4  C   UNL     1     -15.924   7.629  -2.575  0.00  0.00    +0.000 C 
ATOM      5  C   UNL     1     -16.426   7.654  -0.366  0.00  0.00    +0.000 C 
ATOM      6  C   UNL     1     -15.508   8.920  -2.039  0.00  0.00    +0.000 A 
ATOM      7  C   UNL     1     -15.795   8.927  -0.690  0.00  0.00    +0.000 A 
ATOM      8  C   UNL     1     -14.945  10.006  -2.677  0.00  0.00    +0.000 A 
ATOM      9  C   UNL     1     -15.552  10.025   0.108  0.00  0.00    +0.000 A 
ATOM     10  C   UNL     1     -14.675  11.125  -1.887  0.00  0.00    +0.000 A 
ATOM     11  C   UNL     1     -14.974  11.135  -0.513  0.00  0.00    +0.000 A 
ENDROOT
BRANCH   3  12
ATOM     12  C   UNL     1     -16.890   5.613  -1.608  0.00  0.00    +0.000 C 
ATOM     13  C   UNL     1     -16.083   4.460  -1.483  0.00  0.00    +0.000 C 
ATOM     14  C   UNL     1     -16.611   3.085  -1.754  0.00  0.00    +0.000 C 
ATOM     15  C   UNL     1     -17.979   2.847  -2.106  0.00  0.00    +0.000 C 
ATOM     16  O   UNL     1     -18.426   1.721  -2.252  0.00  0.00    +0.000 OA
ATOM     17  N   UNL     1     -18.728   4.018  -2.198  0.00  0.00    +0.000 N 
ATOM     18  C   UNL     1     -18.372   5.321  -1.822  0.00  0.00    +0.000 C 
ATOM     19  H   UNL     1     -19.720   3.871  -2.310  0.00  0.00    +0.000 HD
ATOM     20  O   UNL     1     -19.246   6.141  -1.553  0.00  0.00    +0.000 OA
ENDBRANCH   3  12
TORSDOF 1
ENDMDL
MODEL 4
REMARK VINA RESULT:      -5.5      1.670      2.526
REMARK  Name = Thalidomide.pdbqt.pdb
REMARK  1 active torsions:
REMARK  status: ('A' for Active; 'I' for Inactive)
REMARK    1  A    between atoms: N_3  and  C_12
REMARK                            x       y       z     vdW  Elec       q    Type
REMARK                         _______ _______ _______ _____ _____    ______ ____
ROOT
ATOM      1  O   UNL     1     -13.868  11.741  -5.536  0.00  0.00    +0.000 OA
ATOM      2  O   UNL     1     -13.723  14.236  -1.673  0.00  0.00    +0.000 OA
ATOM      3  N   UNL     1     -13.838  13.417  -3.880  0.00  0.00    +0.000 N 
ATOM      4  C   UNL     1     -14.011  12.155  -4.400  0.00  0.00    +0.000 C 
ATOM      5  C   UNL     1     -14.016  13.406  -2.513  0.00  0.00    +0.000 C 
ATOM      6  C   UNL     1     -14.454  11.301  -3.303  0.00  0.00    +0.000 A 
ATOM      7  C   UNL     1     -14.476  12.069  -2.158  0.00  0.00    +0.000 A 
ATOM      8  C   UNL     1     -14.789   9.963  -3.298  0.00  0.00    +0.000 A 
ATOM      9  C   UNL     1     -14.820  11.547  -0.929  0.00  0.00    +0.000 A 
ATOM     10  C   UNL     1     -15.156   9.414  -2.068  0.00  0.00    +0.000 A 
ATOM     11  C   UNL     1     -15.171  10.195  -0.899  0.00  0.00    +0.000 A 
ENDROOT
BRANCH   3  12
ATOM     12  C   UNL     1     -13.418  14.508  -4.598  0.00  0.00    +0.000 C 
ATOM     13  C   UNL     1     -14.295  15.518  -5.055  0.00  0.00    +0.000 C 
ATOM     14  C   UNL     1     -13.843  16.609  -5.976  0.00  0.00    +0.000 C 
ATOM     15  C   UNL     1     -12.482  16.729  -6.410  0.00  0.00    +0.000 C 
ATOM     16  O   UNL     1     -12.100  17.661  -7.098  0.00  0.00    +0.000 OA
ATOM     17  N   UNL     1     -11.664  15.716  -5.915  0.00  0.00    +0.000 N 
ATOM     18  C   UNL     1     -11.951  14.750  -4.940  0.00  0.00    +0.000 C 
ATOM     19  H   UNL     1     -10.679  15.852  -6.092  0.00  0.00    +0.000 HD
ATOM     20  O   UNL     1     -11.038  14.230  -4.306  0.00  0.00    +0.000 OA
ENDBRANCH   3  12
TORSDOF 1
ENDMDL
MODEL 5
REMARK VINA RESULT:      -5.4     21.778     24.876
REMARK  Name = Thalidomide.pdbqt.pdb
REMARK  1 active torsions:
REMARK  status: ('A' for Active; 'I' for Inactive)
REMARK    1  A    between atoms: N_3  and  C_12
REMARK                            x       y       z     vdW  Elec       q    Type
REMARK                         _______ _______ _______ _____ _____    ______ ____
ROOT
ATOM      1  O   UNL     1     -11.029   7.571  20.135  0.00  0.00    +0.000 OA
ATOM      2  O   UNL     1     -11.485   3.154  18.932  0.00  0.00    +0.000 OA
ATOM      3  N   UNL     1     -11.643   5.313  19.865  0.00  0.00    +0.000 N 
ATOM      4  C   UNL     1     -11.085   6.523  19.520  0.00  0.00    +0.000 C 
ATOM      5  C   UNL     1     -11.383   4.366  18.898  0.00  0.00    +0.000 C 
ATOM      6  C   UNL     1     -10.535   6.368  18.178  0.00  0.00    +0.000 A 
ATOM      7  C   UNL     1     -10.735   5.060  17.791  0.00  0.00    +0.000 A 
ATOM      8  C   UNL     1      -9.896   7.285  17.369  0.00  0.00    +0.000 A 
ATOM      9  C   UNL     1     -10.295   4.577  16.577  0.00  0.00    +0.000 A 
ATOM     10  C   UNL     1      -9.456   6.824  16.127  0.00  0.00    +0.000 A 
ATOM     11  C   UNL     1      -9.652   5.488  15.736  0.00  0.00    +0.000 A 
ENDROOT
BRANCH   3  12
ATOM     12  C   UNL     1     -12.259   5.049  21.063  0.00  0.00    +0.000 C 
ATOM     13  C   UNL     1     -13.660   4.919  21.200  0.00  0.00    +0.000 C 
ATOM     14  C   UNL     1     -14.321   4.797  22.538  0.00  0.00    +0.000 C 
ATOM     15  C   UNL     1     -13.573   4.751  23.760  0.00  0.00    +0.000 C 
ATOM     16  O   UNL     1     -14.107   4.575  24.842  0.00  0.00    +0.000 OA
ATOM     17  N   UNL     1     -12.199   4.867  23.560  0.00  0.00    +0.000 N 
ATOM     18  C   UNL     1     -11.479   4.834  22.356  0.00  0.00    +0.000 C 
ATOM     19  H   UNL     1     -11.642   4.702  24.385  0.00  0.00    +0.000 HD
ATOM     20  O   UNL     1     -10.295   4.511  22.360  0.00  0.00    +0.000 OA
ENDBRANCH   3  12
TORSDOF 1
ENDMDL
MODEL 6
REMARK VINA RESULT:      -5.4      6.306      7.408
REMARK  Name = Thalidomide.pdbqt.pdb
REMARK  1 active torsions:
REMARK  status: ('A' for Active; 'I' for Inactive)
REMARK    1  A    between atoms: N_3  and  C_12
REMARK                            x       y       z     vdW  Elec       q    Type
REMARK                         _______ _______ _______ _____ _____    ______ ____
ROOT
ATOM      1  O   UNL     1     -18.552   4.714  -0.367  0.00  0.00    +0.000 OA
ATOM      2  O   UNL     1     -15.045   7.159  -2.069  0.00  0.00    +0.000 OA
ATOM      3  N   UNL     1     -16.888   6.303  -0.873  0.00  0.00    +0.000 N 
ATOM      4  C   UNL     1     -17.488   5.065  -0.842  0.00  0.00    +0.000 C 
ATOM      5  C   UNL     1     -15.723   6.259  -1.609  0.00  0.00    +0.000 C 
ATOM      6  C   UNL     1     -16.577   4.136  -1.501  0.00  0.00    +0.000 A 
ATOM      7  C   UNL     1     -15.492   4.860  -1.950  0.00  0.00    +0.000 A 
ATOM      8  C   UNL     1     -16.691   2.777  -1.710  0.00  0.00    +0.000 A 
ATOM      9  C   UNL     1     -14.458   4.277  -2.652  0.00  0.00    +0.000 A 
ATOM     10  C   UNL     1     -15.649   2.161  -2.405  0.00  0.00    +0.000 A 
ATOM     11  C   UNL     1     -14.547   2.900  -2.870  0.00  0.00    +0.000 A 
ENDROOT
BRANCH   3  12
ATOM     12  C   UNL     1     -17.436   7.451  -0.357  0.00  0.00    +0.000 C 
ATOM     13  C   UNL     1     -16.964   8.071   0.821  0.00  0.00    +0.000 C 
ATOM     14  C   UNL     1     -17.678   9.224   1.456  0.00  0.00    +0.000 C 
ATOM     15  C   UNL     1     -18.855   9.805   0.880  0.00  0.00    +0.000 C 
ATOM     16  O   UNL     1     -19.392  10.791   1.356  0.00  0.00    +0.000 OA
ATOM     17  N   UNL     1     -19.262   9.163  -0.287  0.00  0.00    +0.000 N 
ATOM     18  C   UNL     1     -18.588   8.186  -1.035  0.00  0.00    +0.000 C 
ATOM     19  H   UNL     1     -20.004   9.632  -0.785  0.00  0.00    +0.000 HD
ATOM     20  O   UNL     1     -18.846   8.041  -2.226  0.00  0.00    +0.000 OA
ENDBRANCH   3  12
TORSDOF 1
ENDMDL
MODEL 7
REMARK VINA RESULT:      -5.1     14.272     16.419
REMARK  Name = Thalidomide.pdbqt.pdb
REMARK  1 active torsions:
REMARK  status: ('A' for Active; 'I' for Inactive)
REMARK    1  A    between atoms: N_3  and  C_12
REMARK                            x       y       z     vdW  Elec       q    Type
REMARK                         _______ _______ _______ _____ _____    ______ ____
ROOT
ATOM      1  O   UNL     1      -4.618  -1.016   4.398  0.00  0.00    +0.000 OA
ATOM      2  O   UNL     1      -5.354   2.669   1.744  0.00  0.00    +0.000 OA
ATOM      3  N   UNL     1      -5.461   0.864   3.255  0.00  0.00    +0.000 N 
ATOM      4  C   UNL     1      -4.503   0.025   3.779  0.00  0.00    +0.000 C 
ATOM      5  C   UNL     1      -4.873   1.884   2.539  0.00  0.00    +0.000 C 
ATOM      6  C   UNL     1      -3.207   0.624   3.479  0.00  0.00    +0.000 A 
ATOM      7  C   UNL     1      -3.434   1.767   2.742  0.00  0.00    +0.000 A 
ATOM      8  C   UNL     1      -1.936   0.198   3.804  0.00  0.00    +0.000 A 
ATOM      9  C   UNL     1      -2.404   2.552   2.267  0.00  0.00    +0.000 A 
ATOM     10  C   UNL     1      -0.877   0.985   3.349  0.00  0.00    +0.000 A 
ATOM     11  C   UNL     1      -1.107   2.146   2.590  0.00  0.00    +0.000 A 
ENDROOT
BRANCH   3  12
ATOM     12  C   UNL     1      -6.814   0.644   3.323  0.00  0.00    +0.000 C 
ATOM     13  C   UNL     1      -7.495  -0.261   2.477  0.00  0.00    +0.000 C 
ATOM     14  C   UNL     1      -8.989  -0.361   2.456  0.00  0.00    +0.000 C 
ATOM     15  C   UNL     1      -9.820   0.415   3.328  0.00  0.00    +0.000 C 
ATOM     16  O   UNL     1     -11.031   0.276   3.362  0.00  0.00    +0.000 OA
ATOM     17  N   UNL     1      -9.093   1.275   4.147  0.00  0.00    +0.000 N 
ATOM     18  C   UNL     1      -7.707   1.336   4.349  0.00  0.00    +0.000 C 
ATOM     19  H   UNL     1      -9.640   1.731   4.862  0.00  0.00    +0.000 HD
ATOM     20  O   UNL     1      -7.259   1.815   5.387  0.00  0.00    +0.000 OA
ENDBRANCH   3  12
TORSDOF 1
ENDMDL
MODEL 8
REMARK VINA RESULT:      -4.9     26.395     28.555
REMARK  Name = Thalidomide.pdbqt.pdb
REMARK  1 active torsions:
REMARK  status: ('A' for Active; 'I' for Inactive)
REMARK    1  A    between atoms: N_3  and  C_12
REMARK                            x       y       z     vdW  Elec       q    Type
REMARK                         _______ _______ _______ _____ _____    ______ ____
ROOT
ATOM      1  O   UNL     1     -12.970  15.233  23.990  0.00  0.00    +0.000 OA
ATOM      2  O   UNL     1     -14.235  18.419  27.057  0.00  0.00    +0.000 OA
ATOM      3  N   UNL     1     -13.890  17.054  25.168  0.00  0.00    +0.000 N 
ATOM      4  C   UNL     1     -13.308  15.818  25.002  0.00  0.00    +0.000 C 
ATOM      5  C   UNL     1     -14.007  17.359  26.507  0.00  0.00    +0.000 C 
ATOM      6  C   UNL     1     -13.157  15.239  26.332  0.00  0.00    +0.000 A 
ATOM      7  C   UNL     1     -13.601  16.170  27.247  0.00  0.00    +0.000 A 
ATOM      8  C   UNL     1     -12.655  14.013  26.715  0.00  0.00    +0.000 A 
ATOM      9  C   UNL     1     -13.559  15.944  28.607  0.00  0.00    +0.000 A 
ATOM     10  C   UNL     1     -12.617  13.753  28.087  0.00  0.00    +0.000 A 
ATOM     11  C   UNL     1     -13.062  14.705  29.020  0.00  0.00    +0.000 A 
ENDROOT
BRANCH   3  12
ATOM     12  C   UNL     1     -14.191  17.920  24.146  0.00  0.00    +0.000 C 
ATOM     13  C   UNL     1     -15.514  18.267  23.792  0.00  0.00    +0.000 C 
ATOM     14  C   UNL     1     -15.825  19.080  22.573  0.00  0.00    +0.000 C 
ATOM     15  C   UNL     1     -14.799  19.600  21.719  0.00  0.00    +0.000 C 
ATOM     16  O   UNL     1     -15.050  20.325  20.770  0.00  0.00    +0.000 OA
ATOM     17  N   UNL     1     -13.518  19.239  22.127  0.00  0.00    +0.000 N 
ATOM     18  C   UNL     1     -13.116  18.618  23.319  0.00  0.00    +0.000 C 
ATOM     19  H   UNL     1     -12.774  19.702  21.626  0.00  0.00    +0.000 HD
ATOM     20  O   UNL     1     -11.967  18.760  23.726  0.00  0.00    +0.000 OA
ENDBRANCH   3  12
TORSDOF 1
ENDMDL
MODEL 9
REMARK VINA RESULT:      -4.8     26.415     28.635
REMARK  Name = Thalidomide.pdbqt.pdb
REMARK  1 active torsions:
REMARK  status: ('A' for Active; 'I' for Inactive)
REMARK    1  A    between atoms: N_3  and  C_12
REMARK                            x       y       z     vdW  Elec       q    Type
REMARK                         _______ _______ _______ _____ _____    ______ ____
ROOT
ATOM      1  O   UNL     1     -14.819  18.188  27.038  0.00  0.00    +0.000 OA
ATOM      2  O   UNL     1     -13.028  15.233  24.001  0.00  0.00    +0.000 OA
ATOM      3  N   UNL     1     -13.844  17.095  25.193  0.00  0.00    +0.000 N 
ATOM      4  C   UNL     1     -14.217  17.274  26.505  0.00  0.00    +0.000 C 
ATOM      5  C   UNL     1     -13.265  15.857  25.018  0.00  0.00    +0.000 C 
ATOM      6  C   UNL     1     -13.729  16.116  27.246  0.00  0.00    +0.000 A 
ATOM      7  C   UNL     1     -13.132  15.263  26.343  0.00  0.00    +0.000 A 
ATOM      8  C   UNL     1     -13.817  15.821  28.590  0.00  0.00    +0.000 A 
ATOM      9  C   UNL     1     -12.595  14.050  26.721  0.00  0.00    +0.000 A 
ATOM     10  C   UNL     1     -13.266  14.605  29.001  0.00  0.00    +0.000 A 
ATOM     11  C   UNL     1     -12.664  13.731  28.079  0.00  0.00    +0.000 A 
ENDROOT
BRANCH   3  12
ATOM     12  C   UNL     1     -14.125  17.970  24.173  0.00  0.00    +0.000 C 
ATOM     13  C   UNL     1     -15.440  18.272  23.753  0.00  0.00    +0.000 C 
ATOM     14  C   UNL     1     -15.718  19.098  22.535  0.00  0.00    +0.000 C 
ATOM     15  C   UNL     1     -14.670  19.677  21.749  0.00  0.00    +0.000 C 
ATOM     16  O   UNL     1     -14.899  20.412  20.803  0.00  0.00    +0.000 OA
ATOM     17  N   UNL     1     -13.398  19.359  22.220  0.00  0.00    +0.000 N 
ATOM     18  C   UNL     1     -13.037  18.729  23.420  0.00  0.00    +0.000 C 
ATOM     19  H   UNL     1     -12.648  19.862  21.770  0.00  0.00    +0.000 HD
ATOM     20  O   UNL     1     -11.918  18.908  23.892  0.00  0.00    +0.000 OA
ENDBRANCH   3  12
TORSDOF 1
ENDMDL
