MODEL 1
REMARK VINA RESULT:      -6.8      0.000      0.000
REMARK  Name = Thapsigargin.pdbqt.pdb
REMARK  10 active torsions:
REMARK  status: ('A' for Active; 'I' for Inactive)
REMARK    1  A    between atoms: O_2  and  C_24
REMARK    2  A    between atoms: C_17  and  O_43
REMARK    3  A    between atoms: C_19  and  C_24
REMARK    4  A    between atoms: C_19  and  O_47
REMARK    5  A    between atoms: C_27  and  C_35
REMARK    6  A    between atoms: C_35  and  C_36
REMARK    7  A    between atoms: C_37  and  C_38
REMARK    8  A    between atoms: C_39  and  C_40
REMARK    9  A    between atoms: C_42  and  O_43
REMARK   10  A    between atoms: C_42  and  C_44
REMARK                            x       y       z     vdW  Elec       q    Type
REMARK                         _______ _______ _______ _____ _____    ______ ____
ROOT
ATOM      1  O   UNL     1      -9.837   8.080  20.458  0.00  0.00    +0.000 OA
ATOM      2  O   UNL     1     -10.581   2.404  18.476  0.00  0.00    +0.000 OA
ATOM      3  O   UNL     1      -8.043   2.606  18.720  0.00  0.00    +0.000 OA
ATOM      4  O   UNL     1      -9.101   5.530  15.934  0.00  0.00    +0.000 OA
ATOM      5  O   UNL     1      -9.772   9.627  22.140  0.00  0.00    +0.000 OA
ATOM      6  O   UNL     1      -8.670   2.210  19.993  0.00  0.00    +0.000 OA
ATOM      7  O   UNL     1      -7.155   1.518  16.714  0.00  0.00    +0.000 OA
ATOM      8  O   UNL     1      -7.689   7.390  16.801  0.00  0.00    +0.000 OA
ATOM      9  C   UNL     1     -11.205   4.856  18.696  0.00  0.00    +0.000 C 
ATOM     10  C   UNL     1     -11.175   6.493  21.501  0.00  0.00    +0.000 C 
ATOM     11  C   UNL     1     -10.502   6.871  20.295  0.00  0.00    +0.000 C 
ATOM     12  C   UNL     1     -12.076   4.040  19.590  0.00  0.00    +0.000 C 
ATOM     13  C   UNL     1     -10.530   6.189  19.129  0.00  0.00    +0.000 C 
ATOM     14  C   UNL     1     -11.942   5.453  21.465  0.00  0.00    +0.000 C 
ATOM     15  C   UNL     1     -12.532   4.346  20.819  0.00  0.00    +0.000 C 
ATOM     16  C   UNL     1     -11.070   4.842  17.257  0.00  0.00    +0.000 C 
ATOM     17  C   UNL     1     -10.925   7.507  22.542  0.00  0.00    +0.000 C 
ATOM     18  C   UNL     1     -10.099   5.791  16.879  0.00  0.00    +0.000 C 
ATOM     19  C   UNL     1      -9.885   6.652  17.896  0.00  0.00    +0.000 C 
ATOM     20  C   UNL     1     -10.705   3.585  19.292  0.00  0.00    +0.000 C 
ATOM     21  C   UNL     1     -10.116   8.521  21.731  0.00  0.00    +0.000 C 
ATOM     22  C   UNL     1      -8.706   7.370  17.654  0.00  0.00    +0.000 C 
ATOM     23  C   UNL     1     -10.111   2.308  19.828  0.00  0.00    +0.000 C 
ATOM     24  C   UNL     1      -7.631   1.467  18.019  0.00  0.00    +0.000 C 
ATOM     25  C   UNL     1      -7.801   6.116  16.168  0.00  0.00    +0.000 C 
ATOM     26  C   UNL     1     -10.903   1.298  20.669  0.00  0.00    +0.000 C 
ATOM     27  C   UNL     1      -6.702   5.347  16.028  0.00  0.00    +0.000 C 
ATOM     28  C   UNL     1      -5.315   5.885  16.300  0.00  0.00    +0.000 C 
ATOM     29  C   UNL     1      -6.819   3.928  16.013  0.00  0.00    +0.000 C 
ATOM     30  C   UNL     1      -6.970   2.768  16.290  0.00  0.00    +0.000 C 
ENDROOT
BRANCH  17  31
ATOM     31  O   UNL     1     -12.145   8.036  23.033  0.00  0.00    +0.000 OA
ATOM     32  H   UNL     1     -12.842   7.656  22.467  0.00  0.00    +0.000 HD
ENDBRANCH  17  31
BRANCH  17  33
ATOM     33  C   UNL     1     -10.148   6.932  23.655  0.00  0.00    +0.000 C 
BRANCH  33  34
ATOM     34  O   UNL     1      -9.464   6.395  24.664  0.00  0.00    +0.000 OA
ATOM     35  H   UNL     1      -9.319   5.441  24.521  0.00  0.00    +0.000 HD
ENDBRANCH  33  34
ENDBRANCH  17  33
BRANCH  24  36
ATOM     36  C   UNL     1      -7.845   0.272  18.480  0.00  0.00    +0.000 C 
BRANCH  36  37
ATOM     37  C   UNL     1      -8.129  -1.147  18.985  0.00  0.00    +0.000 C 
ATOM     38  C   UNL     1      -8.326  -2.271  19.357  0.00  0.00    +0.000 C 
BRANCH  38  39
ATOM     39  C   UNL     1      -8.557  -3.714  19.816  0.00  0.00    +0.000 C 
ATOM     40  C   UNL     1      -8.737  -4.849  20.162  0.00  0.00    +0.000 C 
BRANCH  40  41
ATOM     41  C   UNL     1      -8.964  -6.300  20.596  0.00  0.00    +0.000 C 
ATOM     42  C   UNL     1      -9.164  -7.562  20.974  0.00  0.00    +0.000 C 
ENDBRANCH  40  41
ENDBRANCH  38  39
ENDBRANCH  36  37
ENDBRANCH  24  36
BRANCH  15  43
ATOM     43  O   UNL     1     -13.719   3.782  21.302  0.00  0.00    +0.000 OA
BRANCH  43  45
ATOM     44  O   UNL     1     -14.162   5.309  23.003  0.00  0.00    +0.000 OA
ATOM     45  C   UNL     1     -14.491   4.643  22.032  0.00  0.00    +0.000 C 
BRANCH  45  46
ATOM     46  C   UNL     1     -15.830   4.705  21.532  0.00  0.00    +0.000 C 
ATOM     47  C   UNL     1     -16.952   4.752  21.118  0.00  0.00    +0.000 C 
ATOM     48  C   UNL     1     -18.382   4.821  20.577  0.00  0.00    +0.000 C 
ENDBRANCH  45  46
ENDBRANCH  43  45
ENDBRANCH  15  43
TORSDOF 10
ENDMDL
MODEL 2
REMARK VINA RESULT:      -6.3      3.890      9.570
REMARK  Name = Thapsigargin.pdbqt.pdb
REMARK  10 active torsions:
REMARK  status: ('A' for Active; 'I' for Inactive)
REMARK    1  A    between atoms: O_2  and  C_24
REMARK    2  A    between atoms: C_17  and  O_43
REMARK    3  A    between atoms: C_19  and  C_24
REMARK    4  A    between atoms: C_19  and  O_47
REMARK    5  A    between atoms: C_27  and  C_35
REMARK    6  A    between atoms: C_35  and  C_36
REMARK    7  A    between atoms: C_37  and  C_38
REMARK    8  A    between atoms: C_39  and  C_40
REMARK    9  A    between atoms: C_42  and  O_43
REMARK   10  A    between atoms: C_42  and  C_44
REMARK                            x       y       z     vdW  Elec       q    Type
REMARK                         _______ _______ _______ _____ _____    ______ ____
ROOT
ATOM      1  O   UNL     1      -9.028   1.994  18.902  0.00  0.00    +0.000 OA
ATOM      2  O   UNL     1      -5.108   4.914  15.323  0.00  0.00    +0.000 OA
ATOM      3  O   UNL     1      -4.810   6.077  17.582  0.00  0.00    +0.000 OA
ATOM      4  O   UNL     1      -8.814   6.686  16.568  0.00  0.00    +0.000 OA
ATOM      5  O   UNL     1      -9.582   0.246  20.268  0.00  0.00    +0.000 OA
ATOM      6  O   UNL     1      -3.959   4.878  17.483  0.00  0.00    +0.000 OA
ATOM      7  O   UNL     1      -4.674   8.456  17.022  0.00  0.00    +0.000 OA
ATOM      8  O   UNL     1      -9.831   6.214  18.792  0.00  0.00    +0.000 OA
ATOM      9  C   UNL     1      -7.233   3.613  15.815  0.00  0.00    +0.000 C 
ATOM     10  C   UNL     1      -7.346   0.956  17.681  0.00  0.00    +0.000 C 
ATOM     11  C   UNL     1      -8.144   2.135  17.840  0.00  0.00    +0.000 C 
ATOM     12  C   UNL     1      -6.227   2.703  15.196  0.00  0.00    +0.000 C 
ATOM     13  C   UNL     1      -8.098   3.230  17.051  0.00  0.00    +0.000 C 
ATOM     14  C   UNL     1      -6.565   0.890  16.654  0.00  0.00    +0.000 C 
ATOM     15  C   UNL     1      -5.984   1.409  15.477  0.00  0.00    +0.000 C 
ATOM     16  C   UNL     1      -7.875   4.795  15.286  0.00  0.00    +0.000 C 
ATOM     17  C   UNL     1      -7.708  -0.026  18.719  0.00  0.00    +0.000 C 
ATOM     18  C   UNL     1      -8.742   5.323  16.264  0.00  0.00    +0.000 C 
ATOM     19  C   UNL     1      -8.987   4.387  17.206  0.00  0.00    +0.000 C 
ATOM     20  C   UNL     1      -5.775   3.841  16.018  0.00  0.00    +0.000 C 
ATOM     21  C   UNL     1      -8.858   0.722  19.398  0.00  0.00    +0.000 C 
ATOM     22  C   UNL     1      -9.559   4.999  18.328  0.00  0.00    +0.000 C 
ATOM     23  C   UNL     1      -4.326   4.170  16.268  0.00  0.00    +0.000 C 
ATOM     24  C   UNL     1      -4.087   7.208  17.189  0.00  0.00    +0.000 C 
ATOM     25  C   UNL     1      -9.032   7.043  17.950  0.00  0.00    +0.000 C 
ATOM     26  C   UNL     1      -3.164   3.408  15.618  0.00  0.00    +0.000 C 
ATOM     27  C   UNL     1      -8.270   8.010  18.504  0.00  0.00    +0.000 C 
ATOM     28  C   UNL     1      -8.416   8.402  19.958  0.00  0.00    +0.000 C 
ATOM     29  C   UNL     1      -7.056   8.410  17.877  0.00  0.00    +0.000 C 
ATOM     30  C   UNL     1      -5.936   8.484  17.447  0.00  0.00    +0.000 C 
ENDROOT
BRANCH  17  31
ATOM     31  O   UNL     1      -8.113  -1.251  18.133  0.00  0.00    +0.000 OA
ATOM     32  H   UNL     1      -8.600  -1.006  17.324  0.00  0.00    +0.000 HD
ENDBRANCH  17  31
BRANCH  17  33
ATOM     33  C   UNL     1      -6.576  -0.262  19.633  0.00  0.00    +0.000 C 
BRANCH  33  34
ATOM     34  O   UNL     1      -5.566  -0.467  20.477  0.00  0.00    +0.000 OA
ATOM     35  H   UNL     1      -5.770  -1.192  21.098  0.00  0.00    +0.000 HD
ENDBRANCH  33  34
ENDBRANCH  17  33
BRANCH  24  36
ATOM     36  C   UNL     1      -2.858   7.118  16.775  0.00  0.00    +0.000 C 
BRANCH  36  37
ATOM     37  C   UNL     1      -1.422   6.969  16.263  0.00  0.00    +0.000 C 
ATOM     38  C   UNL     1      -0.308   6.866  15.829  0.00  0.00    +0.000 C 
BRANCH  38  39
ATOM     39  C   UNL     1       1.106   6.746  15.252  0.00  0.00    +0.000 C 
ATOM     40  C   UNL     1       2.213   6.638  14.798  0.00  0.00    +0.000 C 
BRANCH  40  41
ATOM     41  C   UNL     1       3.622   6.492  14.217  0.00  0.00    +0.000 C 
ATOM     42  C   UNL     1       4.848   6.367  13.711  0.00  0.00    +0.000 C 
ENDBRANCH  40  41
ENDBRANCH  38  39
ENDBRANCH  36  37
ENDBRANCH  24  36
BRANCH  15  43
ATOM     43  O   UNL     1      -5.434   0.559  14.511  0.00  0.00    +0.000 OA
BRANCH  43  45
ATOM     44  O   UNL     1      -5.308  -1.446  15.690  0.00  0.00    +0.000 OA
ATOM     45  C   UNL     1      -5.669  -0.770  14.737  0.00  0.00    +0.000 C 
BRANCH  45  46
ATOM     46  C   UNL     1      -6.431  -1.359  13.679  0.00  0.00    +0.000 C 
ATOM     47  C   UNL     1      -7.072  -1.847  12.794  0.00  0.00    +0.000 C 
ATOM     48  C   UNL     1      -7.884  -2.485  11.664  0.00  0.00    +0.000 C 
ENDBRANCH  45  46
ENDBRANCH  43  45
ENDBRANCH  15  43
TORSDOF 10
ENDMDL
MODEL 3
REMARK VINA RESULT:      -6.2      4.560      8.656
REMARK  Name = Thapsigargin.pdbqt.pdb
REMARK  10 active torsions:
REMARK  status: ('A' for Active; 'I' for Inactive)
REMARK    1  A    between atoms: O_2  and  C_24
REMARK    2  A    between atoms: C_17  and  O_43
REMARK    3  A    between atoms: C_19  and  C_24
REMARK    4  A    between atoms: C_19  and  O_47
REMARK    5  A    between atoms: C_27  and  C_35
REMARK    6  A    between atoms: C_35  and  C_36
REMARK    7  A    between atoms: C_37  and  C_38
REMARK    8  A    between atoms: C_39  and  C_40
REMARK    9  A    between atoms: C_42  and  O_43
REMARK   10  A    between atoms: C_42  and  C_44
REMARK                            x       y       z     vdW  Elec       q    Type
REMARK                         _______ _______ _______ _____ _____    ______ ____
ROOT
ATOM      1  O   UNL     1      -8.866   8.510  21.527  0.00  0.00    +0.000 OA
ATOM      2  O   UNL     1      -5.257   8.971  16.683  0.00  0.00    +0.000 OA
ATOM      3  O   UNL     1      -3.611   8.549  18.595  0.00  0.00    +0.000 OA
ATOM      4  O   UNL     1      -5.560  12.100  19.606  0.00  0.00    +0.000 OA
ATOM      5  O   UNL     1     -10.235   7.301  22.902  0.00  0.00    +0.000 OA
ATOM      6  O   UNL     1      -4.129   7.282  18.049  0.00  0.00    +0.000 OA
ATOM      7  O   UNL     1      -1.767  10.099  18.159  0.00  0.00    +0.000 OA
ATOM      8  O   UNL     1      -5.952  11.629  22.020  0.00  0.00    +0.000 OA
ATOM      9  C   UNL     1      -7.341   9.472  18.046  0.00  0.00    +0.000 C 
ATOM     10  C   UNL     1      -9.075   7.214  19.610  0.00  0.00    +0.000 C 
ATOM     11  C   UNL     1      -8.529   8.408  20.183  0.00  0.00    +0.000 C 
ATOM     12  C   UNL     1      -7.670   8.481  16.982  0.00  0.00    +0.000 C 
ATOM     13  C   UNL     1      -7.819   9.347  19.521  0.00  0.00    +0.000 C 
ATOM     14  C   UNL     1      -8.952   7.046  18.334  0.00  0.00    +0.000 C 
ATOM     15  C   UNL     1      -8.505   7.427  17.051  0.00  0.00    +0.000 C 
ATOM     16  C   UNL     1      -6.874  10.836  17.939  0.00  0.00    +0.000 C 
ATOM     17  C   UNL     1      -9.807   6.462  20.645  0.00  0.00    +0.000 C 
ATOM     18  C   UNL     1      -6.687  11.359  19.235  0.00  0.00    +0.000 C 
ATOM     19  C   UNL     1      -7.341  10.592  20.133  0.00  0.00    +0.000 C 
ATOM     20  C   UNL     1      -6.311   8.515  17.553  0.00  0.00    +0.000 C 
ATOM     21  C   UNL     1      -9.670   7.433  21.820  0.00  0.00    +0.000 C 
ATOM     22  C   UNL     1      -6.889  10.902  21.422  0.00  0.00    +0.000 C 
ATOM     23  C   UNL     1      -5.194   7.605  17.113  0.00  0.00    +0.000 C 
ATOM     24  C   UNL     1      -2.405   8.880  17.968  0.00  0.00    +0.000 C 
ATOM     25  C   UNL     1      -5.055  11.907  20.946  0.00  0.00    +0.000 C 
ATOM     26  C   UNL     1      -5.328   6.605  15.957  0.00  0.00    +0.000 C 
ATOM     27  C   UNL     1      -3.730  11.732  21.127  0.00  0.00    +0.000 C 
ATOM     28  C   UNL     1      -3.141  11.482  22.497  0.00  0.00    +0.000 C 
ATOM     29  C   UNL     1      -2.899  11.381  20.026  0.00  0.00    +0.000 C 
ATOM     30  C   UNL     1      -2.331  10.820  19.126  0.00  0.00    +0.000 C 
ENDROOT
BRANCH  17  31
ATOM     31  O   UNL     1     -11.152   6.248  20.255  0.00  0.00    +0.000 OA
ATOM     32  H   UNL     1     -11.671   6.277  21.081  0.00  0.00    +0.000 HD
ENDBRANCH  17  31
BRANCH  17  33
ATOM     33  C   UNL     1      -9.153   5.167  20.909  0.00  0.00    +0.000 C 
BRANCH  33  34
ATOM     34  O   UNL     1      -8.575   3.987  21.129  0.00  0.00    +0.000 OA
ATOM     35  H   UNL     1      -7.675   4.099  21.487  0.00  0.00    +0.000 HD
ENDBRANCH  33  34
ENDBRANCH  17  33
BRANCH  24  36
ATOM     36  C   UNL     1      -1.907   8.139  17.023  0.00  0.00    +0.000 C 
BRANCH  36  37
ATOM     37  C   UNL     1      -1.365   7.262  15.890  0.00  0.00    +0.000 C 
ATOM     38  C   UNL     1      -0.940   6.605  14.980  0.00  0.00    +0.000 C 
BRANCH  38  39
ATOM     39  C   UNL     1      -0.394   5.788  13.804  0.00  0.00    +0.000 C 
ATOM     40  C   UNL     1       0.045   5.144  12.892  0.00  0.00    +0.000 C 
BRANCH  40  41
ATOM     41  C   UNL     1       0.609   4.316  11.733  0.00  0.00    +0.000 C 
ATOM     42  C   UNL     1       1.101   3.599  10.724  0.00  0.00    +0.000 C 
ENDBRANCH  40  41
ENDBRANCH  38  39
ENDBRANCH  36  37
ENDBRANCH  24  36
BRANCH  15  43
ATOM     43  O   UNL     1      -9.121   6.927  15.898  0.00  0.00    +0.000 OA
BRANCH  43  45
ATOM     44  O   UNL     1     -10.612   5.175  16.263  0.00  0.00    +0.000 OA
ATOM     45  C   UNL     1      -9.504   5.617  15.992  0.00  0.00    +0.000 C 
BRANCH  45  46
ATOM     46  C   UNL     1      -8.413   4.728  15.734  0.00  0.00    +0.000 C 
ATOM     47  C   UNL     1      -7.503   3.980  15.523  0.00  0.00    +0.000 C 
ATOM     48  C   UNL     1      -6.331   3.035  15.245  0.00  0.00    +0.000 C 
ENDBRANCH  45  46
ENDBRANCH  43  45
ENDBRANCH  15  43
TORSDOF 10
ENDMDL
MODEL 4
REMARK VINA RESULT:      -6.1      4.266     10.497
REMARK  Name = Thapsigargin.pdbqt.pdb
REMARK  10 active torsions:
REMARK  status: ('A' for Active; 'I' for Inactive)
REMARK    1  A    between atoms: O_2  and  C_24
REMARK    2  A    between atoms: C_17  and  O_43
REMARK    3  A    between atoms: C_19  and  C_24
REMARK    4  A    between atoms: C_19  and  O_47
REMARK    5  A    between atoms: C_27  and  C_35
REMARK    6  A    between atoms: C_35  and  C_36
REMARK    7  A    between atoms: C_37  and  C_38
REMARK    8  A    between atoms: C_39  and  C_40
REMARK    9  A    between atoms: C_42  and  O_43
REMARK   10  A    between atoms: C_42  and  C_44
REMARK                            x       y       z     vdW  Elec       q    Type
REMARK                         _______ _______ _______ _____ _____    ______ ____
ROOT
ATOM      1  O   UNL     1      -6.901   3.928  21.211  0.00  0.00    +0.000 OA
ATOM      2  O   UNL     1      -8.360   8.629  17.680  0.00  0.00    +0.000 OA
ATOM      3  O   UNL     1      -6.991   9.711  19.550  0.00  0.00    +0.000 OA
ATOM      4  O   UNL     1     -10.255   7.953  21.471  0.00  0.00    +0.000 OA
ATOM      5  O   UNL     1      -5.563   2.150  21.735  0.00  0.00    +0.000 OA
ATOM      6  O   UNL     1      -6.119   9.213  18.473  0.00  0.00    +0.000 OA
ATOM      7  O   UNL     1      -8.223  11.756  20.095  0.00  0.00    +0.000 OA
ATOM      8  O   UNL     1      -9.044   6.942  23.399  0.00  0.00    +0.000 OA
ATOM      9  C   UNL     1      -8.727   6.341  18.718  0.00  0.00    +0.000 C 
ATOM     10  C   UNL     1      -6.428   4.057  18.940  0.00  0.00    +0.000 C 
ATOM     11  C   UNL     1      -7.218   4.568  20.020  0.00  0.00    +0.000 C 
ATOM     12  C   UNL     1      -8.254   6.178  17.313  0.00  0.00    +0.000 C 
ATOM     13  C   UNL     1      -8.181   5.510  19.915  0.00  0.00    +0.000 C 
ATOM     14  C   UNL     1      -6.700   4.467  17.745  0.00  0.00    +0.000 C 
ATOM     15  C   UNL     1      -7.419   5.248  16.815  0.00  0.00    +0.000 C 
ATOM     16  C   UNL     1      -9.928   6.958  19.234  0.00  0.00    +0.000 C 
ATOM     17  C   UNL     1      -5.509   3.023  19.450  0.00  0.00    +0.000 C 
ATOM     18  C   UNL     1      -9.916   6.879  20.641  0.00  0.00    +0.000 C 
ATOM     19  C   UNL     1      -9.017   5.952  21.036  0.00  0.00    +0.000 C 
ATOM     20  C   UNL     1      -7.830   7.355  18.095  0.00  0.00    +0.000 C 
ATOM     21  C   UNL     1      -5.960   2.971  20.912  0.00  0.00    +0.000 C 
ATOM     22  C   UNL     1      -8.763   6.108  22.405  0.00  0.00    +0.000 C 
ATOM     23  C   UNL     1      -6.943   8.445  17.553  0.00  0.00    +0.000 C 
ATOM     24  C   UNL     1      -7.291  11.061  19.334  0.00  0.00    +0.000 C 
ATOM     25  C   UNL     1      -9.511   8.096  22.701  0.00  0.00    +0.000 C 
ATOM     26  C   UNL     1      -6.458   8.493  16.098  0.00  0.00    +0.000 C 
ATOM     27  C   UNL     1      -9.040   9.313  23.044  0.00  0.00    +0.000 C 
ATOM     28  C   UNL     1      -8.217   9.524  24.295  0.00  0.00    +0.000 C 
ATOM     29  C   UNL     1      -8.951  10.345  22.066  0.00  0.00    +0.000 C 
ATOM     30  C   UNL     1      -8.648  11.052  21.142  0.00  0.00    +0.000 C 
ENDROOT
BRANCH  17  31
ATOM     31  O   UNL     1      -5.701   1.797  18.767  0.00  0.00    +0.000 OA
ATOM     32  H   UNL     1      -4.830   1.565  18.395  0.00  0.00    +0.000 HD
ENDBRANCH  17  31
BRANCH  17  33
ATOM     33  C   UNL     1      -4.107   3.456  19.312  0.00  0.00    +0.000 C 
BRANCH  33  34
ATOM     34  O   UNL     1      -2.838   3.834  19.165  0.00  0.00    +0.000 OA
ATOM     35  H   UNL     1      -2.275   3.081  18.905  0.00  0.00    +0.000 HD
ENDBRANCH  33  34
ENDBRANCH  17  33
BRANCH  24  36
ATOM     36  C   UNL     1      -6.852  11.694  18.288  0.00  0.00    +0.000 C 
BRANCH  36  37
ATOM     37  C   UNL     1      -6.379  12.429  17.030  0.00  0.00    +0.000 C 
ATOM     38  C   UNL     1      -6.034  12.989  16.025  0.00  0.00    +0.000 C 
BRANCH  38  39
ATOM     39  C   UNL     1      -5.615  13.691  14.730  0.00  0.00    +0.000 C 
ATOM     40  C   UNL     1      -5.273  14.235  13.716  0.00  0.00    +0.000 C 
BRANCH  40  41
ATOM     41  C   UNL     1      -4.832  14.923  12.421  0.00  0.00    +0.000 C 
ATOM     42  C   UNL     1      -4.446  15.525  11.296  0.00  0.00    +0.000 C 
ENDBRANCH  40  41
ENDBRANCH  38  39
ENDBRANCH  36  37
ENDBRANCH  24  36
BRANCH  15  43
ATOM     43  O   UNL     1      -7.482   4.880  15.466  0.00  0.00    +0.000 OA
BRANCH  43  45
ATOM     44  O   UNL     1      -5.438   5.308  14.434  0.00  0.00    +0.000 OA
ATOM     45  C   UNL     1      -6.271   4.555  14.918  0.00  0.00    +0.000 C 
BRANCH  45  46
ATOM     46  C   UNL     1      -6.038   3.144  14.951  0.00  0.00    +0.000 C 
ATOM     47  C   UNL     1      -5.846   1.963  14.973  0.00  0.00    +0.000 C 
ATOM     48  C   UNL     1      -5.597   0.453  15.016  0.00  0.00    +0.000 C 
ENDBRANCH  45  46
ENDBRANCH  43  45
ENDBRANCH  15  43
TORSDOF 10
ENDMDL
MODEL 5
REMARK VINA RESULT:      -6.0     19.605     23.789
REMARK  Name = Thapsigargin.pdbqt.pdb
REMARK  10 active torsions:
REMARK  status: ('A' for Active; 'I' for Inactive)
REMARK    1  A    between atoms: O_2  and  C_24
REMARK    2  A    between atoms: C_17  and  O_43
REMARK    3  A    between atoms: C_19  and  C_24
REMARK    4  A    between atoms: C_19  and  O_47
REMARK    5  A    between atoms: C_27  and  C_35
REMARK    6  A    between atoms: C_35  and  C_36
REMARK    7  A    between atoms: C_37  and  C_38
REMARK    8  A    between atoms: C_39  and  C_40
REMARK    9  A    between atoms: C_42  and  O_43
REMARK   10  A    between atoms: C_42  and  C_44
REMARK                            x       y       z     vdW  Elec       q    Type
REMARK                         _______ _______ _______ _____ _____    ______ ____
ROOT
ATOM      1  O   UNL     1     -13.457  -1.554   0.599  0.00  0.00    +0.000 OA
ATOM      2  O   UNL     1     -14.103   3.032  -3.307  0.00  0.00    +0.000 OA
ATOM      3  O   UNL     1     -16.092   3.330  -1.727  0.00  0.00    +0.000 OA
ATOM      4  O   UNL     1     -16.620  -0.443  -3.435  0.00  0.00    +0.000 OA
ATOM      5  O   UNL     1     -12.545  -2.472   2.483  0.00  0.00    +0.000 OA
ATOM      6  O   UNL     1     -14.888   3.993  -1.197  0.00  0.00    +0.000 OA
ATOM      7  O   UNL     1     -17.964   3.873  -3.209  0.00  0.00    +0.000 OA
ATOM      8  O   UNL     1     -17.270  -1.689  -1.378  0.00  0.00    +0.000 OA
ATOM      9  C   UNL     1     -13.377   0.701  -2.607  0.00  0.00    +0.000 C 
ATOM     10  C   UNL     1     -11.822   0.038   0.166  0.00  0.00    +0.000 C 
ATOM     11  C   UNL     1     -13.029  -0.579  -0.294  0.00  0.00    +0.000 C 
ATOM     12  C   UNL     1     -12.188   1.600  -2.646  0.00  0.00    +0.000 C 
ATOM     13  C   UNL     1     -13.662  -0.305  -1.455  0.00  0.00    +0.000 C 
ATOM     14  C   UNL     1     -11.234   0.877  -0.622  0.00  0.00    +0.000 C 
ATOM     15  C   UNL     1     -11.127   1.619  -1.818  0.00  0.00    +0.000 C 
ATOM     16  C   UNL     1     -14.273   0.291  -3.665  0.00  0.00    +0.000 C 
ATOM     17  C   UNL     1     -11.431  -0.549   1.461  0.00  0.00    +0.000 C 
ATOM     18  C   UNL     1     -15.261  -0.558  -3.126  0.00  0.00    +0.000 C 
ATOM     19  C   UNL     1     -14.858  -1.015  -1.921  0.00  0.00    +0.000 C 
ATOM     20  C   UNL     1     -13.515   2.157  -2.324  0.00  0.00    +0.000 C 
ATOM     21  C   UNL     1     -12.516  -1.619   1.601  0.00  0.00    +0.000 C 
ATOM     22  C   UNL     1     -15.953  -1.571  -1.248  0.00  0.00    +0.000 C 
ATOM     23  C   UNL     1     -13.765   3.615  -2.041  0.00  0.00    +0.000 C 
ATOM     24  C   UNL     1     -16.858   4.247  -2.456  0.00  0.00    +0.000 C 
ATOM     25  C   UNL     1     -17.563  -0.708  -2.373  0.00  0.00    +0.000 C 
ATOM     26  C   UNL     1     -12.678   4.693  -2.147  0.00  0.00    +0.000 C 
ATOM     27  C   UNL     1     -18.587   0.147  -2.178  0.00  0.00    +0.000 C 
ATOM     28  C   UNL     1     -19.584  -0.048  -1.058  0.00  0.00    +0.000 C 
ATOM     29  C   UNL     1     -18.545   1.453  -2.745  0.00  0.00    +0.000 C 
ATOM     30  C   UNL     1     -18.307   2.601  -3.010  0.00  0.00    +0.000 C 
ENDROOT
BRANCH  17  31
ATOM     31  O   UNL     1     -10.123  -1.091   1.394  0.00  0.00    +0.000 OA
ATOM     32  H   UNL     1      -9.865  -1.265   2.318  0.00  0.00    +0.000 HD
ENDBRANCH  17  31
BRANCH  17  33
ATOM     33  C   UNL     1     -11.497   0.460   2.533  0.00  0.00    +0.000 C 
BRANCH  33  34
ATOM     34  O   UNL     1     -11.565   1.355   3.518  0.00  0.00    +0.000 OA
ATOM     35  H   UNL     1     -10.843   2.007   3.451  0.00  0.00    +0.000 HD
ENDBRANCH  33  34
ENDBRANCH  17  33
BRANCH  24  36
ATOM     36  C   UNL     1     -16.468   5.475  -2.623  0.00  0.00    +0.000 C 
BRANCH  36  37
ATOM     37  C   UNL     1     -15.960   6.908  -2.816  0.00  0.00    +0.000 C 
ATOM     38  C   UNL     1     -15.591   8.042  -2.949  0.00  0.00    +0.000 C 
BRANCH  38  39
ATOM     39  C   UNL     1     -15.141   9.498  -3.101  0.00  0.00    +0.000 C 
ATOM     40  C   UNL     1     -14.798  10.644  -3.212  0.00  0.00    +0.000 C 
BRANCH  40  41
ATOM     41  C   UNL     1     -14.366  12.107  -3.345  0.00  0.00    +0.000 C 
ATOM     42  C   UNL     1     -13.990  13.380  -3.459  0.00  0.00    +0.000 C 
ENDBRANCH  40  41
ENDBRANCH  38  39
ENDBRANCH  36  37
ENDBRANCH  24  36
BRANCH  15  43
ATOM     43  O   UNL     1      -9.889   2.105  -2.254  0.00  0.00    +0.000 OA
BRANCH  43  45
ATOM     44  O   UNL     1      -9.613   1.061  -4.318  0.00  0.00    +0.000 OA
ATOM     45  C   UNL     1      -9.714   2.053  -3.610  0.00  0.00    +0.000 C 
BRANCH  45  46
ATOM     46  C   UNL     1      -9.647   3.361  -4.184  0.00  0.00    +0.000 C 
ATOM     47  C   UNL     1      -9.596   4.456  -4.667  0.00  0.00    +0.000 C 
ATOM     48  C   UNL     1      -9.516   5.854  -5.283  0.00  0.00    +0.000 C 
ENDBRANCH  45  46
ENDBRANCH  43  45
ENDBRANCH  15  43
TORSDOF 10
ENDMDL
MODEL 6
REMARK VINA RESULT:      -6.0     16.578     21.377
REMARK  Name = Thapsigargin.pdbqt.pdb
REMARK  10 active torsions:
REMARK  status: ('A' for Active; 'I' for Inactive)
REMARK    1  A    between atoms: O_2  and  C_24
REMARK    2  A    between atoms: C_17  and  O_43
REMARK    3  A    between atoms: C_19  and  C_24
REMARK    4  A    between atoms: C_19  and  O_47
REMARK    5  A    between atoms: C_27  and  C_35
REMARK    6  A    between atoms: C_35  and  C_36
REMARK    7  A    between atoms: C_37  and  C_38
REMARK    8  A    between atoms: C_39  and  C_40
REMARK    9  A    between atoms: C_42  and  O_43
REMARK   10  A    between atoms: C_42  and  C_44
REMARK                            x       y       z     vdW  Elec       q    Type
REMARK                         _______ _______ _______ _____ _____    ______ ____
ROOT
ATOM      1  O   UNL     1       0.609   2.104   4.799  0.00  0.00    +0.000 OA
ATOM      2  O   UNL     1      -2.989   3.634   0.171  0.00  0.00    +0.000 OA
ATOM      3  O   UNL     1      -0.675   4.381  -0.622  0.00  0.00    +0.000 OA
ATOM      4  O   UNL     1      -1.381   6.558   2.871  0.00  0.00    +0.000 OA
ATOM      5  O   UNL     1       1.875   0.580   5.938  0.00  0.00    +0.000 OA
ATOM      6  O   UNL     1      -0.915   2.964  -0.944  0.00  0.00    +0.000 OA
ATOM      7  O   UNL     1      -1.065   6.572  -1.644  0.00  0.00    +0.000 OA
ATOM      8  O   UNL     1       0.863   6.304   3.921  0.00  0.00    +0.000 OA
ATOM      9  C   UNL     1      -2.458   3.199   2.616  0.00  0.00    +0.000 C 
ATOM     10  C   UNL     1      -0.791   0.624   3.683  0.00  0.00    +0.000 C 
ATOM     11  C   UNL     1      -0.494   1.997   3.962  0.00  0.00    +0.000 C 
ATOM     12  C   UNL     1      -3.207   2.037   2.056  0.00  0.00    +0.000 C 
ATOM     13  C   UNL     1      -1.202   3.061   3.523  0.00  0.00    +0.000 C 
ATOM     14  C   UNL     1      -1.868   0.361   3.019  0.00  0.00    +0.000 C 
ATOM     15  C   UNL     1      -3.038   0.728   2.320  0.00  0.00    +0.000 C 
ATOM     16  C   UNL     1      -2.857   4.580   2.770  0.00  0.00    +0.000 C 
ATOM     17  C   UNL     1       0.193  -0.239   4.362  0.00  0.00    +0.000 C 
ATOM     18  C   UNL     1      -1.789   5.304   3.337  0.00  0.00    +0.000 C 
ATOM     19  C   UNL     1      -0.905   4.449   3.894  0.00  0.00    +0.000 C 
ATOM     20  C   UNL     1      -2.334   2.836   1.176  0.00  0.00    +0.000 C 
ATOM     21  C   UNL     1       0.998   0.823   5.114  0.00  0.00    +0.000 C 
ATOM     22  C   UNL     1       0.294   5.126   4.151  0.00  0.00    +0.000 C 
ATOM     23  C   UNL     1      -2.154   2.565  -0.295  0.00  0.00    +0.000 C 
ATOM     24  C   UNL     1      -1.028   5.184  -1.711  0.00  0.00    +0.000 C 
ATOM     25  C   UNL     1       0.035   6.841   2.891  0.00  0.00    +0.000 C 
ATOM     26  C   UNL     1      -2.932   1.482  -1.054  0.00  0.00    +0.000 C 
ATOM     27  C   UNL     1       0.609   7.390   1.800  0.00  0.00    +0.000 C 
ATOM     28  C   UNL     1       2.094   7.671   1.738  0.00  0.00    +0.000 C 
ATOM     29  C   UNL     1      -0.064   7.355   0.545  0.00  0.00    +0.000 C 
ATOM     30  C   UNL     1      -0.558   7.037  -0.504  0.00  0.00    +0.000 C 
ENDROOT
BRANCH  17  31
ATOM     31  O   UNL     1      -0.454  -1.158   5.225  0.00  0.00    +0.000 OA
ATOM     32  H   UNL     1      -0.412  -2.020   4.769  0.00  0.00    +0.000 HD
ENDBRANCH  17  31
BRANCH  17  33
ATOM     33  C   UNL     1       1.012  -0.971   3.379  0.00  0.00    +0.000 C 
BRANCH  33  34
ATOM     34  O   UNL     1       1.741  -1.620   2.473  0.00  0.00    +0.000 OA
ATOM     35  H   UNL     1       1.254  -1.716   1.633  0.00  0.00    +0.000 HD
ENDBRANCH  33  34
ENDBRANCH  17  33
BRANCH  24  36
ATOM     36  C   UNL     1      -1.526   4.673  -2.797  0.00  0.00    +0.000 C 
BRANCH  36  37
ATOM     37  C   UNL     1      -2.071   4.039  -4.081  0.00  0.00    +0.000 C 
ATOM     38  C   UNL     1      -2.527   3.529  -5.068  0.00  0.00    +0.000 C 
BRANCH  38  39
ATOM     39  C   UNL     1      -3.131   2.871  -6.312  0.00  0.00    +0.000 C 
ATOM     40  C   UNL     1      -3.592   2.345  -7.288  0.00  0.00    +0.000 C 
BRANCH  40  41
ATOM     41  C   UNL     1      -4.177   1.667  -8.531  0.00  0.00    +0.000 C 
ATOM     42  C   UNL     1      -4.685   1.076  -9.611  0.00  0.00    +0.000 C 
ENDBRANCH  40  41
ENDBRANCH  38  39
ENDBRANCH  36  37
ENDBRANCH  24  36
BRANCH  15  43
ATOM     43  O   UNL     1      -4.098  -0.174   2.170  0.00  0.00    +0.000 OA
BRANCH  43  45
ATOM     44  O   UNL     1      -4.389  -1.693   3.912  0.00  0.00    +0.000 OA
ATOM     45  C   UNL     1      -4.616  -0.629   3.351  0.00  0.00    +0.000 C 
BRANCH  45  46
ATOM     46  C   UNL     1      -5.527   0.312   3.927  0.00  0.00    +0.000 C 
ATOM     47  C   UNL     1      -6.287   1.098   4.414  0.00  0.00    +0.000 C 
ATOM     48  C   UNL     1      -7.266   2.105   5.023  0.00  0.00    +0.000 C 
ENDBRANCH  45  46
ENDBRANCH  43  45
ENDBRANCH  15  43
TORSDOF 10
ENDMDL
MODEL 7
REMARK VINA RESULT:      -6.0     17.533     22.479
REMARK  Name = Thapsigargin.pdbqt.pdb
REMARK  10 active torsions:
REMARK  status: ('A' for Active; 'I' for Inactive)
REMARK    1  A    between atoms: O_2  and  C_24
REMARK    2  A    between atoms: C_17  and  O_43
REMARK    3  A    between atoms: C_19  and  C_24
REMARK    4  A    between atoms: C_19  and  O_47
REMARK    5  A    between atoms: C_27  and  C_35
REMARK    6  A    between atoms: C_35  and  C_36
REMARK    7  A    between atoms: C_37  and  C_38
REMARK    8  A    between atoms: C_39  and  C_40
REMARK    9  A    between atoms: C_42  and  O_43
REMARK   10  A    between atoms: C_42  and  C_44
REMARK                            x       y       z     vdW  Elec       q    Type
REMARK                         _______ _______ _______ _____ _____    ______ ____
ROOT
ATOM      1  O   UNL     1      -5.486  18.967   2.561  0.00  0.00    +0.000 OA
ATOM      2  O   UNL     1      -1.286  17.015   6.466  0.00  0.00    +0.000 OA
ATOM      3  O   UNL     1       0.043  17.357   4.308  0.00  0.00    +0.000 OA
ATOM      4  O   UNL     1      -2.852  14.502   3.359  0.00  0.00    +0.000 OA
ATOM      5  O   UNL     1      -6.747  20.635   1.638  0.00  0.00    +0.000 OA
ATOM      6  O   UNL     1      -0.049  18.608   5.080  0.00  0.00    +0.000 OA
ATOM      7  O   UNL     1       1.507  15.399   4.183  0.00  0.00    +0.000 OA
ATOM      8  O   UNL     1      -3.545  15.405   1.143  0.00  0.00    +0.000 OA
ATOM      9  C   UNL     1      -3.639  17.185   5.525  0.00  0.00    +0.000 C 
ATOM     10  C   UNL     1      -5.030  19.972   4.605  0.00  0.00    +0.000 C 
ATOM     11  C   UNL     1      -4.899  18.790   3.808  0.00  0.00    +0.000 C 
ATOM     12  C   UNL     1      -3.523  18.052   6.732  0.00  0.00    +0.000 C 
ATOM     13  C   UNL     1      -4.329  17.631   4.204  0.00  0.00    +0.000 C 
ATOM     14  C   UNL     1      -4.643  19.916   5.837  0.00  0.00    +0.000 C 
ATOM     15  C   UNL     1      -4.078  19.259   6.951  0.00  0.00    +0.000 C 
ATOM     16  C   UNL     1      -3.502  15.752   5.387  0.00  0.00    +0.000 C 
ATOM     17  C   UNL     1      -5.732  21.012   3.831  0.00  0.00    +0.000 C 
ATOM     18  C   UNL     1      -3.682  15.403   4.033  0.00  0.00    +0.000 C 
ATOM     19  C   UNL     1      -4.282  16.420   3.378  0.00  0.00    +0.000 C 
ATOM     20  C   UNL     1      -2.337  17.813   5.889  0.00  0.00    +0.000 C 
ATOM     21  C   UNL     1      -6.046  20.223   2.558  0.00  0.00    +0.000 C 
ATOM     22  C   UNL     1      -4.157  16.217   1.997  0.00  0.00    +0.000 C 
ATOM     23  C   UNL     1      -0.974  18.385   6.179  0.00  0.00    +0.000 C 
ATOM     24  C   UNL     1       1.226  16.684   4.631  0.00  0.00    +0.000 C 
ATOM     25  C   UNL     1      -2.564  14.781   1.971  0.00  0.00    +0.000 C 
ATOM     26  C   UNL     1      -0.654  19.204   7.437  0.00  0.00    +0.000 C 
ATOM     27  C   UNL     1      -1.290  14.693   1.536  0.00  0.00    +0.000 C 
ATOM     28  C   UNL     1      -0.914  15.014   0.107  0.00  0.00    +0.000 C 
ATOM     29  C   UNL     1      -0.215  14.687   2.470  0.00  0.00    +0.000 C 
ATOM     30  C   UNL     1       0.622  14.970   3.285  0.00  0.00    +0.000 C 
ENDROOT
BRANCH  17  31
ATOM     31  O   UNL     1      -6.895  21.449   4.514  0.00  0.00    +0.000 OA
ATOM     32  H   UNL     1      -7.273  20.649   4.925  0.00  0.00    +0.000 HD
ENDBRANCH  17  31
BRANCH  17  33
ATOM     33  C   UNL     1      -4.845  22.161   3.574  0.00  0.00    +0.000 C 
BRANCH  33  34
ATOM     34  O   UNL     1      -4.034  23.197   3.365  0.00  0.00    +0.000 OA
ATOM     35  H   UNL     1      -3.099  22.936   3.460  0.00  0.00    +0.000 HD
ENDBRANCH  33  34
ENDBRANCH  17  33
BRANCH  24  36
ATOM     36  C   UNL     1       2.049  17.148   5.522  0.00  0.00    +0.000 C 
BRANCH  36  37
ATOM     37  C   UNL     1       2.995  17.740   6.572  0.00  0.00    +0.000 C 
ATOM     38  C   UNL     1       3.729  18.176   7.416  0.00  0.00    +0.000 C 
BRANCH  38  39
ATOM     39  C   UNL     1       4.662  18.710   8.508  0.00  0.00    +0.000 C 
ATOM     40  C   UNL     1       5.391  19.141   9.358  0.00  0.00    +0.000 C 
BRANCH  40  41
ATOM     41  C   UNL     1       6.318  19.699  10.442  0.00  0.00    +0.000 C 
ATOM     42  C   UNL     1       7.126  20.187  11.383  0.00  0.00    +0.000 C 
ENDBRANCH  40  41
ENDBRANCH  38  39
ENDBRANCH  36  37
ENDBRANCH  24  36
BRANCH  15  43
ATOM     43  O   UNL     1      -4.339  19.700   8.254  0.00  0.00    +0.000 OA
BRANCH  43  45
ATOM     44  O   UNL     1      -6.634  20.040   8.459  0.00  0.00    +0.000 OA
ATOM     45  C   UNL     1      -5.605  19.424   8.694  0.00  0.00    +0.000 C 
BRANCH  45  46
ATOM     46  C   UNL     1      -5.632  18.261   9.528  0.00  0.00    +0.000 C 
ATOM     47  C   UNL     1      -5.658  17.286  10.222  0.00  0.00    +0.000 C 
ATOM     48  C   UNL     1      -5.686  16.047  11.120  0.00  0.00    +0.000 C 
ENDBRANCH  45  46
ENDBRANCH  43  45
ENDBRANCH  15  43
TORSDOF 10
ENDMDL
MODEL 8
REMARK VINA RESULT:      -5.9      9.013     14.943
REMARK  Name = Thapsigargin.pdbqt.pdb
REMARK  10 active torsions:
REMARK  status: ('A' for Active; 'I' for Inactive)
REMARK    1  A    between atoms: O_2  and  C_24
REMARK    2  A    between atoms: C_17  and  O_43
REMARK    3  A    between atoms: C_19  and  C_24
REMARK    4  A    between atoms: C_19  and  O_47
REMARK    5  A    between atoms: C_27  and  C_35
REMARK    6  A    between atoms: C_35  and  C_36
REMARK    7  A    between atoms: C_37  and  C_38
REMARK    8  A    between atoms: C_39  and  C_40
REMARK    9  A    between atoms: C_42  and  O_43
REMARK   10  A    between atoms: C_42  and  C_44
REMARK                            x       y       z     vdW  Elec       q    Type
REMARK                         _______ _______ _______ _____ _____    ______ ____
ROOT
ATOM      1  O   UNL     1     -27.538   2.854  16.744  0.00  0.00    +0.000 OA
ATOM      2  O   UNL     1     -21.519   3.460  17.063  0.00  0.00    +0.000 OA
ATOM      3  O   UNL     1     -22.376   5.480  18.377  0.00  0.00    +0.000 OA
ATOM      4  O   UNL     1     -23.929   5.950  14.530  0.00  0.00    +0.000 OA
ATOM      5  O   UNL     1     -29.509   1.971  17.493  0.00  0.00    +0.000 OA
ATOM      6  O   UNL     1     -22.270   4.290  19.239  0.00  0.00    +0.000 OA
ATOM      7  O   UNL     1     -20.947   7.328  17.644  0.00  0.00    +0.000 OA
ATOM      8  O   UNL     1     -26.244   6.629  15.150  0.00  0.00    +0.000 OA
ATOM      9  C   UNL     1     -23.695   2.731  15.976  0.00  0.00    +0.000 C 
ATOM     10  C   UNL     1     -26.098   1.222  17.558  0.00  0.00    +0.000 C 
ATOM     11  C   UNL     1     -26.220   2.417  16.777  0.00  0.00    +0.000 C 
ATOM     12  C   UNL     1     -23.026   1.548  16.590  0.00  0.00    +0.000 C 
ATOM     13  C   UNL     1     -25.216   3.030  16.113  0.00  0.00    +0.000 C 
ATOM     14  C   UNL     1     -24.952   0.626  17.575  0.00  0.00    +0.000 C 
ATOM     15  C   UNL     1     -23.591   0.502  17.223  0.00  0.00    +0.000 C 
ATOM     16  C   UNL     1     -23.256   3.604  14.911  0.00  0.00    +0.000 C 
ATOM     17  C   UNL     1     -27.419   0.852  18.098  0.00  0.00    +0.000 C 
ATOM     18  C   UNL     1     -24.235   4.596  14.700  0.00  0.00    +0.000 C 
ATOM     19  C   UNL     1     -25.400   4.212  15.264  0.00  0.00    +0.000 C 
ATOM     20  C   UNL     1     -22.834   2.885  17.183  0.00  0.00    +0.000 C 
ATOM     21  C   UNL     1     -28.283   1.932  17.442  0.00  0.00    +0.000 C 
ATOM     22  C   UNL     1     -26.258   5.316  15.349  0.00  0.00    +0.000 C 
ATOM     23  C   UNL     1     -21.970   3.150  18.388  0.00  0.00    +0.000 C 
ATOM     24  C   UNL     1     -21.203   6.239  18.467  0.00  0.00    +0.000 C 
ATOM     25  C   UNL     1     -24.846   6.910  15.099  0.00  0.00    +0.000 C 
ATOM     26  C   UNL     1     -21.125   2.069  19.074  0.00  0.00    +0.000 C 
ATOM     27  C   UNL     1     -24.352   7.944  15.812  0.00  0.00    +0.000 C 
ATOM     28  C   UNL     1     -25.258   8.960  16.471  0.00  0.00    +0.000 C 
ATOM     29  C   UNL     1     -23.016   7.901  16.302  0.00  0.00    +0.000 C 
ATOM     30  C   UNL     1     -22.003   7.666  16.906  0.00  0.00    +0.000 C 
ENDROOT
BRANCH  17  31
ATOM     31  O   UNL     1     -27.776  -0.461  17.699  0.00  0.00    +0.000 OA
ATOM     32  H   UNL     1     -26.984  -0.827  17.264  0.00  0.00    +0.000 HD
ENDBRANCH  17  31
BRANCH  17  33
ATOM     33  C   UNL     1     -27.427   0.945  19.569  0.00  0.00    +0.000 C 
BRANCH  33  34
ATOM     34  O   UNL     1     -27.455   1.040  20.897  0.00  0.00    +0.000 OA
ATOM     35  H   UNL     1     -26.851   1.739  21.212  0.00  0.00    +0.000 HD
ENDBRANCH  33  34
ENDBRANCH  17  33
BRANCH  24  36
ATOM     36  C   UNL     1     -20.201   5.855  19.199  0.00  0.00    +0.000 C 
BRANCH  36  37
ATOM     37  C   UNL     1     -19.018   5.448  20.083  0.00  0.00    +0.000 C 
ATOM     38  C   UNL     1     -18.078   5.163  20.773  0.00  0.00    +0.000 C 
BRANCH  38  39
ATOM     39  C   UNL     1     -16.869   4.826  21.652  0.00  0.00    +0.000 C 
ATOM     40  C   UNL     1     -15.930   4.550  22.347  0.00  0.00    +0.000 C 
BRANCH  40  41
ATOM     41  C   UNL     1     -14.734   4.191  23.234  0.00  0.00    +0.000 C 
ATOM     42  C   UNL     1     -13.695   3.877  24.007  0.00  0.00    +0.000 C 
ENDBRANCH  40  41
ENDBRANCH  38  39
ENDBRANCH  36  37
ENDBRANCH  24  36
BRANCH  15  43
ATOM     43  O   UNL     1     -22.948  -0.740  17.264  0.00  0.00    +0.000 OA
BRANCH  43  45
ATOM     44  O   UNL     1     -23.449  -1.553  15.139  0.00  0.00    +0.000 OA
ATOM     45  C   UNL     1     -22.665  -1.264  16.032  0.00  0.00    +0.000 C 
BRANCH  45  46
ATOM     46  C   UNL     1     -21.260  -1.471  15.856  0.00  0.00    +0.000 C 
ATOM     47  C   UNL     1     -20.086  -1.645  15.703  0.00  0.00    +0.000 C 
ATOM     48  C   UNL     1     -18.583  -1.871  15.523  0.00  0.00    +0.000 C 
ENDBRANCH  45  46
ENDBRANCH  43  45
ENDBRANCH  15  43
TORSDOF 10
ENDMDL
MODEL 9
REMARK VINA RESULT:      -5.9     23.362     27.227
REMARK  Name = Thapsigargin.pdbqt.pdb
REMARK  10 active torsions:
REMARK  status: ('A' for Active; 'I' for Inactive)
REMARK    1  A    between atoms: O_2  and  C_24
REMARK    2  A    between atoms: C_17  and  O_43
REMARK    3  A    between atoms: C_19  and  C_24
REMARK    4  A    between atoms: C_19  and  O_47
REMARK    5  A    between atoms: C_27  and  C_35
REMARK    6  A    between atoms: C_35  and  C_36
REMARK    7  A    between atoms: C_37  and  C_38
REMARK    8  A    between atoms: C_39  and  C_40
REMARK    9  A    between atoms: C_42  and  O_43
REMARK   10  A    between atoms: C_42  and  C_44
REMARK                            x       y       z     vdW  Elec       q    Type
REMARK                         _______ _______ _______ _____ _____    ______ ____
ROOT
ATOM      1  O   UNL     1     -14.261  12.537  -1.978  0.00  0.00    +0.000 OA
ATOM      2  O   UNL     1     -16.644   8.358  -5.662  0.00  0.00    +0.000 OA
ATOM      3  O   UNL     1     -18.704   9.429  -4.588  0.00  0.00    +0.000 OA
ATOM      4  O   UNL     1     -16.523   7.839  -1.403  0.00  0.00    +0.000 OA
ATOM      5  O   UNL     1     -13.409  14.623  -1.595  0.00  0.00    +0.000 OA
ATOM      6  O   UNL     1     -18.271  10.184  -5.776  0.00  0.00    +0.000 OA
ATOM      7  O   UNL     1     -20.167   7.535  -4.069  0.00  0.00    +0.000 OA
ATOM      8  O   UNL     1     -16.729   9.755   0.175  0.00  0.00    +0.000 OA
ATOM      9  C   UNL     1     -14.850   9.322  -4.144  0.00  0.00    +0.000 C 
ATOM     10  C   UNL     1     -13.837  12.406  -4.259  0.00  0.00    +0.000 C 
ATOM     11  C   UNL     1     -14.315  11.716  -3.098  0.00  0.00    +0.000 C 
ATOM     12  C   UNL     1     -14.448   9.509  -5.568  0.00  0.00    +0.000 C 
ATOM     13  C   UNL     1     -14.722  10.429  -3.058  0.00  0.00    +0.000 C 
ATOM     14  C   UNL     1     -13.708  11.730  -5.353  0.00  0.00    +0.000 C 
ATOM     15  C   UNL     1     -13.810  10.554  -6.126  0.00  0.00    +0.000 C 
ATOM     16  C   UNL     1     -15.080   8.110  -3.390  0.00  0.00    +0.000 C 
ATOM     17  C   UNL     1     -13.461  13.783  -3.892  0.00  0.00    +0.000 C 
ATOM     18  C   UNL     1     -15.463   8.454  -2.077  0.00  0.00    +0.000 C 
ATOM     19  C   UNL     1     -15.134   9.740  -1.830  0.00  0.00    +0.000 C 
ATOM     20  C   UNL     1     -15.879   9.492  -5.209  0.00  0.00    +0.000 C 
ATOM     21  C   UNL     1     -13.704  13.728  -2.382  0.00  0.00    +0.000 C 
ATOM     22  C   UNL     1     -15.802  10.174  -0.677  0.00  0.00    +0.000 C 
ATOM     23  C   UNL     1     -16.995   9.637  -6.209  0.00  0.00    +0.000 C 
ATOM     24  C   UNL     1     -19.687   8.499  -4.946  0.00  0.00    +0.000 C 
ATOM     25  C   UNL     1     -17.325   8.671  -0.536  0.00  0.00    +0.000 C 
ATOM     26  C   UNL     1     -16.764   9.725  -7.724  0.00  0.00    +0.000 C 
ATOM     27  C   UNL     1     -18.669   8.585  -0.607  0.00  0.00    +0.000 C 
ATOM     28  C   UNL     1     -19.568   9.459   0.240  0.00  0.00    +0.000 C 
ATOM     29  C   UNL     1     -19.288   7.978  -1.737  0.00  0.00    +0.000 C 
ATOM     30  C   UNL     1     -19.725   7.716  -2.826  0.00  0.00    +0.000 C 
ENDROOT
BRANCH  17  31
ATOM     31  O   UNL     1     -12.109  14.043  -4.227  0.00  0.00    +0.000 OA
ATOM     32  H   UNL     1     -11.578  13.578  -3.553  0.00  0.00    +0.000 HD
ENDBRANCH  17  31
BRANCH  17  33
ATOM     33  C   UNL     1     -14.337  14.760  -4.564  0.00  0.00    +0.000 C 
BRANCH  33  34
ATOM     34  O   UNL     1     -15.145  15.640  -5.154  0.00  0.00    +0.000 OA
ATOM     35  H   UNL     1     -15.186  15.489  -6.117  0.00  0.00    +0.000 HD
ENDBRANCH  33  34
ENDBRANCH  17  33
BRANCH  24  36
ATOM     36  C   UNL     1     -20.074   8.363  -6.179  0.00  0.00    +0.000 C 
BRANCH  36  37
ATOM     37  C   UNL     1     -20.492   8.169  -7.640  0.00  0.00    +0.000 C 
ATOM     38  C   UNL     1     -20.825   8.053  -8.788  0.00  0.00    +0.000 C 
BRANCH  38  39
ATOM     39  C   UNL     1     -21.252   7.933 -10.254  0.00  0.00    +0.000 C 
ATOM     40  C   UNL     1     -21.595   7.827 -11.400  0.00  0.00    +0.000 C 
BRANCH  40  41
ATOM     41  C   UNL     1     -22.040   7.689 -12.859  0.00  0.00    +0.000 C 
ATOM     42  C   UNL     1     -22.425   7.567 -14.128  0.00  0.00    +0.000 C 
ENDBRANCH  40  41
ENDBRANCH  38  39
ENDBRANCH  36  37
ENDBRANCH  24  36
BRANCH  15  43
ATOM     43  O   UNL     1     -13.040  10.386  -7.283  0.00  0.00    +0.000 OA
BRANCH  43  45
ATOM     44  O   UNL     1     -11.866   8.384  -7.091  0.00  0.00    +0.000 OA
ATOM     45  C   UNL     1     -11.931   9.605  -7.108  0.00  0.00    +0.000 C 
BRANCH  45  46
ATOM     46  C   UNL     1     -10.752  10.395  -6.923  0.00  0.00    +0.000 C 
ATOM     47  C   UNL     1      -9.767  11.058  -6.773  0.00  0.00    +0.000 C 
ATOM     48  C   UNL     1      -8.503  11.897  -6.572  0.00  0.00    +0.000 C 
ENDBRANCH  45  46
ENDBRANCH  43  45
ENDBRANCH  15  43
TORSDOF 10
ENDMDL
