MODEL 1
REMARK VINA RESULT:      -5.5      0.000      0.000
REMARK  Name = Thioguanosine.pdbqt.pdb
REMARK  5 active torsions:
REMARK  status: ('A' for Active; 'I' for Inactive)
REMARK    1  A    between atoms: N_2  and  C1*_12
REMARK    2  A    between atoms: C4*_14  and  C5*_17
REMARK    3  A    between atoms: C3*_15  and  O3*_20
REMARK    4  A    between atoms: C2*_16  and  O2*_22
REMARK    5  A    between atoms: C5*_17  and  O5*_18
REMARK                            x       y       z     vdW  Elec       q    Type
REMARK                         _______ _______ _______ _____ _____    ______ ____
ROOT
ATOM      1  S   UNL     1     -28.355  10.660  19.034  0.00  0.00    +0.000 S 
ATOM      2  N   UNL     1     -23.748   9.403  17.944  0.00  0.00    +0.000 N 
ATOM      3  N   UNL     1     -25.478   8.225  16.649  0.00  0.00    +0.000 N 
ATOM      4  N   UNL     1     -25.168  10.687  19.152  0.00  0.00    +0.000 NA
ATOM      5  N   UNL     1     -27.735   8.766  17.170  0.00  0.00    +0.000 NA
ATOM      6  C   UNL     1     -25.032   9.103  17.566  0.00  0.00    +0.000 A 
ATOM      7  C   UNL     1     -23.908  10.393  18.902  0.00  0.00    +0.000 A 
ATOM      8  C   UNL     1     -25.888   9.869  18.315  0.00  0.00    +0.000 A 
ATOM      9  C   UNL     1     -27.330   9.708  18.119  0.00  0.00    +0.000 A 
ATOM     10  C   UNL     1     -26.833   8.103  16.506  0.00  0.00    +0.000 A 
ATOM     11  H   UNL     1     -24.857   7.623  16.114  0.00  0.00    +0.000 HD
ATOM     12  N   UNL     1     -27.200   7.188  15.576  0.00  0.00    +0.000 N 
ATOM     13  H   UNL     1     -26.703   7.265  14.698  0.00  0.00    +0.000 HD
ATOM     14  H   UNL     1     -28.205   7.221  15.422  0.00  0.00    +0.000 HD
ENDROOT
BRANCH   2  15
ATOM     15  C1* UNL     1     -22.538   8.876  17.535  0.00  0.00    +0.000 A 
ATOM     16  O4* UNL     1     -21.575   9.657  16.852  0.00  0.00    +0.000 OA
ATOM     17  C4* UNL     1     -20.459   8.858  16.551  0.00  0.00    +0.000 A 
ATOM     18  C3* UNL     1     -20.706   7.537  17.056  0.00  0.00    +0.000 A 
ATOM     19  C2* UNL     1     -21.993   7.549  17.678  0.00  0.00    +0.000 A 
BRANCH  18  20
ATOM     20  O3* UNL     1     -20.238   6.399  16.457  0.00  0.00    +0.000 OA
ATOM     21  H3* UNL     1     -19.394   6.558  15.994  0.00  0.00    +0.000 HD
ENDBRANCH  18  20
BRANCH  19  22
ATOM     22  O2* UNL     1     -22.769   6.422  17.699  0.00  0.00    +0.000 OA
ATOM     23  H2* UNL     1     -23.299   6.378  16.877  0.00  0.00    +0.000 HD
ENDBRANCH  19  22
BRANCH  17  24
ATOM     24  C5* UNL     1     -19.446   9.267  15.665  0.00  0.00    +0.000 C 
BRANCH  24  25
ATOM     25  O5* UNL     1     -18.503   9.669  14.819  0.00  0.00    +0.000 OA
ATOM     26  H5* UNL     1     -17.667   9.199  14.990  0.00  0.00    +0.000 HD
ENDBRANCH  24  25
ENDBRANCH  17  24
ENDBRANCH   2  15
TORSDOF 5
ENDMDL
MODEL 2
REMARK VINA RESULT:      -5.0     24.913     26.009
REMARK  Name = Thioguanosine.pdbqt.pdb
REMARK  5 active torsions:
REMARK  status: ('A' for Active; 'I' for Inactive)
REMARK    1  A    between atoms: N_2  and  C1*_12
REMARK    2  A    between atoms: C4*_14  and  C5*_17
REMARK    3  A    between atoms: C3*_15  and  O3*_20
REMARK    4  A    between atoms: C2*_16  and  O2*_22
REMARK    5  A    between atoms: C5*_17  and  O5*_18
REMARK                            x       y       z     vdW  Elec       q    Type
REMARK                         _______ _______ _______ _____ _____    ______ ____
ROOT
ATOM      1  S   UNL     1      -7.217  19.740  -0.657  0.00  0.00    +0.000 S 
ATOM      2  N   UNL     1      -4.130  17.287   2.250  0.00  0.00    +0.000 N 
ATOM      3  N   UNL     1      -5.623  15.875   0.895  0.00  0.00    +0.000 N 
ATOM      4  N   UNL     1      -4.881  19.273   1.464  0.00  0.00    +0.000 NA
ATOM      5  N   UNL     1      -7.172  17.017  -0.502  0.00  0.00    +0.000 NA
ATOM      6  C   UNL     1      -5.118  17.044   1.330  0.00  0.00    +0.000 A 
ATOM      7  C   UNL     1      -4.026  18.670   2.265  0.00  0.00    +0.000 A 
ATOM      8  C   UNL     1      -5.583  18.251   0.873  0.00  0.00    +0.000 A 
ATOM      9  C   UNL     1      -6.674  18.259  -0.104  0.00  0.00    +0.000 A 
ATOM     10  C   UNL     1      -6.646  15.932  -0.012  0.00  0.00    +0.000 A 
ATOM     11  H   UNL     1      -5.315  14.974   1.253  0.00  0.00    +0.000 HD
ATOM     12  N   UNL     1      -7.107  14.715  -0.386  0.00  0.00    +0.000 N 
ATOM     13  H   UNL     1      -6.384  14.051  -0.631  0.00  0.00    +0.000 HD
ATOM     14  H   UNL     1      -7.779  14.807  -1.145  0.00  0.00    +0.000 HD
ENDROOT
BRANCH   2  15
ATOM     15  C1* UNL     1      -3.388  16.422   3.030  0.00  0.00    +0.000 A 
ATOM     16  O4* UNL     1      -1.975  16.373   2.957  0.00  0.00    +0.000 OA
ATOM     17  C4* UNL     1      -1.498  15.397   3.847  0.00  0.00    +0.000 A 
ATOM     18  C3* UNL     1      -2.625  14.810   4.513  0.00  0.00    +0.000 A 
ATOM     19  C2* UNL     1      -3.802  15.453   4.015  0.00  0.00    +0.000 A 
BRANCH  18  20
ATOM     20  O3* UNL     1      -2.670  13.501   4.913  0.00  0.00    +0.000 OA
ATOM     21  H3* UNL     1      -1.860  13.021   4.660  0.00  0.00    +0.000 HD
ENDBRANCH  18  20
BRANCH  19  22
ATOM     22  O2* UNL     1      -4.991  14.780   3.946  0.00  0.00    +0.000 OA
ATOM     23  H2* UNL     1      -5.348  14.660   4.849  0.00  0.00    +0.000 HD
ENDBRANCH  19  22
BRANCH  17  24
ATOM     24  C5* UNL     1      -0.170  14.934   3.830  0.00  0.00    +0.000 C 
BRANCH  24  25
ATOM     25  O5* UNL     1       1.090  14.512   3.797  0.00  0.00    +0.000 OA
ATOM     26  H5* UNL     1       1.587  14.860   4.559  0.00  0.00    +0.000 HD
ENDBRANCH  24  25
ENDBRANCH  17  24
ENDBRANCH   2  15
TORSDOF 5
ENDMDL
MODEL 3
REMARK VINA RESULT:      -4.8      8.079     10.080
REMARK  Name = Thioguanosine.pdbqt.pdb
REMARK  5 active torsions:
REMARK  status: ('A' for Active; 'I' for Inactive)
REMARK    1  A    between atoms: N_2  and  C1*_12
REMARK    2  A    between atoms: C4*_14  and  C5*_17
REMARK    3  A    between atoms: C3*_15  and  O3*_20
REMARK    4  A    between atoms: C2*_16  and  O2*_22
REMARK    5  A    between atoms: C5*_17  and  O5*_18
REMARK                            x       y       z     vdW  Elec       q    Type
REMARK                         _______ _______ _______ _____ _____    ______ ____
ROOT
ATOM      1  S   UNL     1     -13.917   5.367  25.174  0.00  0.00    +0.000 S 
ATOM      2  N   UNL     1     -17.910   5.088  22.351  0.00  0.00    +0.000 N 
ATOM      3  N   UNL     1     -15.826   4.334  21.279  0.00  0.00    +0.000 N 
ATOM      4  N   UNL     1     -16.991   5.592  24.358  0.00  0.00    +0.000 NA
ATOM      5  N   UNL     1     -13.850   4.490  22.592  0.00  0.00    +0.000 NA
ATOM      6  C   UNL     1     -16.566   4.818  22.293  0.00  0.00    +0.000 A 
ATOM      7  C   UNL     1     -18.101   5.538  23.648  0.00  0.00    +0.000 A 
ATOM      8  C   UNL     1     -16.012   5.144  23.505  0.00  0.00    +0.000 A 
ATOM      9  C   UNL     1     -14.569   4.975  23.686  0.00  0.00    +0.000 A 
ATOM     10  C   UNL     1     -14.481   4.199  21.492  0.00  0.00    +0.000 A 
ATOM     11  H   UNL     1     -16.216   4.124  20.363  0.00  0.00    +0.000 HD
ATOM     12  N   UNL     1     -13.808   3.722  20.418  0.00  0.00    +0.000 N 
ATOM     13  H   UNL     1     -14.233   2.913  19.985  0.00  0.00    +0.000 HD
ATOM     14  H   UNL     1     -12.839   3.528  20.664  0.00  0.00    +0.000 HD
ENDROOT
BRANCH   2  15
ATOM     15  C1* UNL     1     -18.895   4.985  21.388  0.00  0.00    +0.000 A 
ATOM     16  O4* UNL     1     -18.711   5.477  20.074  0.00  0.00    +0.000 OA
ATOM     17  C4* UNL     1     -19.877   5.248  19.325  0.00  0.00    +0.000 A 
ATOM     18  C3* UNL     1     -20.829   4.587  20.172  0.00  0.00    +0.000 A 
ATOM     19  C2* UNL     1     -20.217   4.413  21.452  0.00  0.00    +0.000 A 
BRANCH  18  20
ATOM     20  O3* UNL     1     -22.183   4.767  20.072  0.00  0.00    +0.000 OA
ATOM     21  H3* UNL     1     -22.449   4.981  19.158  0.00  0.00    +0.000 HD
ENDBRANCH  18  20
BRANCH  19  22
ATOM     22  O2* UNL     1     -20.972   4.406  22.593  0.00  0.00    +0.000 OA
ATOM     23  H2* UNL     1     -20.508   4.910  23.292  0.00  0.00    +0.000 HD
ENDBRANCH  19  22
BRANCH  17  24
ATOM     24  C5* UNL     1     -20.104   5.837  18.068  0.00  0.00    +0.000 C 
BRANCH  24  25
ATOM     25  O5* UNL     1     -20.312   6.375  16.871  0.00  0.00    +0.000 OA
ATOM     26  H5* UNL     1     -19.615   7.020  16.659  0.00  0.00    +0.000 HD
ENDBRANCH  24  25
ENDBRANCH  17  24
ENDBRANCH   2  15
TORSDOF 5
ENDMDL
MODEL 4
REMARK VINA RESULT:      -4.8      5.360      7.063
REMARK  Name = Thioguanosine.pdbqt.pdb
REMARK  5 active torsions:
REMARK  status: ('A' for Active; 'I' for Inactive)
REMARK    1  A    between atoms: N_2  and  C1*_12
REMARK    2  A    between atoms: C4*_14  and  C5*_17
REMARK    3  A    between atoms: C3*_15  and  O3*_20
REMARK    4  A    between atoms: C2*_16  and  O2*_22
REMARK    5  A    between atoms: C5*_17  and  O5*_18
REMARK                            x       y       z     vdW  Elec       q    Type
REMARK                         _______ _______ _______ _____ _____    ______ ____
ROOT
ATOM      1  S   UNL     1     -20.875   2.288  23.682  0.00  0.00    +0.000 S 
ATOM      2  N   UNL     1     -21.488   5.010  19.656  0.00  0.00    +0.000 N 
ATOM      3  N   UNL     1     -19.305   5.271  20.762  0.00  0.00    +0.000 N 
ATOM      4  N   UNL     1     -22.314   3.466  21.091  0.00  0.00    +0.000 NA
ATOM      5  N   UNL     1     -18.972   4.004  22.747  0.00  0.00    +0.000 NA
ATOM      6  C   UNL     1     -20.539   4.756  20.613  0.00  0.00    +0.000 A 
ATOM      7  C   UNL     1     -22.537   4.171  20.000  0.00  0.00    +0.000 A 
ATOM      8  C   UNL     1     -21.053   3.835  21.490  0.00  0.00    +0.000 A 
ATOM      9  C   UNL     1     -20.235   3.420  22.631  0.00  0.00    +0.000 A 
ATOM     10  C   UNL     1     -18.580   4.859  21.847  0.00  0.00    +0.000 A 
ATOM     11  H   UNL     1     -18.925   5.983  20.142  0.00  0.00    +0.000 HD
ATOM     12  N   UNL     1     -17.357   5.436  21.933  0.00  0.00    +0.000 N 
ATOM     13  H   UNL     1     -16.832   5.432  21.068  0.00  0.00    +0.000 HD
ATOM     14  H   UNL     1     -16.815   5.010  22.681  0.00  0.00    +0.000 HD
ENDROOT
BRANCH   2  15
ATOM     15  C1* UNL     1     -21.485   5.888  18.590  0.00  0.00    +0.000 A 
ATOM     16  O4* UNL     1     -20.282   6.375  18.026  0.00  0.00    +0.000 OA
ATOM     17  C4* UNL     1     -20.585   7.256  16.974  0.00  0.00    +0.000 A 
ATOM     18  C3* UNL     1     -22.013   7.332  16.852  0.00  0.00    +0.000 A 
ATOM     19  C2* UNL     1     -22.575   6.474  17.849  0.00  0.00    +0.000 A 
BRANCH  18  20
ATOM     20  O3* UNL     1     -22.679   8.460  16.457  0.00  0.00    +0.000 OA
ATOM     21  H3* UNL     1     -22.160   8.975  15.811  0.00  0.00    +0.000 HD
ENDBRANCH  18  20
BRANCH  19  22
ATOM     22  O2* UNL     1     -23.791   6.757  18.410  0.00  0.00    +0.000 OA
ATOM     23  H2* UNL     1     -24.449   6.100  18.104  0.00  0.00    +0.000 HD
ENDBRANCH  19  22
BRANCH  17  24
ATOM     24  C5* UNL     1     -19.624   8.092  16.378  0.00  0.00    +0.000 C 
BRANCH  24  25
ATOM     25  O5* UNL     1     -18.724   8.900  15.827  0.00  0.00    +0.000 OA
ATOM     26  H5* UNL     1     -19.104   9.784  15.677  0.00  0.00    +0.000 HD
ENDBRANCH  24  25
ENDBRANCH  17  24
ENDBRANCH   2  15
TORSDOF 5
ENDMDL
MODEL 5
REMARK VINA RESULT:      -4.6     25.200     25.670
REMARK  Name = Thioguanosine.pdbqt.pdb
REMARK  5 active torsions:
REMARK  status: ('A' for Active; 'I' for Inactive)
REMARK    1  A    between atoms: N_2  and  C1*_12
REMARK    2  A    between atoms: C4*_14  and  C5*_17
REMARK    3  A    between atoms: C3*_15  and  O3*_20
REMARK    4  A    between atoms: C2*_16  and  O2*_22
REMARK    5  A    between atoms: C5*_17  and  O5*_18
REMARK                            x       y       z     vdW  Elec       q    Type
REMARK                         _______ _______ _______ _____ _____    ______ ____
ROOT
ATOM      1  S   UNL     1      -7.983  19.364  -1.996  0.00  0.00    +0.000 S 
ATOM      2  N   UNL     1      -5.295  18.105   1.901  0.00  0.00    +0.000 N 
ATOM      3  N   UNL     1      -6.000  16.226   0.476  0.00  0.00    +0.000 N 
ATOM      4  N   UNL     1      -6.253  19.737   0.657  0.00  0.00    +0.000 NA
ATOM      5  N   UNL     1      -7.345  16.778  -1.407  0.00  0.00    +0.000 NA
ATOM      6  C   UNL     1      -5.917  17.522   0.826  0.00  0.00    +0.000 A 
ATOM      7  C   UNL     1      -5.525  19.460   1.721  0.00  0.00    +0.000 A 
ATOM      8  C   UNL     1      -6.513  18.514   0.088  0.00  0.00    +0.000 A 
ATOM      9  C   UNL     1      -7.275  18.140  -1.105  0.00  0.00    +0.000 A 
ATOM     10  C   UNL     1      -6.729  15.924  -0.642  0.00  0.00    +0.000 A 
ATOM     11  H   UNL     1      -5.597  15.477   1.033  0.00  0.00    +0.000 HD
ATOM     12  N   UNL     1      -6.776  14.598  -0.916  0.00  0.00    +0.000 N 
ATOM     13  H   UNL     1      -5.879  14.132  -0.878  0.00  0.00    +0.000 HD
ATOM     14  H   UNL     1      -7.224  14.436  -1.816  0.00  0.00    +0.000 HD
ENDROOT
BRANCH   2  15
ATOM     15  C1* UNL     1      -4.606  17.545   2.959  0.00  0.00    +0.000 A 
ATOM     16  O4* UNL     1      -3.979  16.280   2.858  0.00  0.00    +0.000 OA
ATOM     17  C4* UNL     1      -3.373  15.964   4.085  0.00  0.00    +0.000 A 
ATOM     18  C3* UNL     1      -3.606  17.051   4.993  0.00  0.00    +0.000 A 
ATOM     19  C2* UNL     1      -4.364  18.041   4.292  0.00  0.00    +0.000 A 
BRANCH  18  20
ATOM     20  O3* UNL     1      -3.764  16.888   6.343  0.00  0.00    +0.000 OA
ATOM     21  H3* UNL     1      -2.965  17.159   6.832  0.00  0.00    +0.000 HD
ENDBRANCH  18  20
BRANCH  19  22
ATOM     22  O2* UNL     1      -5.243  18.850   4.958  0.00  0.00    +0.000 OA
ATOM     23  H2* UNL     1      -5.810  19.315   4.309  0.00  0.00    +0.000 HD
ENDBRANCH  19  22
BRANCH  17  24
ATOM     24  C5* UNL     1      -2.887  14.679   4.386  0.00  0.00    +0.000 C 
BRANCH  24  25
ATOM     25  O5* UNL     1      -2.406  13.473   4.673  0.00  0.00    +0.000 OA
ATOM     26  H5* UNL     1      -2.411  13.322   5.635  0.00  0.00    +0.000 HD
ENDBRANCH  24  25
ENDBRANCH  17  24
ENDBRANCH   2  15
TORSDOF 5
ENDMDL
MODEL 6
REMARK VINA RESULT:      -4.4      7.471      8.744
REMARK  Name = Thioguanosine.pdbqt.pdb
REMARK  5 active torsions:
REMARK  status: ('A' for Active; 'I' for Inactive)
REMARK    1  A    between atoms: N_2  and  C1*_12
REMARK    2  A    between atoms: C4*_14  and  C5*_17
REMARK    3  A    between atoms: C3*_15  and  O3*_20
REMARK    4  A    between atoms: C2*_16  and  O2*_22
REMARK    5  A    between atoms: C5*_17  and  O5*_18
REMARK                            x       y       z     vdW  Elec       q    Type
REMARK                         _______ _______ _______ _____ _____    ______ ____
ROOT
ATOM      1  S   UNL     1     -28.726   5.871  10.677  0.00  0.00    +0.000 S 
ATOM      2  N   UNL     1     -24.708   3.074  10.526  0.00  0.00    +0.000 N 
ATOM      3  N   UNL     1     -24.900   4.509  12.518  0.00  0.00    +0.000 N 
ATOM      4  N   UNL     1     -26.660   3.708   9.571  0.00  0.00    +0.000 NA
ATOM      5  N   UNL     1     -26.811   5.919  12.619  0.00  0.00    +0.000 NA
ATOM      6  C   UNL     1     -25.308   4.001  11.340  0.00  0.00    +0.000 A 
ATOM      7  C   UNL     1     -25.600   2.930   9.475  0.00  0.00    +0.000 A 
ATOM      8  C   UNL     1     -26.480   4.396  10.746  0.00  0.00    +0.000 A 
ATOM      9  C   UNL     1     -27.296   5.413  11.411  0.00  0.00    +0.000 A 
ATOM     10  C   UNL     1     -25.691   5.462  13.098  0.00  0.00    +0.000 A 
ATOM     11  H   UNL     1     -24.015   4.254  12.951  0.00  0.00    +0.000 HD
ATOM     12  N   UNL     1     -25.202   5.932  14.271  0.00  0.00    +0.000 N 
ATOM     13  H   UNL     1     -24.895   5.213  14.913  0.00  0.00    +0.000 HD
ATOM     14  H   UNL     1     -25.880   6.545  14.718  0.00  0.00    +0.000 HD
ENDROOT
BRANCH   2  15
ATOM     15  C1* UNL     1     -23.499   2.416  10.644  0.00  0.00    +0.000 A 
ATOM     16  O4* UNL     1     -22.264   3.106  10.605  0.00  0.00    +0.000 OA
ATOM     17  C4* UNL     1     -21.212   2.184  10.733  0.00  0.00    +0.000 A 
ATOM     18  C3* UNL     1     -21.781   0.873  10.865  0.00  0.00    +0.000 A 
ATOM     19  C2* UNL     1     -23.204   1.015  10.820  0.00  0.00    +0.000 A 
BRANCH  18  20
ATOM     20  O3* UNL     1     -21.185  -0.262  10.384  0.00  0.00    +0.000 OA
ATOM     21  H3* UNL     1     -21.489  -0.472   9.482  0.00  0.00    +0.000 HD
ENDBRANCH  18  20
BRANCH  19  22
ATOM     22  O2* UNL     1     -23.991   0.017  10.314  0.00  0.00    +0.000 OA
ATOM     23  H2* UNL     1     -23.494  -0.825  10.328  0.00  0.00    +0.000 HD
ENDBRANCH  19  22
BRANCH  17  24
ATOM     24  C5* UNL     1     -19.869   2.520  10.484  0.00  0.00    +0.000 C 
BRANCH  24  25
ATOM     25  O5* UNL     1     -18.605   2.838  10.226  0.00  0.00    +0.000 OA
ATOM     26  H5* UNL     1     -17.999   2.294  10.760  0.00  0.00    +0.000 HD
ENDBRANCH  24  25
ENDBRANCH  17  24
ENDBRANCH   2  15
TORSDOF 5
ENDMDL
MODEL 7
REMARK VINA RESULT:      -4.3     25.070     26.145
REMARK  Name = Thioguanosine.pdbqt.pdb
REMARK  5 active torsions:
REMARK  status: ('A' for Active; 'I' for Inactive)
REMARK    1  A    between atoms: N_2  and  C1*_12
REMARK    2  A    between atoms: C4*_14  and  C5*_17
REMARK    3  A    between atoms: C3*_15  and  O3*_20
REMARK    4  A    between atoms: C2*_16  and  O2*_22
REMARK    5  A    between atoms: C5*_17  and  O5*_18
REMARK                            x       y       z     vdW  Elec       q    Type
REMARK                         _______ _______ _______ _____ _____    ______ ____
ROOT
ATOM      1  S   UNL     1      -3.923  19.347   5.568  0.00  0.00    +0.000 S 
ATOM      2  N   UNL     1      -5.243  17.092   1.425  0.00  0.00    +0.000 N 
ATOM      3  N   UNL     1      -4.077  15.665   3.057  0.00  0.00    +0.000 N 
ATOM      4  N   UNL     1      -5.222  18.977   2.679  0.00  0.00    +0.000 NA
ATOM      5  N   UNL     1      -3.375  16.722   5.068  0.00  0.00    +0.000 NA
ATOM      6  C   UNL     1      -4.615  16.816   2.613  0.00  0.00    +0.000 A 
ATOM      7  C   UNL     1      -5.605  18.425   1.545  0.00  0.00    +0.000 A 
ATOM      8  C   UNL     1      -4.588  17.966   3.359  0.00  0.00    +0.000 A 
ATOM      9  C   UNL     1      -3.935  17.938   4.670  0.00  0.00    +0.000 A 
ATOM     10  C   UNL     1      -3.472  15.688   4.284  0.00  0.00    +0.000 A 
ATOM     11  H   UNL     1      -4.056  14.815   2.499  0.00  0.00    +0.000 HD
ATOM     12  N   UNL     1      -2.942  14.496   4.649  0.00  0.00    +0.000 N 
ATOM     13  H   UNL     1      -3.561  13.706   4.516  0.00  0.00    +0.000 HD
ATOM     14  H   UNL     1      -2.613  14.533   5.611  0.00  0.00    +0.000 HD
ENDROOT
BRANCH   2  15
ATOM     15  C1* UNL     1      -5.478  16.297   0.320  0.00  0.00    +0.000 A 
ATOM     16  O4* UNL     1      -4.972  16.627  -0.960  0.00  0.00    +0.000 OA
ATOM     17  C4* UNL     1      -5.379  15.652  -1.885  0.00  0.00    +0.000 A 
ATOM     18  C3* UNL     1      -6.157  14.669  -1.186  0.00  0.00    +0.000 A 
ATOM     19  C2* UNL     1      -6.211  15.062   0.188  0.00  0.00    +0.000 A 
BRANCH  18  20
ATOM     20  O3* UNL     1      -7.202  13.989  -1.752  0.00  0.00    +0.000 OA
ATOM     21  H3* UNL     1      -7.690  13.467  -1.089  0.00  0.00    +0.000 HD
ENDBRANCH  18  20
BRANCH  19  22
ATOM     22  O2* UNL     1      -7.296  14.752   0.962  0.00  0.00    +0.000 OA
ATOM     23  H2* UNL     1      -6.990  14.403   1.823  0.00  0.00    +0.000 HD
ENDBRANCH  19  22
BRANCH  17  24
ATOM     24  C5* UNL     1      -5.252  15.820  -3.276  0.00  0.00    +0.000 C 
BRANCH  24  25
ATOM     25  O5* UNL     1      -5.117  15.961  -4.591  0.00  0.00    +0.000 OA
ATOM     26  H5* UNL     1      -5.618  16.734  -4.906  0.00  0.00    +0.000 HD
ENDBRANCH  24  25
ENDBRANCH  17  24
ENDBRANCH   2  15
TORSDOF 5
ENDMDL
MODEL 8
REMARK VINA RESULT:      -4.3     15.389     16.598
REMARK  Name = Thioguanosine.pdbqt.pdb
REMARK  5 active torsions:
REMARK  status: ('A' for Active; 'I' for Inactive)
REMARK    1  A    between atoms: N_2  and  C1*_12
REMARK    2  A    between atoms: C4*_14  and  C5*_17
REMARK    3  A    between atoms: C3*_15  and  O3*_20
REMARK    4  A    between atoms: C2*_16  and  O2*_22
REMARK    5  A    between atoms: C5*_17  and  O5*_18
REMARK                            x       y       z     vdW  Elec       q    Type
REMARK                         _______ _______ _______ _____ _____    ______ ____
ROOT
ATOM      1  S   UNL     1     -16.207  18.540  32.658  0.00  0.00    +0.000 S 
ATOM      2  N   UNL     1     -14.646  17.761  28.081  0.00  0.00    +0.000 N 
ATOM      3  N   UNL     1     -16.859  18.826  28.256  0.00  0.00    +0.000 N 
ATOM      4  N   UNL     1     -14.255  17.628  30.307  0.00  0.00    +0.000 NA
ATOM      5  N   UNL     1     -17.683  19.187  30.457  0.00  0.00    +0.000 NA
ATOM      6  C   UNL     1     -15.724  18.291  28.743  0.00  0.00    +0.000 A 
ATOM      7  C   UNL     1     -13.780  17.395  29.099  0.00  0.00    +0.000 A 
ATOM      8  C   UNL     1     -15.490  18.189  30.091  0.00  0.00    +0.000 A 
ATOM      9  C   UNL     1     -16.518  18.662  31.021  0.00  0.00    +0.000 A 
ATOM     10  C   UNL     1     -17.793  19.248  29.162  0.00  0.00    +0.000 A 
ATOM     11  H   UNL     1     -17.063  18.873  27.261  0.00  0.00    +0.000 HD
ATOM     12  N   UNL     1     -18.911  19.758  28.591  0.00  0.00    +0.000 N 
ATOM     13  H   UNL     1     -18.734  20.424  27.850  0.00  0.00    +0.000 HD
ATOM     14  H   UNL     1     -19.518  20.164  29.299  0.00  0.00    +0.000 HD
ENDROOT
BRANCH   2  15
ATOM     15  C1* UNL     1     -14.415  17.579  26.731  0.00  0.00    +0.000 A 
ATOM     16  O4* UNL     1     -13.676  16.477  26.241  0.00  0.00    +0.000 OA
ATOM     17  C4* UNL     1     -13.590  16.561  24.841  0.00  0.00    +0.000 A 
ATOM     18  C3* UNL     1     -14.295  17.738  24.420  0.00  0.00    +0.000 A 
ATOM     19  C2* UNL     1     -14.818  18.368  25.593  0.00  0.00    +0.000 A 
BRANCH  18  20
ATOM     20  O3* UNL     1     -13.930  18.490  23.336  0.00  0.00    +0.000 OA
ATOM     21  H3* UNL     1     -14.693  18.682  22.760  0.00  0.00    +0.000 HD
ENDBRANCH  18  20
BRANCH  19  22
ATOM     22  O2* UNL     1     -14.978  19.726  25.645  0.00  0.00    +0.000 OA
ATOM     23  H2* UNL     1     -15.387  20.036  24.812  0.00  0.00    +0.000 HD
ENDBRANCH  19  22
BRANCH  17  24
ATOM     24  C5* UNL     1     -12.718  15.760  24.081  0.00  0.00    +0.000 C 
BRANCH  24  25
ATOM     25  O5* UNL     1     -11.889  15.022  23.351  0.00  0.00    +0.000 OA
ATOM     26  H5* UNL     1     -11.499  14.311  23.889  0.00  0.00    +0.000 HD
ENDBRANCH  24  25
ENDBRANCH  17  24
ENDBRANCH   2  15
TORSDOF 5
ENDMDL
MODEL 9
REMARK VINA RESULT:      -4.2      9.573     11.618
REMARK  Name = Thioguanosine.pdbqt.pdb
REMARK  5 active torsions:
REMARK  status: ('A' for Active; 'I' for Inactive)
REMARK    1  A    between atoms: N_2  and  C1*_12
REMARK    2  A    between atoms: C4*_14  and  C5*_17
REMARK    3  A    between atoms: C3*_15  and  O3*_20
REMARK    4  A    between atoms: C2*_16  and  O2*_22
REMARK    5  A    between atoms: C5*_17  and  O5*_18
REMARK                            x       y       z     vdW  Elec       q    Type
REMARK                         _______ _______ _______ _____ _____    ______ ____
ROOT
ATOM      1  S   UNL     1     -11.441   5.333  24.865  0.00  0.00    +0.000 S 
ATOM      2  N   UNL     1     -16.067   5.056  23.280  0.00  0.00    +0.000 N 
ATOM      3  N   UNL     1     -14.369   4.313  21.660  0.00  0.00    +0.000 N 
ATOM      4  N   UNL     1     -14.621   5.552  24.950  0.00  0.00    +0.000 NA
ATOM      5  N   UNL     1     -12.103   4.469  22.364  0.00  0.00    +0.000 NA
ATOM      6  C   UNL     1     -14.794   4.790  22.845  0.00  0.00    +0.000 A 
ATOM      7  C   UNL     1     -15.886   5.498  24.581  0.00  0.00    +0.000 A 
ATOM      8  C   UNL     1     -13.922   5.112  23.853  0.00  0.00    +0.000 A 
ATOM      9  C   UNL     1     -12.486   4.946  23.619  0.00  0.00    +0.000 A 
ATOM     10  C   UNL     1     -13.019   4.182  21.485  0.00  0.00    +0.000 A 
ATOM     11  H   UNL     1     -15.001   4.107  20.890  0.00  0.00    +0.000 HD
ATOM     12  N   UNL     1     -12.674   3.712  20.262  0.00  0.00    +0.000 N 
ATOM     13  H   UNL     1     -13.204   2.904  19.961  0.00  0.00    +0.000 HD
ATOM     14  H   UNL     1     -11.676   3.520  20.223  0.00  0.00    +0.000 HD
ENDROOT
BRANCH   2  15
ATOM     15  C1* UNL     1     -17.284   4.954  22.633  0.00  0.00    +0.000 A 
ATOM     16  O4* UNL     1     -17.458   5.385  21.297  0.00  0.00    +0.000 OA
ATOM     17  C4* UNL     1     -18.793   5.174  20.912  0.00  0.00    +0.000 A 
ATOM     18  C3* UNL     1     -19.491   4.588  22.021  0.00  0.00    +0.000 A 
ATOM     19  C2* UNL     1     -18.552   4.441  23.089  0.00  0.00    +0.000 A 
BRANCH  18  20
ATOM     20  O3* UNL     1     -20.813   4.820  22.289  0.00  0.00    +0.000 OA
ATOM     21  H3* UNL     1     -20.939   5.181  23.186  0.00  0.00    +0.000 HD
ENDBRANCH  18  20
BRANCH  19  22
ATOM     22  O2* UNL     1     -18.960   4.511  24.393  0.00  0.00    +0.000 OA
ATOM     23  H2* UNL     1     -18.740   5.394  24.754  0.00  0.00    +0.000 HD
ENDBRANCH  19  22
BRANCH  17  24
ATOM     24  C5* UNL     1     -19.343   5.721  19.738  0.00  0.00    +0.000 C 
BRANCH  24  25
ATOM     25  O5* UNL     1     -19.863   6.216  18.620  0.00  0.00    +0.000 OA
ATOM     26  H5* UNL     1     -20.730   5.812  18.437  0.00  0.00    +0.000 HD
ENDBRANCH  24  25
ENDBRANCH  17  24
ENDBRANCH   2  15
TORSDOF 5
ENDMDL
