MODEL 1
REMARK VINA RESULT:      -5.3      0.000      0.000
REMARK  Name = Trichostatin_A.pdbqt.pdb
REMARK  6 active torsions:
REMARK  status: ('A' for Active; 'I' for Inactive)
REMARK    1  A    between atoms: C_1  and  C_15
REMARK    2  A    between atoms: C_4  and  C_6
REMARK    3  A    between atoms: C_7  and  C_10
REMARK    4  A    between atoms: N_9  and  O_12
REMARK    5  A    between atoms: C_15  and  C_16
REMARK    6  A    between atoms: C_17  and  N_22
REMARK                            x       y       z     vdW  Elec       q    Type
REMARK                         _______ _______ _______ _____ _____    ______ ____
ROOT
ATOM      1  C   UNL     1     -20.323   5.292  18.603  0.00  0.00    +0.000 C 
ATOM      2  C   UNL     1     -19.609   5.296  19.939  0.00  0.00    +0.000 C 
ATOM      3  C   UNL     1     -20.468   6.553  17.976  0.00  0.00    +0.000 C 
ATOM      4  C   UNL     1     -20.633   7.679  17.364  0.00  0.00    +0.000 C 
ATOM      5  C   UNL     1     -19.666   8.086  16.295  0.00  0.00    +0.000 C 
ENDROOT
BRANCH   4   6
ATOM      6  C   UNL     1     -21.818   8.425  17.558  0.00  0.00    +0.000 C 
ATOM      7  C   UNL     1     -22.827   9.057  17.726  0.00  0.00    +0.000 C 
BRANCH   7  10
ATOM      8  O   UNL     1     -24.103  10.622  18.853  0.00  0.00    +0.000 OA
ATOM      9  N   UNL     1     -25.046   9.588  17.043  0.00  0.00    +0.000 N 
ATOM     10  C   UNL     1     -24.030   9.820  17.928  0.00  0.00    +0.000 C 
ATOM     11  H   UNL     1     -25.005   8.925  16.279  0.00  0.00    +0.000 HD
BRANCH   9  12
ATOM     12  O   UNL     1     -26.244  10.313  17.218  0.00  0.00    +0.000 OA
ATOM     13  H   UNL     1     -26.902   9.606  17.394  0.00  0.00    +0.000 HD
ENDBRANCH   9  12
ENDBRANCH   7  10
ENDBRANCH   4   6
BRANCH   1  15
ATOM     14  O   UNL     1     -20.712   2.968  18.305  0.00  0.00    +0.000 OA
ATOM     15  C   UNL     1     -21.085   4.119  18.077  0.00  0.00    +0.000 C 
BRANCH  15  16
ATOM     16  C   UNL     1     -22.312   4.324  17.281  0.00  0.00    +0.000 A 
ATOM     17  C   UNL     1     -24.685   4.878  15.841  0.00  0.00    +0.000 A 
ATOM     18  C   UNL     1     -22.281   4.423  15.894  0.00  0.00    +0.000 A 
ATOM     19  C   UNL     1     -23.512   4.527  17.959  0.00  0.00    +0.000 A 
ATOM     20  C   UNL     1     -23.456   4.684  15.189  0.00  0.00    +0.000 A 
ATOM     21  C   UNL     1     -24.681   4.787  17.242  0.00  0.00    +0.000 A 
BRANCH  17  22
ATOM     22  N   UNL     1     -25.878   5.125  15.118  0.00  0.00    +0.000 N 
ATOM     23  C   UNL     1     -26.147   4.441  13.864  0.00  0.00    +0.000 C 
ATOM     24  C   UNL     1     -26.650   6.337  15.337  0.00  0.00    +0.000 C 
ENDBRANCH  17  22
ENDBRANCH  15  16
ENDBRANCH   1  15
TORSDOF 6
ENDMDL
MODEL 2
REMARK VINA RESULT:      -5.0     12.110     14.067
REMARK  Name = Trichostatin_A.pdbqt.pdb
REMARK  6 active torsions:
REMARK  status: ('A' for Active; 'I' for Inactive)
REMARK    1  A    between atoms: C_1  and  C_15
REMARK    2  A    between atoms: C_4  and  C_6
REMARK    3  A    between atoms: C_7  and  C_10
REMARK    4  A    between atoms: N_9  and  O_12
REMARK    5  A    between atoms: C_15  and  C_16
REMARK    6  A    between atoms: C_17  and  N_22
REMARK                            x       y       z     vdW  Elec       q    Type
REMARK                         _______ _______ _______ _____ _____    ______ ____
ROOT
ATOM      1  C   UNL     1      -9.570   5.377  16.151  0.00  0.00    +0.000 C 
ATOM      2  C   UNL     1     -10.010   5.100  14.727  0.00  0.00    +0.000 C 
ATOM      3  C   UNL     1      -9.413   4.242  16.982  0.00  0.00    +0.000 C 
ATOM      4  C   UNL     1      -9.261   3.241  17.784  0.00  0.00    +0.000 C 
ATOM      5  C   UNL     1      -7.895   2.663  17.993  0.00  0.00    +0.000 C 
ENDROOT
BRANCH   4   6
ATOM      6  C   UNL     1     -10.332   2.823  18.608  0.00  0.00    +0.000 C 
ATOM      7  C   UNL     1     -11.242   2.470  19.310  0.00  0.00    +0.000 C 
BRANCH   7  10
ATOM      8  O   UNL     1     -12.644   2.706  21.133  0.00  0.00    +0.000 OA
ATOM      9  N   UNL     1     -12.977   0.904  19.765  0.00  0.00    +0.000 N 
ATOM     10  C   UNL     1     -12.336   2.049  20.145  0.00  0.00    +0.000 C 
ATOM     11  H   UNL     1     -12.730   0.345  18.957  0.00  0.00    +0.000 HD
BRANCH   9  12
ATOM     12  O   UNL     1     -14.048   0.457  20.567  0.00  0.00    +0.000 OA
ATOM     13  H   UNL     1     -14.626   1.248  20.620  0.00  0.00    +0.000 HD
ENDBRANCH   9  12
ENDBRANCH   7  10
ENDBRANCH   4   6
BRANCH   1  15
ATOM     14  O   UNL     1      -9.337   7.740  16.079  0.00  0.00    +0.000 OA
ATOM     15  C   UNL     1      -9.563   6.741  16.762  0.00  0.00    +0.000 C 
BRANCH  15  16
ATOM     16  C   UNL     1      -9.843   6.914  18.202  0.00  0.00    +0.000 A 
ATOM     17  C   UNL     1     -10.340   7.423  20.941  0.00  0.00    +0.000 A 
ATOM     18  C   UNL     1     -11.102   6.671  18.741  0.00  0.00    +0.000 A 
ATOM     19  C   UNL     1      -8.837   7.436  19.011  0.00  0.00    +0.000 A 
ATOM     20  C   UNL     1     -11.337   6.912  20.094  0.00  0.00    +0.000 A 
ATOM     21  C   UNL     1      -9.084   7.673  20.364  0.00  0.00    +0.000 A 
BRANCH  17  22
ATOM     22  N   UNL     1     -10.581   7.650  22.319  0.00  0.00    +0.000 N 
ATOM     23  C   UNL     1     -11.725   7.050  22.986  0.00  0.00    +0.000 C 
ATOM     24  C   UNL     1      -9.993   8.788  23.005  0.00  0.00    +0.000 C 
ENDBRANCH  17  22
ENDBRANCH  15  16
ENDBRANCH   1  15
TORSDOF 6
ENDMDL
MODEL 3
REMARK VINA RESULT:      -4.6     19.252     20.691
REMARK  Name = Trichostatin_A.pdbqt.pdb
REMARK  6 active torsions:
REMARK  status: ('A' for Active; 'I' for Inactive)
REMARK    1  A    between atoms: C_1  and  C_15
REMARK    2  A    between atoms: C_4  and  C_6
REMARK    3  A    between atoms: C_7  and  C_10
REMARK    4  A    between atoms: N_9  and  O_12
REMARK    5  A    between atoms: C_15  and  C_16
REMARK    6  A    between atoms: C_17  and  N_22
REMARK                            x       y       z     vdW  Elec       q    Type
REMARK                         _______ _______ _______ _____ _____    ______ ____
ROOT
ATOM      1  C   UNL     1     -14.878  10.734  -1.042  0.00  0.00    +0.000 C 
ATOM      2  C   UNL     1     -14.380  12.116  -0.669  0.00  0.00    +0.000 C 
ATOM      3  C   UNL     1     -15.308  10.572  -2.381  0.00  0.00    +0.000 C 
ATOM      4  C   UNL     1     -15.719  10.373  -3.589  0.00  0.00    +0.000 C 
ATOM      5  C   UNL     1     -14.785   9.774  -4.597  0.00  0.00    +0.000 C 
ENDROOT
BRANCH   4   6
ATOM      6  C   UNL     1     -17.088  10.528  -3.908  0.00  0.00    +0.000 C 
ATOM      7  C   UNL     1     -18.251  10.664  -4.181  0.00  0.00    +0.000 C 
BRANCH   7  10
ATOM      8  O   UNL     1     -20.018  10.685  -5.671  0.00  0.00    +0.000 OA
ATOM      9  N   UNL     1     -20.479  11.117  -3.473  0.00  0.00    +0.000 N 
ATOM     10  C   UNL     1     -19.642  10.819  -4.512  0.00  0.00    +0.000 C 
ATOM     11  H   UNL     1     -20.184  11.238  -2.511  0.00  0.00    +0.000 HD
BRANCH   9  12
ATOM     12  O   UNL     1     -21.849  11.286  -3.763  0.00  0.00    +0.000 OA
ATOM     13  H   UNL     1     -21.869  11.257  -4.744  0.00  0.00    +0.000 HD
ENDBRANCH   9  12
ENDBRANCH   7  10
ENDBRANCH   4   6
BRANCH   1  15
ATOM     14  O   UNL     1     -15.004   9.860   1.163  0.00  0.00    +0.000 OA
ATOM     15  C   UNL     1     -15.178   9.666  -0.040  0.00  0.00    +0.000 C 
BRANCH  15  16
ATOM     16  C   UNL     1     -15.705   8.358  -0.480  0.00  0.00    +0.000 A 
ATOM     17  C   UNL     1     -16.856   5.942  -1.399  0.00  0.00    +0.000 A 
ATOM     18  C   UNL     1     -15.016   7.554  -1.383  0.00  0.00    +0.000 A 
ATOM     19  C   UNL     1     -16.976   7.982  -0.055  0.00  0.00    +0.000 A 
ATOM     20  C   UNL     1     -15.583   6.358  -1.822  0.00  0.00    +0.000 A 
ATOM     21  C   UNL     1     -17.533   6.782  -0.501  0.00  0.00    +0.000 A 
BRANCH  17  22
ATOM     22  N   UNL     1     -17.419   4.717  -1.836  0.00  0.00    +0.000 N 
ATOM     23  C   UNL     1     -18.139   3.854  -0.913  0.00  0.00    +0.000 C 
ATOM     24  C   UNL     1     -16.951   4.068  -3.050  0.00  0.00    +0.000 C 
ENDBRANCH  17  22
ENDBRANCH  15  16
ENDBRANCH   1  15
TORSDOF 6
ENDMDL
MODEL 4
REMARK VINA RESULT:      -4.6     15.081     17.085
REMARK  Name = Trichostatin_A.pdbqt.pdb
REMARK  6 active torsions:
REMARK  status: ('A' for Active; 'I' for Inactive)
REMARK    1  A    between atoms: C_1  and  C_15
REMARK    2  A    between atoms: C_4  and  C_6
REMARK    3  A    between atoms: C_7  and  C_10
REMARK    4  A    between atoms: N_9  and  O_12
REMARK    5  A    between atoms: C_15  and  C_16
REMARK    6  A    between atoms: C_17  and  N_22
REMARK                            x       y       z     vdW  Elec       q    Type
REMARK                         _______ _______ _______ _____ _____    ______ ____
ROOT
ATOM      1  C   UNL     1     -12.755  17.751  25.794  0.00  0.00    +0.000 C 
ATOM      2  C   UNL     1     -13.413  17.240  27.059  0.00  0.00    +0.000 C 
ATOM      3  C   UNL     1     -13.385  18.855  25.172  0.00  0.00    +0.000 C 
ATOM      4  C   UNL     1     -13.924  19.859  24.562  0.00  0.00    +0.000 C 
ATOM      5  C   UNL     1     -13.400  21.240  24.809  0.00  0.00    +0.000 C 
ENDROOT
BRANCH   4   6
ATOM      6  C   UNL     1     -14.860  19.639  23.524  0.00  0.00    +0.000 C 
ATOM      7  C   UNL     1     -15.655  19.456  22.642  0.00  0.00    +0.000 C 
BRANCH   7  10
ATOM      8  O   UNL     1     -16.329  19.562  20.433  0.00  0.00    +0.000 OA
ATOM      9  N   UNL     1     -17.785  18.650  21.943  0.00  0.00    +0.000 N 
ATOM     10  C   UNL     1     -16.602  19.233  21.582  0.00  0.00    +0.000 C 
ATOM     11  H   UNL     1     -18.029  18.379  22.888  0.00  0.00    +0.000 HD
BRANCH   9  12
ATOM     12  O   UNL     1     -18.740  18.425  20.930  0.00  0.00    +0.000 OA
ATOM     13  H   UNL     1     -19.240  17.652  21.269  0.00  0.00    +0.000 HD
ENDBRANCH   9  12
ENDBRANCH   7  10
ENDBRANCH   4   6
BRANCH   1  15
ATOM     14  O   UNL     1     -11.058  16.100  25.605  0.00  0.00    +0.000 OA
ATOM     15  C   UNL     1     -11.688  17.006  25.059  0.00  0.00    +0.000 C 
BRANCH  15  16
ATOM     16  C   UNL     1     -11.378  17.339  23.654  0.00  0.00    +0.000 A 
ATOM     17  C   UNL     1     -10.615  17.915  20.991  0.00  0.00    +0.000 A 
ATOM     18  C   UNL     1     -12.027  16.719  22.591  0.00  0.00    +0.000 A 
ATOM     19  C   UNL     1     -10.332  18.223  23.401  0.00  0.00    +0.000 A 
ATOM     20  C   UNL     1     -11.654  17.017  21.281  0.00  0.00    +0.000 A 
ATOM     21  C   UNL     1      -9.969  18.513  22.085  0.00  0.00    +0.000 A 
BRANCH  17  22
ATOM     22  N   UNL     1     -10.253  18.226  19.656  0.00  0.00    +0.000 N 
ATOM     23  C   UNL     1     -10.012  17.174  18.683  0.00  0.00    +0.000 C 
ATOM     24  C   UNL     1      -9.694  19.523  19.314  0.00  0.00    +0.000 C 
ENDBRANCH  17  22
ENDBRANCH  15  16
ENDBRANCH   1  15
TORSDOF 6
ENDMDL
MODEL 5
REMARK VINA RESULT:      -4.6      3.621      5.674
REMARK  Name = Trichostatin_A.pdbqt.pdb
REMARK  6 active torsions:
REMARK  status: ('A' for Active; 'I' for Inactive)
REMARK    1  A    between atoms: C_1  and  C_15
REMARK    2  A    between atoms: C_4  and  C_6
REMARK    3  A    between atoms: C_7  and  C_10
REMARK    4  A    between atoms: N_9  and  O_12
REMARK    5  A    between atoms: C_15  and  C_16
REMARK    6  A    between atoms: C_17  and  N_22
REMARK                            x       y       z     vdW  Elec       q    Type
REMARK                         _______ _______ _______ _____ _____    ______ ____
ROOT
ATOM      1  C   UNL     1     -21.572   2.475  18.607  0.00  0.00    +0.000 C 
ATOM      2  C   UNL     1     -21.234   1.011  18.416  0.00  0.00    +0.000 C 
ATOM      3  C   UNL     1     -20.720   3.199  19.475  0.00  0.00    +0.000 C 
ATOM      4  C   UNL     1     -19.976   3.904  20.262  0.00  0.00    +0.000 C 
ATOM      5  C   UNL     1     -18.873   4.737  19.686  0.00  0.00    +0.000 C 
ENDROOT
BRANCH   4   6
ATOM      6  C   UNL     1     -20.322   4.046  21.626  0.00  0.00    +0.000 C 
ATOM      7  C   UNL     1     -20.612   4.167  22.786  0.00  0.00    +0.000 C 
BRANCH   7  10
ATOM      8  O   UNL     1     -20.506   3.551  25.012  0.00  0.00    +0.000 OA
ATOM      9  N   UNL     1     -21.817   5.344  24.470  0.00  0.00    +0.000 N 
ATOM     10  C   UNL     1     -20.964   4.318  24.173  0.00  0.00    +0.000 C 
ATOM     11  H   UNL     1     -22.210   5.983  23.788  0.00  0.00    +0.000 HD
BRANCH   9  12
ATOM     12  O   UNL     1     -22.191   5.516  25.819  0.00  0.00    +0.000 OA
ATOM     13  H   UNL     1     -21.749   6.359  26.062  0.00  0.00    +0.000 HD
ENDBRANCH   9  12
ENDBRANCH   7  10
ENDBRANCH   4   6
BRANCH   1  15
ATOM     14  O   UNL     1     -23.890   2.420  18.088  0.00  0.00    +0.000 OA
ATOM     15  C   UNL     1     -22.860   3.090  18.162  0.00  0.00    +0.000 C 
BRANCH  15  16
ATOM     16  C   UNL     1     -22.920   4.524  17.814  0.00  0.00    +0.000 A 
ATOM     17  C   UNL     1     -23.113   7.224  16.988  0.00  0.00    +0.000 A 
ATOM     18  C   UNL     1     -23.674   5.430  18.554  0.00  0.00    +0.000 A 
ATOM     19  C   UNL     1     -22.284   4.948  16.650  0.00  0.00    +0.000 A 
ATOM     20  C   UNL     1     -23.755   6.762  18.148  0.00  0.00    +0.000 A 
ATOM     21  C   UNL     1     -22.373   6.283  16.255  0.00  0.00    +0.000 A 
BRANCH  17  22
ATOM     22  N   UNL     1     -23.185   8.583  16.592  0.00  0.00    +0.000 N 
ATOM     23  C   UNL     1     -23.067   9.654  17.568  0.00  0.00    +0.000 C 
ATOM     24  C   UNL     1     -23.797   8.964  15.329  0.00  0.00    +0.000 C 
ENDBRANCH  17  22
ENDBRANCH  15  16
ENDBRANCH   1  15
TORSDOF 6
ENDMDL
MODEL 6
REMARK VINA RESULT:      -4.5     22.416     24.945
REMARK  Name = Trichostatin_A.pdbqt.pdb
REMARK  6 active torsions:
REMARK  status: ('A' for Active; 'I' for Inactive)
REMARK    1  A    between atoms: C_1  and  C_15
REMARK    2  A    between atoms: C_4  and  C_6
REMARK    3  A    between atoms: C_7  and  C_10
REMARK    4  A    between atoms: N_9  and  O_12
REMARK    5  A    between atoms: C_15  and  C_16
REMARK    6  A    between atoms: C_17  and  N_22
REMARK                            x       y       z     vdW  Elec       q    Type
REMARK                         _______ _______ _______ _____ _____    ______ ____
ROOT
ATOM      1  C   UNL     1      -6.522  20.486   5.986  0.00  0.00    +0.000 C 
ATOM      2  C   UNL     1      -8.037  20.487   5.941  0.00  0.00    +0.000 C 
ATOM      3  C   UNL     1      -5.870  19.989   4.832  0.00  0.00    +0.000 C 
ATOM      4  C   UNL     1      -5.226  19.540   3.806  0.00  0.00    +0.000 C 
ATOM      5  C   UNL     1      -4.708  20.501   2.781  0.00  0.00    +0.000 C 
ENDROOT
BRANCH   4   6
ATOM      6  C   UNL     1      -4.839  18.181   3.751  0.00  0.00    +0.000 C 
ATOM      7  C   UNL     1      -4.507  17.026   3.702  0.00  0.00    +0.000 C 
BRANCH   7  10
ATOM      8  O   UNL     1      -4.528  14.916   2.759  0.00  0.00    +0.000 OA
ATOM      9  N   UNL     1      -3.265  15.224   4.641  0.00  0.00    +0.000 N 
ATOM     10  C   UNL     1      -4.110  15.644   3.652  0.00  0.00    +0.000 C 
ATOM     11  H   UNL     1      -2.916  15.811   5.390  0.00  0.00    +0.000 HD
BRANCH   9  12
ATOM     12  O   UNL     1      -2.863  13.872   4.627  0.00  0.00    +0.000 OA
ATOM     13  H   UNL     1      -1.886  13.934   4.692  0.00  0.00    +0.000 HD
ENDBRANCH   9  12
ENDBRANCH   7  10
ENDBRANCH   4   6
BRANCH   1  15
ATOM     14  O   UNL     1      -5.509  21.854   7.643  0.00  0.00    +0.000 OA
ATOM     15  C   UNL     1      -5.733  20.714   7.234  0.00  0.00    +0.000 C 
BRANCH  15  16
ATOM     16  C   UNL     1      -5.215  19.568   8.008  0.00  0.00    +0.000 A 
ATOM     17  C   UNL     1      -4.070  17.469   9.522  0.00  0.00    +0.000 A 
ATOM     18  C   UNL     1      -5.831  19.133   9.178  0.00  0.00    +0.000 A 
ATOM     19  C   UNL     1      -4.018  18.984   7.603  0.00  0.00    +0.000 A 
ATOM     20  C   UNL     1      -5.268  18.089   9.913  0.00  0.00    +0.000 A 
ATOM     21  C   UNL     1      -3.465  17.941   8.347  0.00  0.00    +0.000 A 
BRANCH  17  22
ATOM     22  N   UNL     1      -3.514  16.397  10.264  0.00  0.00    +0.000 N 
ATOM     23  C   UNL     1      -4.350  15.558  11.107  0.00  0.00    +0.000 C 
ATOM     24  C   UNL     1      -2.092  16.354  10.566  0.00  0.00    +0.000 C 
ENDBRANCH  17  22
ENDBRANCH  15  16
ENDBRANCH   1  15
TORSDOF 6
ENDMDL
MODEL 7
REMARK VINA RESULT:      -4.4     24.696     27.143
REMARK  Name = Trichostatin_A.pdbqt.pdb
REMARK  6 active torsions:
REMARK  status: ('A' for Active; 'I' for Inactive)
REMARK    1  A    between atoms: C_1  and  C_15
REMARK    2  A    between atoms: C_4  and  C_6
REMARK    3  A    between atoms: C_7  and  C_10
REMARK    4  A    between atoms: N_9  and  O_12
REMARK    5  A    between atoms: C_15  and  C_16
REMARK    6  A    between atoms: C_17  and  N_22
REMARK                            x       y       z     vdW  Elec       q    Type
REMARK                         _______ _______ _______ _____ _____    ______ ____
ROOT
ATOM      1  C   UNL     1      -0.967   4.092   3.627  0.00  0.00    +0.000 C 
ATOM      2  C   UNL     1       0.105   3.203   4.223  0.00  0.00    +0.000 C 
ATOM      3  C   UNL     1      -1.980   3.433   2.890  0.00  0.00    +0.000 C 
ATOM      4  C   UNL     1      -2.924   2.880   2.203  0.00  0.00    +0.000 C 
ATOM      5  C   UNL     1      -4.234   2.573   2.862  0.00  0.00    +0.000 C 
ENDROOT
BRANCH   4   6
ATOM      6  C   UNL     1      -2.798   2.751   0.800  0.00  0.00    +0.000 C 
ATOM      7  C   UNL     1      -2.687   2.641  -0.392  0.00  0.00    +0.000 C 
BRANCH   7  10
ATOM      8  O   UNL     1      -3.499   2.781  -2.552  0.00  0.00    +0.000 OA
ATOM      9  N   UNL     1      -1.349   2.052  -2.272  0.00  0.00    +0.000 N 
ATOM     10  C   UNL     1      -2.557   2.502  -1.818  0.00  0.00    +0.000 C 
ATOM     11  H   UNL     1      -0.564   1.810  -1.679  0.00  0.00    +0.000 HD
BRANCH   9  12
ATOM     12  O   UNL     1      -1.191   1.895  -3.665  0.00  0.00    +0.000 OA
ATOM     13  H   UNL     1      -1.069   0.926  -3.763  0.00  0.00    +0.000 HD
ENDBRANCH   9  12
ENDBRANCH   7  10
ENDBRANCH   4   6
BRANCH   1  15
ATOM     14  O   UNL     1      -0.297   6.221   4.443  0.00  0.00    +0.000 OA
ATOM     15  C   UNL     1      -0.857   5.581   3.552  0.00  0.00    +0.000 C 
BRANCH  15  16
ATOM     16  C   UNL     1      -1.412   6.312   2.395  0.00  0.00    +0.000 A 
ATOM     17  C   UNL     1      -2.431   7.567   0.072  0.00  0.00    +0.000 A 
ATOM     18  C   UNL     1      -2.754   6.670   2.325  0.00  0.00    +0.000 A 
ATOM     19  C   UNL     1      -0.579   6.549   1.303  0.00  0.00    +0.000 A 
ATOM     20  C   UNL     1      -3.248   7.299   1.182  0.00  0.00    +0.000 A 
ATOM     21  C   UNL     1      -1.085   7.180   0.166  0.00  0.00    +0.000 A 
BRANCH  17  22
ATOM     22  N   UNL     1      -2.935   8.223  -1.079  0.00  0.00    +0.000 N 
ATOM     23  C   UNL     1      -3.269   7.475  -2.280  0.00  0.00    +0.000 C 
ATOM     24  C   UNL     1      -2.736   9.649  -1.276  0.00  0.00    +0.000 C 
ENDBRANCH  17  22
ENDBRANCH  15  16
ENDBRANCH   1  15
TORSDOF 6
ENDMDL
MODEL 8
REMARK VINA RESULT:      -4.2      4.499      7.222
REMARK  Name = Trichostatin_A.pdbqt.pdb
REMARK  6 active torsions:
REMARK  status: ('A' for Active; 'I' for Inactive)
REMARK    1  A    between atoms: C_1  and  C_15
REMARK    2  A    between atoms: C_4  and  C_6
REMARK    3  A    between atoms: C_7  and  C_10
REMARK    4  A    between atoms: N_9  and  O_12
REMARK    5  A    between atoms: C_15  and  C_16
REMARK    6  A    between atoms: C_17  and  N_22
REMARK                            x       y       z     vdW  Elec       q    Type
REMARK                         _______ _______ _______ _____ _____    ______ ____
ROOT
ATOM      1  C   UNL     1     -21.592  -0.500  17.008  0.00  0.00    +0.000 C 
ATOM      2  C   UNL     1     -20.231  -1.148  17.165  0.00  0.00    +0.000 C 
ATOM      3  C   UNL     1     -22.216  -0.670  15.749  0.00  0.00    +0.000 C 
ATOM      4  C   UNL     1     -22.826  -0.789  14.616  0.00  0.00    +0.000 C 
ATOM      5  C   UNL     1     -23.858  -1.861  14.444  0.00  0.00    +0.000 C 
ENDROOT
BRANCH   4   6
ATOM      6  C   UNL     1     -22.670   0.200  13.618  0.00  0.00    +0.000 C 
ATOM      7  C   UNL     1     -22.535   1.044  12.772  0.00  0.00    +0.000 C 
BRANCH   7  10
ATOM      8  O   UNL     1     -23.351   2.578  11.248  0.00  0.00    +0.000 OA
ATOM      9  N   UNL     1     -21.082   2.352  11.413  0.00  0.00    +0.000 N 
ATOM     10  C   UNL     1     -22.369   2.048  11.755  0.00  0.00    +0.000 C 
ATOM     11  H   UNL     1     -20.260   1.919  11.817  0.00  0.00    +0.000 HD
BRANCH   9  12
ATOM     12  O   UNL     1     -20.883   3.326  10.412  0.00  0.00    +0.000 OA
ATOM     13  H   UNL     1     -21.016   2.817   9.583  0.00  0.00    +0.000 HD
ENDBRANCH   9  12
ENDBRANCH   7  10
ENDBRANCH   4   6
BRANCH   1  15
ATOM     14  O   UNL     1     -22.776   0.121  18.972  0.00  0.00    +0.000 OA
ATOM     15  C   UNL     1     -22.152   0.491  17.977  0.00  0.00    +0.000 C 
BRANCH  15  16
ATOM     16  C   UNL     1     -21.952   1.938  17.761  0.00  0.00    +0.000 A 
ATOM     17  C   UNL     1     -21.745   4.738  17.402  0.00  0.00    +0.000 A 
ATOM     18  C   UNL     1     -21.027   2.671  18.498  0.00  0.00    +0.000 A 
ATOM     19  C   UNL     1     -22.795   2.595  16.868  0.00  0.00    +0.000 A 
ATOM     20  C   UNL     1     -20.921   4.049  18.307  0.00  0.00    +0.000 A 
ATOM     21  C   UNL     1     -22.679   3.973  16.685  0.00  0.00    +0.000 A 
BRANCH  17  22
ATOM     22  N   UNL     1     -21.619   6.135  17.200  0.00  0.00    +0.000 N 
ATOM     23  C   UNL     1     -22.739   6.924  16.713  0.00  0.00    +0.000 C 
ATOM     24  C   UNL     1     -20.313   6.755  17.046  0.00  0.00    +0.000 C 
ENDBRANCH  17  22
ENDBRANCH  15  16
ENDBRANCH   1  15
TORSDOF 6
ENDMDL
MODEL 9
REMARK VINA RESULT:      -4.2     11.446     13.380
REMARK  Name = Trichostatin_A.pdbqt.pdb
REMARK  6 active torsions:
REMARK  status: ('A' for Active; 'I' for Inactive)
REMARK    1  A    between atoms: C_1  and  C_15
REMARK    2  A    between atoms: C_4  and  C_6
REMARK    3  A    between atoms: C_7  and  C_10
REMARK    4  A    between atoms: N_9  and  O_12
REMARK    5  A    between atoms: C_15  and  C_16
REMARK    6  A    between atoms: C_17  and  N_22
REMARK                            x       y       z     vdW  Elec       q    Type
REMARK                         _______ _______ _______ _____ _____    ______ ____
ROOT
ATOM      1  C   UNL     1     -25.318  16.973  10.440  0.00  0.00    +0.000 C 
ATOM      2  C   UNL     1     -26.014  18.213  10.963  0.00  0.00    +0.000 C 
ATOM      3  C   UNL     1     -23.930  17.100  10.194  0.00  0.00    +0.000 C 
ATOM      4  C   UNL     1     -22.663  17.165   9.947  0.00  0.00    +0.000 C 
ATOM      5  C   UNL     1     -21.686  16.685  10.975  0.00  0.00    +0.000 C 
ENDROOT
BRANCH   4   6
ATOM      6  C   UNL     1     -22.210  17.496   8.649  0.00  0.00    +0.000 C 
ATOM      7  C   UNL     1     -21.823  17.781   7.547  0.00  0.00    +0.000 C 
BRANCH   7  10
ATOM      8  O   UNL     1     -21.594  17.374   5.283  0.00  0.00    +0.000 OA
ATOM      9  N   UNL     1     -20.649  19.282   6.119  0.00  0.00    +0.000 N 
ATOM     10  C   UNL     1     -21.355  18.116   6.228  0.00  0.00    +0.000 C 
ATOM     11  H   UNL     1     -20.436  19.902   6.891  0.00  0.00    +0.000 HD
BRANCH   9  12
ATOM     12  O   UNL     1     -20.166  19.637   4.841  0.00  0.00    +0.000 OA
ATOM     13  H   UNL     1     -19.345  20.134   5.049  0.00  0.00    +0.000 HD
ENDBRANCH   9  12
ENDBRANCH   7  10
ENDBRANCH   4   6
BRANCH   1  15
ATOM     14  O   UNL     1     -27.266  15.666  10.063  0.00  0.00    +0.000 OA
ATOM     15  C   UNL     1     -26.045  15.769   9.935  0.00  0.00    +0.000 C 
BRANCH  15  16
ATOM     16  C   UNL     1     -25.308  14.682   9.260  0.00  0.00    +0.000 A 
ATOM     17  C   UNL     1     -24.004  12.479   8.055  0.00  0.00    +0.000 A 
ATOM     18  C   UNL     1     -25.325  14.531   7.877  0.00  0.00    +0.000 A 
ATOM     19  C   UNL     1     -24.671  13.728  10.049  0.00  0.00    +0.000 A 
ATOM     20  C   UNL     1     -24.670  13.449   7.289  0.00  0.00    +0.000 A 
ATOM     21  C   UNL     1     -24.018  12.651   9.448  0.00  0.00    +0.000 A 
BRANCH  17  22
ATOM     22  N   UNL     1     -23.325  11.392   7.449  0.00  0.00    +0.000 N 
ATOM     23  C   UNL     1     -23.822  10.792   6.221  0.00  0.00    +0.000 C 
ATOM     24  C   UNL     1     -22.402  10.567   8.210  0.00  0.00    +0.000 C 
ENDBRANCH  17  22
ENDBRANCH  15  16
ENDBRANCH   1  15
TORSDOF 6
ENDMDL
