MODEL 1
REMARK VINA RESULT:      -5.1      0.000      0.000
REMARK  Name = Trifluridine.pdbqt.pdb
REMARK  5 active torsions:
REMARK  status: ('A' for Active; 'I' for Inactive)
REMARK    1  A    between atoms: N_3  and  C1*_10
REMARK    2  A    between atoms: C_7  and  C_20
REMARK    3  A    between atoms: C4*_12  and  C5*_15
REMARK    4  A    between atoms: C3*_13  and  O3*_18
REMARK    5  A    between atoms: C5*_15  and  O5*_16
REMARK                            x       y       z     vdW  Elec       q    Type
REMARK                         _______ _______ _______ _____ _____    ______ ____
ROOT
ATOM      1  O   UNL     1     -26.031   8.240  16.134  0.00  0.00    +0.000 OA
ATOM      2  O   UNL     1     -22.082   9.280  18.228  0.00  0.00    +0.000 OA
ATOM      3  N   UNL     1     -24.160   6.841  15.741  0.00  0.00    +0.000 N 
ATOM      4  N   UNL     1     -24.030   8.704  17.160  0.00  0.00    +0.000 N 
ATOM      5  C   UNL     1     -22.863   6.706  16.081  0.00  0.00    +0.000 A 
ATOM      6  C   UNL     1     -24.858   7.933  16.309  0.00  0.00    +0.000 A 
ATOM      7  C   UNL     1     -22.033   7.349  16.833  0.00  0.00    +0.000 A 
ATOM      8  C   UNL     1     -22.678   8.522  17.476  0.00  0.00    +0.000 A 
ATOM      9  H   UNL     1     -24.482   9.499  17.590  0.00  0.00    +0.000 HD
ENDROOT
BRANCH   3  10
ATOM     10  C1* UNL     1     -24.720   5.943  14.879  0.00  0.00    +0.000 A 
ATOM     11  O4* UNL     1     -24.597   6.069  13.491  0.00  0.00    +0.000 OA
ATOM     12  C4* UNL     1     -25.306   5.004  12.921  0.00  0.00    +0.000 A 
ATOM     13  C3* UNL     1     -25.877   4.201  13.973  0.00  0.00    +0.000 A 
ATOM     14  C2* UNL     1     -25.505   4.813  15.183  0.00  0.00    +0.000 A 
BRANCH  13  15
ATOM     15  O3* UNL     1     -27.049   3.526  13.785  0.00  0.00    +0.000 OA
ATOM     16  H3* UNL     1     -27.097   2.742  14.360  0.00  0.00    +0.000 HD
ENDBRANCH  13  15
BRANCH  12  17
ATOM     17  C5* UNL     1     -25.573   4.927  11.540  0.00  0.00    +0.000 C 
BRANCH  17  18
ATOM     18  O5* UNL     1     -25.831   4.854  10.238  0.00  0.00    +0.000 OA
ATOM     19  H5* UNL     1     -25.707   3.943   9.922  0.00  0.00    +0.000 HD
ENDBRANCH  17  18
ENDBRANCH  12  17
ENDBRANCH   3  10
BRANCH   7  20
ATOM     20  C   UNL     1     -20.609   7.102  17.098  0.00  0.00    +0.000 C 
ATOM     21  F   UNL     1     -20.371   6.761  18.389  0.00  0.00    +0.000 F 
ATOM     22  F   UNL     1     -20.128   6.076  16.343  0.00  0.00    +0.000 F 
ATOM     23  F   UNL     1     -19.833   8.176  16.810  0.00  0.00    +0.000 F 
ENDBRANCH   7  20
TORSDOF 5
ENDMDL
MODEL 2
REMARK VINA RESULT:      -5.0      3.253      5.499
REMARK  Name = Trifluridine.pdbqt.pdb
REMARK  5 active torsions:
REMARK  status: ('A' for Active; 'I' for Inactive)
REMARK    1  A    between atoms: N_3  and  C1*_10
REMARK    2  A    between atoms: C_7  and  C_20
REMARK    3  A    between atoms: C4*_12  and  C5*_15
REMARK    4  A    between atoms: C3*_13  and  O3*_18
REMARK    5  A    between atoms: C5*_15  and  O5*_16
REMARK                            x       y       z     vdW  Elec       q    Type
REMARK                         _______ _______ _______ _____ _____    ______ ____
ROOT
ATOM      1  O   UNL     1     -23.842   4.344  15.984  0.00  0.00    +0.000 OA
ATOM      2  O   UNL     1     -20.725   2.137  18.529  0.00  0.00    +0.000 OA
ATOM      3  N   UNL     1     -22.394   5.637  17.340  0.00  0.00    +0.000 N 
ATOM      4  N   UNL     1     -22.256   3.297  17.273  0.00  0.00    +0.000 N 
ATOM      5  C   UNL     1     -21.376   5.502  18.213  0.00  0.00    +0.000 A 
ATOM      6  C   UNL     1     -22.922   4.448  16.787  0.00  0.00    +0.000 A 
ATOM      7  C   UNL     1     -20.715   4.512  18.714  0.00  0.00    +0.000 A 
ATOM      8  C   UNL     1     -21.201   3.211  18.191  0.00  0.00    +0.000 A 
ATOM      9  H   UNL     1     -22.598   2.419  16.909  0.00  0.00    +0.000 HD
ENDROOT
BRANCH   3  10
ATOM     10  C1* UNL     1     -22.857   6.888  17.047  0.00  0.00    +0.000 A 
ATOM     11  O4* UNL     1     -22.879   7.914  17.998  0.00  0.00    +0.000 OA
ATOM     12  C4* UNL     1     -23.434   9.038  17.371  0.00  0.00    +0.000 A 
ATOM     13  C3* UNL     1     -23.759   8.704  16.007  0.00  0.00    +0.000 A 
ATOM     14  C2* UNL     1     -23.398   7.356  15.833  0.00  0.00    +0.000 A 
BRANCH  13  15
ATOM     15  O3* UNL     1     -24.803   9.307  15.366  0.00  0.00    +0.000 OA
ATOM     16  H3* UNL     1     -24.860  10.249  15.601  0.00  0.00    +0.000 HD
ENDBRANCH  13  15
BRANCH  12  17
ATOM     17  C5* UNL     1     -23.803  10.195  18.084  0.00  0.00    +0.000 C 
BRANCH  17  18
ATOM     18  O5* UNL     1     -24.146  11.289  18.756  0.00  0.00    +0.000 OA
ATOM     19  H5* UNL     1     -24.898  11.102  19.343  0.00  0.00    +0.000 HD
ENDBRANCH  17  18
ENDBRANCH  12  17
ENDBRANCH   3  10
BRANCH   7  20
ATOM     20  C   UNL     1     -19.623   4.505  19.699  0.00  0.00    +0.000 C 
ATOM     21  F   UNL     1     -18.465   4.019  19.188  0.00  0.00    +0.000 F 
ATOM     22  F   UNL     1     -19.341   5.760  20.145  0.00  0.00    +0.000 F 
ATOM     23  F   UNL     1     -19.922   3.773  20.800  0.00  0.00    +0.000 F 
ENDBRANCH   7  20
TORSDOF 5
ENDMDL
MODEL 3
REMARK VINA RESULT:      -4.9     12.618     14.324
REMARK  Name = Trifluridine.pdbqt.pdb
REMARK  5 active torsions:
REMARK  status: ('A' for Active; 'I' for Inactive)
REMARK    1  A    between atoms: N_3  and  C1*_10
REMARK    2  A    between atoms: C_7  and  C_20
REMARK    3  A    between atoms: C4*_12  and  C5*_15
REMARK    4  A    between atoms: C3*_13  and  O3*_18
REMARK    5  A    between atoms: C5*_15  and  O5*_16
REMARK                            x       y       z     vdW  Elec       q    Type
REMARK                         _______ _______ _______ _____ _____    ______ ____
ROOT
ATOM      1  O   UNL     1      -8.841   3.775  20.722  0.00  0.00    +0.000 OA
ATOM      2  O   UNL     1      -7.261   5.692  16.864  0.00  0.00    +0.000 OA
ATOM      3  N   UNL     1     -10.267   3.809  18.831  0.00  0.00    +0.000 N 
ATOM      4  N   UNL     1      -8.104   4.712  18.761  0.00  0.00    +0.000 N 
ATOM      5  C   UNL     1     -10.295   4.218  17.547  0.00  0.00    +0.000 A 
ATOM      6  C   UNL     1      -9.077   4.057  19.553  0.00  0.00    +0.000 A 
ATOM      7  C   UNL     1      -9.474   4.817  16.750  0.00  0.00    +0.000 A 
ATOM      8  C   UNL     1      -8.187   5.123  17.424  0.00  0.00    +0.000 A 
ATOM      9  H   UNL     1      -7.234   4.915  19.232  0.00  0.00    +0.000 HD
ENDROOT
BRANCH   3  10
ATOM     10  C1* UNL     1     -11.367   3.197  19.359  0.00  0.00    +0.000 A 
ATOM     11  O4* UNL     1     -11.568   1.815  19.258  0.00  0.00    +0.000 OA
ATOM     12  C4* UNL     1     -12.793   1.536  19.877  0.00  0.00    +0.000 A 
ATOM     13  C3* UNL     1     -13.361   2.764  20.373  0.00  0.00    +0.000 A 
ATOM     14  C2* UNL     1     -12.457   3.785  20.029  0.00  0.00    +0.000 A 
BRANCH  13  15
ATOM     15  O3* UNL     1     -14.715   2.932  20.450  0.00  0.00    +0.000 OA
ATOM     16  H3* UNL     1     -14.939   3.725  20.968  0.00  0.00    +0.000 HD
ENDBRANCH  13  15
BRANCH  12  17
ATOM     17  C5* UNL     1     -13.417   0.276  19.783  0.00  0.00    +0.000 C 
BRANCH  17  18
ATOM     18  O5* UNL     1     -14.010  -0.910  19.698  0.00  0.00    +0.000 OA
ATOM     19  H5* UNL     1     -13.472  -1.587  20.143  0.00  0.00    +0.000 HD
ENDBRANCH  17  18
ENDBRANCH  12  17
ENDBRANCH   3  10
BRANCH   7  20
ATOM     20  C   UNL     1      -9.648   5.236  15.353  0.00  0.00    +0.000 C 
ATOM     21  F   UNL     1     -10.809   4.785  14.814  0.00  0.00    +0.000 F 
ATOM     22  F   UNL     1      -9.679   6.592  15.234  0.00  0.00    +0.000 F 
ATOM     23  F   UNL     1      -8.637   4.812  14.554  0.00  0.00    +0.000 F 
ENDBRANCH   7  20
TORSDOF 5
ENDMDL
MODEL 4
REMARK VINA RESULT:      -4.8     12.036     13.631
REMARK  Name = Trifluridine.pdbqt.pdb
REMARK  5 active torsions:
REMARK  status: ('A' for Active; 'I' for Inactive)
REMARK    1  A    between atoms: N_3  and  C1*_10
REMARK    2  A    between atoms: C_7  and  C_20
REMARK    3  A    between atoms: C4*_12  and  C5*_15
REMARK    4  A    between atoms: C3*_13  and  O3*_18
REMARK    5  A    between atoms: C5*_15  and  O5*_16
REMARK                            x       y       z     vdW  Elec       q    Type
REMARK                         _______ _______ _______ _____ _____    ______ ____
ROOT
ATOM      1  O   UNL     1     -10.390   6.593  21.188  0.00  0.00    +0.000 OA
ATOM      2  O   UNL     1      -8.244   7.205  17.178  0.00  0.00    +0.000 OA
ATOM      3  N   UNL     1     -11.156   5.361  19.316  0.00  0.00    +0.000 N 
ATOM      4  N   UNL     1      -9.351   6.849  19.157  0.00  0.00    +0.000 N 
ATOM      5  C   UNL     1     -10.900   5.178  18.005  0.00  0.00    +0.000 A 
ATOM      6  C   UNL     1     -10.329   6.277  20.005  0.00  0.00    +0.000 A 
ATOM      7  C   UNL     1     -10.048   5.649  17.156  0.00  0.00    +0.000 A 
ATOM      8  C   UNL     1      -9.130   6.628  17.792  0.00  0.00    +0.000 A 
ATOM      9  H   UNL     1      -8.734   7.514  19.602  0.00  0.00    +0.000 HD
ENDROOT
BRANCH   3  10
ATOM     10  C1* UNL     1     -12.183   4.674  19.895  0.00  0.00    +0.000 A 
ATOM     11  O4* UNL     1     -13.184   5.315  20.633  0.00  0.00    +0.000 OA
ATOM     12  C4* UNL     1     -14.050   4.318  21.100  0.00  0.00    +0.000 A 
ATOM     13  C3* UNL     1     -13.580   3.034  20.641  0.00  0.00    +0.000 A 
ATOM     14  C2* UNL     1     -12.410   3.283  19.901  0.00  0.00    +0.000 A 
BRANCH  13  15
ATOM     15  O3* UNL     1     -13.796   1.903  21.375  0.00  0.00    +0.000 OA
ATOM     16  H3* UNL     1     -13.391   1.128  20.950  0.00  0.00    +0.000 HD
ENDBRANCH  13  15
BRANCH  12  17
ATOM     17  C5* UNL     1     -15.056   4.575  22.051  0.00  0.00    +0.000 C 
BRANCH  17  18
ATOM     18  O5* UNL     1     -16.007   4.812  22.949  0.00  0.00    +0.000 OA
ATOM     19  H5* UNL     1     -16.318   5.730  22.874  0.00  0.00    +0.000 HD
ENDBRANCH  17  18
ENDBRANCH  12  17
ENDBRANCH   3  10
BRANCH   7  20
ATOM     20  C   UNL     1      -9.894   5.377  15.721  0.00  0.00    +0.000 C 
ATOM     21  F   UNL     1      -8.759   4.690  15.439  0.00  0.00    +0.000 F 
ATOM     22  F   UNL     1     -10.921   4.623  15.239  0.00  0.00    +0.000 F 
ATOM     23  F   UNL     1      -9.880   6.511  14.976  0.00  0.00    +0.000 F 
ENDBRANCH   7  20
TORSDOF 5
ENDMDL
MODEL 5
REMARK VINA RESULT:      -4.7     19.431     20.547
REMARK  Name = Trifluridine.pdbqt.pdb
REMARK  5 active torsions:
REMARK  status: ('A' for Active; 'I' for Inactive)
REMARK    1  A    between atoms: N_3  and  C1*_10
REMARK    2  A    between atoms: C_7  and  C_20
REMARK    3  A    between atoms: C4*_12  and  C5*_15
REMARK    4  A    between atoms: C3*_13  and  O3*_18
REMARK    5  A    between atoms: C5*_15  and  O5*_16
REMARK                            x       y       z     vdW  Elec       q    Type
REMARK                         _______ _______ _______ _____ _____    ______ ____
ROOT
ATOM      1  O   UNL     1      -8.336   0.496  -0.447  0.00  0.00    +0.000 OA
ATOM      2  O   UNL     1      -5.430   1.848   2.838  0.00  0.00    +0.000 OA
ATOM      3  N   UNL     1      -9.159   0.664   1.768  0.00  0.00    +0.000 N 
ATOM      4  N   UNL     1      -6.932   1.175   1.238  0.00  0.00    +0.000 N 
ATOM      5  C   UNL     1      -8.759   0.991   3.012  0.00  0.00    +0.000 A 
ATOM      6  C   UNL     1      -8.188   0.748   0.743  0.00  0.00    +0.000 A 
ATOM      7  C   UNL     1      -7.654   1.381   3.555  0.00  0.00    +0.000 A 
ATOM      8  C   UNL     1      -6.566   1.498   2.551  0.00  0.00    +0.000 A 
ATOM      9  H   UNL     1      -6.202   1.250   0.545  0.00  0.00    +0.000 HD
ENDROOT
BRANCH   3  10
ATOM     10  C1* UNL     1     -10.451   0.272   1.565  0.00  0.00    +0.000 A 
ATOM     11  O4* UNL     1     -10.870  -1.045   1.783  0.00  0.00    +0.000 OA
ATOM     12  C4* UNL     1     -12.231  -1.099   1.455  0.00  0.00    +0.000 A 
ATOM     13  C3* UNL     1     -12.664   0.207   1.028  0.00  0.00    +0.000 A 
ATOM     14  C2* UNL     1     -11.534   1.041   1.097  0.00  0.00    +0.000 A 
BRANCH  13  15
ATOM     15  O3* UNL     1     -13.668   0.351   0.113  0.00  0.00    +0.000 OA
ATOM     16  H3* UNL     1     -13.961  -0.514  -0.223  0.00  0.00    +0.000 HD
ENDBRANCH  13  15
BRANCH  12  17
ATOM     17  C5* UNL     1     -12.936  -2.314   1.355  0.00  0.00    +0.000 C 
BRANCH  17  18
ATOM     18  O5* UNL     1     -13.606  -3.458   1.261  0.00  0.00    +0.000 OA
ATOM     19  H5* UNL     1     -13.841  -3.636   0.335  0.00  0.00    +0.000 HD
ENDBRANCH  17  18
ENDBRANCH  12  17
ENDBRANCH   3  10
BRANCH   7  20
ATOM     20  C   UNL     1      -7.343   1.681   4.959  0.00  0.00    +0.000 C 
ATOM     21  F   UNL     1      -7.199   3.010   5.188  0.00  0.00    +0.000 F 
ATOM     22  F   UNL     1      -8.334   1.261   5.794  0.00  0.00    +0.000 F 
ATOM     23  F   UNL     1      -6.210   1.069   5.384  0.00  0.00    +0.000 F 
ENDBRANCH   7  20
TORSDOF 5
ENDMDL
MODEL 6
REMARK VINA RESULT:      -4.6     26.850     28.556
REMARK  Name = Trifluridine.pdbqt.pdb
REMARK  5 active torsions:
REMARK  status: ('A' for Active; 'I' for Inactive)
REMARK    1  A    between atoms: N_3  and  C1*_10
REMARK    2  A    between atoms: C_7  and  C_20
REMARK    3  A    between atoms: C4*_12  and  C5*_15
REMARK    4  A    between atoms: C3*_13  and  O3*_18
REMARK    5  A    between atoms: C5*_15  and  O5*_16
REMARK                            x       y       z     vdW  Elec       q    Type
REMARK                         _______ _______ _______ _____ _____    ______ ____
ROOT
ATOM      1  O   UNL     1       1.814   8.226   0.232  0.00  0.00    +0.000 OA
ATOM      2  O   UNL     1      -2.550   6.860   0.616  0.00  0.00    +0.000 OA
ATOM      3  N   UNL     1       1.165   7.122   2.224  0.00  0.00    +0.000 N 
ATOM      4  N   UNL     1      -0.353   7.512   0.480  0.00  0.00    +0.000 N 
ATOM      5  C   UNL     1       0.088   6.557   2.806  0.00  0.00    +0.000 A 
ATOM      6  C   UNL     1       0.978   7.668   0.933  0.00  0.00    +0.000 A 
ATOM      7  C   UNL     1      -1.148   6.373   2.480  0.00  0.00    +0.000 A 
ATOM      8  C   UNL     1      -1.442   6.918   1.131  0.00  0.00    +0.000 A 
ATOM      9  H   UNL     1      -0.539   7.888  -0.439  0.00  0.00    +0.000 HD
ENDROOT
BRANCH   3  10
ATOM     10  C1* UNL     1       2.351   7.144   2.899  0.00  0.00    +0.000 A 
ATOM     11  O4* UNL     1       3.468   6.423   2.462  0.00  0.00    +0.000 OA
ATOM     12  C4* UNL     1       4.489   6.649   3.393  0.00  0.00    +0.000 A 
ATOM     13  C3* UNL     1       4.000   7.530   4.424  0.00  0.00    +0.000 A 
ATOM     14  C2* UNL     1       2.662   7.816   4.098  0.00  0.00    +0.000 A 
BRANCH  13  15
ATOM     15  O3* UNL     1       4.477   7.450   5.702  0.00  0.00    +0.000 OA
ATOM     16  H3* UNL     1       4.381   8.301   6.164  0.00  0.00    +0.000 HD
ENDBRANCH  13  15
BRANCH  12  17
ATOM     17  C5* UNL     1       5.693   5.918   3.388  0.00  0.00    +0.000 C 
BRANCH  17  18
ATOM     18  O5* UNL     1       6.831   5.231   3.380  0.00  0.00    +0.000 OA
ATOM     19  H5* UNL     1       6.680   4.334   3.037  0.00  0.00    +0.000 HD
ENDBRANCH  17  18
ENDBRANCH  12  17
ENDBRANCH   3  10
BRANCH   7  20
ATOM     20  C   UNL     1      -2.244   5.753   3.237  0.00  0.00    +0.000 C 
ATOM     21  F   UNL     1      -2.900   4.805   2.523  0.00  0.00    +0.000 F 
ATOM     22  F   UNL     1      -1.790   5.132   4.360  0.00  0.00    +0.000 F 
ATOM     23  F   UNL     1      -3.163   6.658   3.655  0.00  0.00    +0.000 F 
ENDBRANCH   7  20
TORSDOF 5
ENDMDL
MODEL 7
REMARK VINA RESULT:      -4.6     22.744     23.938
REMARK  Name = Trifluridine.pdbqt.pdb
REMARK  5 active torsions:
REMARK  status: ('A' for Active; 'I' for Inactive)
REMARK    1  A    between atoms: N_3  and  C1*_10
REMARK    2  A    between atoms: C_7  and  C_20
REMARK    3  A    between atoms: C4*_12  and  C5*_15
REMARK    4  A    between atoms: C3*_13  and  O3*_18
REMARK    5  A    between atoms: C5*_15  and  O5*_16
REMARK                            x       y       z     vdW  Elec       q    Type
REMARK                         _______ _______ _______ _____ _____    ______ ____
ROOT
ATOM      1  O   UNL     1      -2.888   0.544   1.397  0.00  0.00    +0.000 OA
ATOM      2  O   UNL     1      -0.094   4.154   1.867  0.00  0.00    +0.000 OA
ATOM      3  N   UNL     1      -3.764   2.508   2.389  0.00  0.00    +0.000 N 
ATOM      4  N   UNL     1      -1.541   2.386   1.651  0.00  0.00    +0.000 N 
ATOM      5  C   UNL     1      -3.401   3.758   2.736  0.00  0.00    +0.000 A 
ATOM      6  C   UNL     1      -2.773   1.701   1.783  0.00  0.00    +0.000 A 
ATOM      7  C   UNL     1      -2.319   4.460   2.662  0.00  0.00    +0.000 A 
ATOM      8  C   UNL     1      -1.213   3.692   2.037  0.00  0.00    +0.000 A 
ATOM      9  H   UNL     1      -0.798   1.851   1.225  0.00  0.00    +0.000 HD
ENDROOT
BRANCH   3  10
ATOM     10  C1* UNL     1      -5.039   2.091   2.641  0.00  0.00    +0.000 A 
ATOM     11  O4* UNL     1      -6.026   2.078   1.648  0.00  0.00    +0.000 OA
ATOM     12  C4* UNL     1      -7.206   1.625   2.253  0.00  0.00    +0.000 A 
ATOM     13  C3* UNL     1      -6.947   1.350   3.643  0.00  0.00    +0.000 A 
ATOM     14  C2* UNL     1      -5.592   1.657   3.862  0.00  0.00    +0.000 A 
BRANCH  13  15
ATOM     15  O3* UNL     1      -7.927   1.495   4.584  0.00  0.00    +0.000 OA
ATOM     16  H3* UNL     1      -7.844   0.823   5.282  0.00  0.00    +0.000 HD
ENDBRANCH  13  15
BRANCH  12  17
ATOM     17  C5* UNL     1      -8.456   1.681   1.606  0.00  0.00    +0.000 C 
BRANCH  17  18
ATOM     18  O5* UNL     1      -9.637   1.729   0.997  0.00  0.00    +0.000 OA
ATOM     19  H5* UNL     1      -9.819   2.633   0.689  0.00  0.00    +0.000 HD
ENDBRANCH  17  18
ENDBRANCH  12  17
ENDBRANCH   3  10
BRANCH   7  20
ATOM     20  C   UNL     1      -2.048   5.832   3.114  0.00  0.00    +0.000 C 
ATOM     21  F   UNL     1      -1.156   5.877   4.135  0.00  0.00    +0.000 F 
ATOM     22  F   UNL     1      -1.519   6.594   2.118  0.00  0.00    +0.000 F 
ATOM     23  F   UNL     1      -3.170   6.475   3.524  0.00  0.00    +0.000 F 
ENDBRANCH   7  20
TORSDOF 5
ENDMDL
MODEL 8
REMARK VINA RESULT:      -4.5     12.394     13.864
REMARK  Name = Trifluridine.pdbqt.pdb
REMARK  5 active torsions:
REMARK  status: ('A' for Active; 'I' for Inactive)
REMARK    1  A    between atoms: N_3  and  C1*_10
REMARK    2  A    between atoms: C_7  and  C_20
REMARK    3  A    between atoms: C4*_12  and  C5*_15
REMARK    4  A    between atoms: C3*_13  and  O3*_18
REMARK    5  A    between atoms: C5*_15  and  O5*_16
REMARK                            x       y       z     vdW  Elec       q    Type
REMARK                         _______ _______ _______ _____ _____    ______ ____
ROOT
ATOM      1  O   UNL     1     -10.010   7.551  21.117  0.00  0.00    +0.000 OA
ATOM      2  O   UNL     1     -13.542   5.684  23.374  0.00  0.00    +0.000 OA
ATOM      3  N   UNL     1     -11.321   5.932  19.990  0.00  0.00    +0.000 N 
ATOM      4  N   UNL     1     -11.795   6.588  22.191  0.00  0.00    +0.000 N 
ATOM      5  C   UNL     1     -12.391   5.135  20.177  0.00  0.00    +0.000 A 
ATOM      6  C   UNL     1     -10.945   6.760  21.073  0.00  0.00    +0.000 A 
ATOM      7  C   UNL     1     -13.215   4.908  21.146  0.00  0.00    +0.000 A 
ATOM      8  C   UNL     1     -12.897   5.735  22.337  0.00  0.00    +0.000 A 
ATOM      9  H   UNL     1     -11.567   7.156  22.994  0.00  0.00    +0.000 HD
ENDROOT
BRANCH   3  10
ATOM     10  C1* UNL     1     -10.666   5.896  18.793  0.00  0.00    +0.000 A 
ATOM     11  O4* UNL     1      -9.943   4.772  18.375  0.00  0.00    +0.000 OA
ATOM     12  C4* UNL     1      -9.385   5.087  17.129  0.00  0.00    +0.000 A 
ATOM     13  C3* UNL     1      -9.770   6.428  16.766  0.00  0.00    +0.000 A 
ATOM     14  C2* UNL     1     -10.560   6.913  17.824  0.00  0.00    +0.000 A 
BRANCH  13  15
ATOM     15  O3* UNL     1      -8.955   7.210  15.997  0.00  0.00    +0.000 OA
ATOM     16  H3* UNL     1      -8.212   7.560  16.520  0.00  0.00    +0.000 HD
ENDBRANCH  13  15
BRANCH  12  17
ATOM     17  C5* UNL     1      -8.423   4.270  16.504  0.00  0.00    +0.000 C 
BRANCH  17  18
ATOM     18  O5* UNL     1      -7.514   3.497  15.919  0.00  0.00    +0.000 OA
ATOM     19  H5* UNL     1      -7.513   2.614  16.324  0.00  0.00    +0.000 HD
ENDBRANCH  17  18
ENDBRANCH  12  17
ENDBRANCH   3  10
BRANCH   7  20
ATOM     20  C   UNL     1     -14.345   3.972  21.227  0.00  0.00    +0.000 C 
ATOM     21  F   UNL     1     -14.224   3.097  22.257  0.00  0.00    +0.000 F 
ATOM     22  F   UNL     1     -15.524   4.623  21.422  0.00  0.00    +0.000 F 
ATOM     23  F   UNL     1     -14.501   3.246  20.092  0.00  0.00    +0.000 F 
ENDBRANCH   7  20
TORSDOF 5
ENDMDL
MODEL 9
REMARK VINA RESULT:      -4.5     12.812     14.703
REMARK  Name = Trifluridine.pdbqt.pdb
REMARK  5 active torsions:
REMARK  status: ('A' for Active; 'I' for Inactive)
REMARK    1  A    between atoms: N_3  and  C1*_10
REMARK    2  A    between atoms: C_7  and  C_20
REMARK    3  A    between atoms: C4*_12  and  C5*_15
REMARK    4  A    between atoms: C3*_13  and  O3*_18
REMARK    5  A    between atoms: C5*_15  and  O5*_16
REMARK                            x       y       z     vdW  Elec       q    Type
REMARK                         _______ _______ _______ _____ _____    ______ ____
ROOT
ATOM      1  O   UNL     1      -9.671   1.569  19.810  0.00  0.00    +0.000 OA
ATOM      2  O   UNL     1      -7.471   3.254  16.152  0.00  0.00    +0.000 OA
ATOM      3  N   UNL     1     -10.463   3.594  18.870  0.00  0.00    +0.000 N 
ATOM      4  N   UNL     1      -8.618   2.457  17.974  0.00  0.00    +0.000 N 
ATOM      5  C   UNL     1     -10.203   4.456  17.867  0.00  0.00    +0.000 A 
ATOM      6  C   UNL     1      -9.616   2.467  18.978  0.00  0.00    +0.000 A 
ATOM      7  C   UNL     1      -9.328   4.534  16.920  0.00  0.00    +0.000 A 
ATOM      8  C   UNL     1      -8.386   3.387  16.952  0.00  0.00    +0.000 A 
ATOM      9  H   UNL     1      -7.984   1.672  18.009  0.00  0.00    +0.000 HD
ENDROOT
BRANCH   3  10
ATOM     10  C1* UNL     1     -11.503   3.851  19.716  0.00  0.00    +0.000 A 
ATOM     11  O4* UNL     1     -11.459   4.887  20.655  0.00  0.00    +0.000 OA
ATOM     12  C4* UNL     1     -12.667   4.847  21.363  0.00  0.00    +0.000 A 
ATOM     13  C3* UNL     1     -13.477   3.770  20.852  0.00  0.00    +0.000 A 
ATOM     14  C2* UNL     1     -12.725   3.159  19.833  0.00  0.00    +0.000 A 
BRANCH  13  15
ATOM     15  O3* UNL     1     -14.354   3.105  21.661  0.00  0.00    +0.000 OA
ATOM     16  H3* UNL     1     -14.453   3.559  22.517  0.00  0.00    +0.000 HD
ENDBRANCH  13  15
BRANCH  12  17
ATOM     17  C5* UNL     1     -12.887   5.611  22.526  0.00  0.00    +0.000 C 
BRANCH  17  18
ATOM     18  O5* UNL     1     -13.098   6.329  23.625  0.00  0.00    +0.000 OA
ATOM     19  H5* UNL     1     -12.882   5.806  24.414  0.00  0.00    +0.000 HD
ENDBRANCH  17  18
ENDBRANCH  12  17
ENDBRANCH   3  10
BRANCH   7  20
ATOM     20  C   UNL     1      -9.139   5.565  15.890  0.00  0.00    +0.000 C 
ATOM     21  F   UNL     1      -9.896   6.668  16.112  0.00  0.00    +0.000 F 
ATOM     22  F   UNL     1      -7.848   5.997  15.844  0.00  0.00    +0.000 F 
ATOM     23  F   UNL     1      -9.429   5.115  14.645  0.00  0.00    +0.000 F 
ENDBRANCH   7  20
TORSDOF 5
ENDMDL
