MODEL 1
REMARK VINA RESULT:      -8.0      0.000      0.000
REMARK  Name = Troglitazone.pdbqt.pdb
REMARK  4 active torsions:
REMARK  status: ('A' for Active; 'I' for Inactive)
REMARK    1  A    between atoms: C_1  and  O_2
REMARK    2  A    between atoms: C_1  and  C_18
REMARK    3  A    between atoms: O_2  and  C_3
REMARK    4  A    between atoms: C_26  and  O_32
REMARK                            x       y       z     vdW  Elec       q    Type
REMARK                         _______ _______ _______ _____ _____    ______ ____
ROOT
ATOM      1  C   UNL     1     -14.961   5.003  -3.673  0.00  0.00    +0.000 C 
ENDROOT
BRANCH   1   2
ATOM      2  C   UNL     1     -15.750   6.150  -3.193  0.00  0.00    +0.000 C 
ATOM      3  O   UNL     1     -15.061   7.370  -3.647  0.00  0.00    +0.000 OA
ATOM      4  C   UNL     1     -15.045   8.566  -2.919  0.00  0.00    +0.000 A 
ATOM      5  C   UNL     1     -15.293   8.649  -1.517  0.00  0.00    +0.000 A 
ATOM      6  C   UNL     1     -14.702   9.738  -3.627  0.00  0.00    +0.000 A 
ATOM      7  C   UNL     1     -15.611   7.409  -0.905  0.00  0.00    +0.000 C 
ATOM      8  C   UNL     1     -15.232   9.870  -0.834  0.00  0.00    +0.000 A 
ATOM      9  C   UNL     1     -15.825   6.190  -1.738  0.00  0.00    +0.000 C 
ATOM     10  C   UNL     1     -14.909  11.031  -1.552  0.00  0.00    +0.000 A 
ATOM     11  C   UNL     1     -15.501   9.929   0.655  0.00  0.00    +0.000 C 
ATOM     12  C   UNL     1     -14.644  10.969  -2.937  0.00  0.00    +0.000 A 
ATOM     13  C   UNL     1     -14.286  12.294  -3.610  0.00  0.00    +0.000 C 
ATOM     14  C   UNL     1     -14.389   9.632  -5.114  0.00  0.00    +0.000 C 
ATOM     15  C   UNL     1     -17.164   6.174  -3.825  0.00  0.00    +0.000 C 
BRANCH  10  16
ATOM     16  O   UNL     1     -14.840  12.252  -0.900  0.00  0.00    +0.000 OA
ATOM     17  H   UNL     1     -15.387  12.195  -0.086  0.00  0.00    +0.000 HD
ENDBRANCH  10  16
ENDBRANCH   1   2
BRANCH   1  18
ATOM     18  O   UNL     1     -14.254   3.963  -4.115  0.00  0.00    +0.000 OA
BRANCH  18  19
ATOM     19  C   UNL     1     -13.508   3.326  -3.154  0.00  0.00    +0.000 C 
ATOM     20  C   UNL     1     -12.114   3.240  -3.163  0.00  0.00    +0.000 C 
ATOM     21  C   UNL     1     -11.445   2.577  -2.137  0.00  0.00    +0.000 C 
ATOM     22  C   UNL     1     -12.170   1.997  -1.099  0.00  0.00    +0.000 C 
ATOM     23  C   UNL     1     -13.561   2.079  -1.085  0.00  0.00    +0.000 C 
ATOM     24  C   UNL     1     -14.229   2.744  -2.111  0.00  0.00    +0.000 C 
ATOM     25  C   UNL     1     -11.489   1.320  -0.048  0.00  0.00    +0.000 C 
ATOM     26  C   UNL     1     -10.819   0.640   0.993  0.00  0.00    +0.000 C 
ATOM     27  S   UNL     1      -9.342   1.153   1.715  0.00  0.00    +0.000 S 
ATOM     28  C   UNL     1      -9.326  -0.213   2.813  0.00  0.00    +0.000 C 
ATOM     29  O   UNL     1      -8.460  -0.413   3.648  0.00  0.00    +0.000 OA
ATOM     30  N   UNL     1     -10.413  -0.994   2.593  0.00  0.00    +0.000 N 
ATOM     31  C   UNL     1     -11.293  -0.609   1.625  0.00  0.00    +0.000 C 
ATOM     32  H   UNL     1     -10.570  -1.826   3.140  0.00  0.00    +0.000 HD
ATOM     33  O   UNL     1     -12.315  -1.207   1.334  0.00  0.00    +0.000 OA
ENDBRANCH  18  19
ENDBRANCH   1  18
TORSDOF 4
ENDMDL
MODEL 2
REMARK VINA RESULT:      -6.9     13.908     17.714
REMARK  Name = Troglitazone.pdbqt.pdb
REMARK  4 active torsions:
REMARK  status: ('A' for Active; 'I' for Inactive)
REMARK    1  A    between atoms: C_1  and  O_2
REMARK    2  A    between atoms: C_1  and  C_18
REMARK    3  A    between atoms: O_2  and  C_3
REMARK    4  A    between atoms: C_26  and  O_32
REMARK                            x       y       z     vdW  Elec       q    Type
REMARK                         _______ _______ _______ _____ _____    ______ ____
ROOT
ATOM      1  C   UNL     1     -22.639  13.956   9.179  0.00  0.00    +0.000 C 
ENDROOT
BRANCH   1   2
ATOM      2  C   UNL     1     -23.265  15.289   9.168  0.00  0.00    +0.000 C 
ATOM      3  O   UNL     1     -22.661  16.060  10.268  0.00  0.00    +0.000 OA
ATOM      4  C   UNL     1     -23.357  17.022  11.011  0.00  0.00    +0.000 A 
ATOM      5  C   UNL     1     -24.779  17.077  11.109  0.00  0.00    +0.000 A 
ATOM      6  C   UNL     1     -22.581  17.944  11.744  0.00  0.00    +0.000 A 
ATOM      7  C   UNL     1     -25.457  16.093  10.344  0.00  0.00    +0.000 C 
ATOM      8  C   UNL     1     -25.421  18.043  11.893  0.00  0.00    +0.000 A 
ATOM      9  C   UNL     1     -24.701  15.217   9.402  0.00  0.00    +0.000 C 
ATOM     10  C   UNL     1     -24.638  18.967  12.604  0.00  0.00    +0.000 A 
ATOM     11  C   UNL     1     -26.932  18.079  11.980  0.00  0.00    +0.000 C 
ATOM     12  C   UNL     1     -23.230  18.919  12.533  0.00  0.00    +0.000 A 
ATOM     13  C   UNL     1     -22.483  19.964  13.362  0.00  0.00    +0.000 C 
ATOM     14  C   UNL     1     -21.062  17.845  11.673  0.00  0.00    +0.000 C 
ATOM     15  C   UNL     1     -22.950  16.055   7.859  0.00  0.00    +0.000 C 
BRANCH  10  16
ATOM     16  O   UNL     1     -25.249  19.931  13.389  0.00  0.00    +0.000 OA
ATOM     17  H   UNL     1     -24.575  20.606  13.624  0.00  0.00    +0.000 HD
ENDBRANCH  10  16
ENDBRANCH   1   2
BRANCH   1  18
ATOM     18  O   UNL     1     -22.073  12.748   9.179  0.00  0.00    +0.000 OA
BRANCH  18  19
ATOM     19  C   UNL     1     -22.592  11.872   8.257  0.00  0.00    +0.000 C 
ATOM     20  C   UNL     1     -22.344  10.498   8.245  0.00  0.00    +0.000 C 
ATOM     21  C   UNL     1     -22.923   9.689   7.271  0.00  0.00    +0.000 C 
ATOM     22  C   UNL     1     -23.753  10.253   6.306  0.00  0.00    +0.000 C 
ATOM     23  C   UNL     1     -24.005  11.623   6.313  0.00  0.00    +0.000 C 
ATOM     24  C   UNL     1     -23.426  12.431   7.289  0.00  0.00    +0.000 C 
ATOM     25  C   UNL     1     -24.348   9.427   5.310  0.00  0.00    +0.000 C 
ATOM     26  C   UNL     1     -24.935   8.615   4.314  0.00  0.00    +0.000 C 
ATOM     27  S   UNL     1     -25.571   7.036   4.579  0.00  0.00    +0.000 S 
ATOM     28  C   UNL     1     -26.043   6.871   2.899  0.00  0.00    +0.000 C 
ATOM     29  O   UNL     1     -26.597   5.889   2.435  0.00  0.00    +0.000 OA
ATOM     30  N   UNL     1     -25.704   7.991   2.213  0.00  0.00    +0.000 N 
ATOM     31  C   UNL     1     -25.101   9.005   2.899  0.00  0.00    +0.000 C 
ATOM     32  H   UNL     1     -25.905   8.075   1.230  0.00  0.00    +0.000 HD
ATOM     33  O   UNL     1     -24.758  10.069   2.412  0.00  0.00    +0.000 OA
ENDBRANCH  18  19
ENDBRANCH   1  18
TORSDOF 4
ENDMDL
MODEL 3
REMARK VINA RESULT:      -6.8     19.416     22.895
REMARK  Name = Troglitazone.pdbqt.pdb
REMARK  4 active torsions:
REMARK  status: ('A' for Active; 'I' for Inactive)
REMARK    1  A    between atoms: C_1  and  O_2
REMARK    2  A    between atoms: C_1  and  C_18
REMARK    3  A    between atoms: O_2  and  C_3
REMARK    4  A    between atoms: C_26  and  O_32
REMARK                            x       y       z     vdW  Elec       q    Type
REMARK                         _______ _______ _______ _____ _____    ______ ____
ROOT
ATOM      1  C   UNL     1      -8.611   7.620  18.861  0.00  0.00    +0.000 C 
ENDROOT
BRANCH   1   2
ATOM      2  C   UNL     1      -8.322   7.046  17.536  0.00  0.00    +0.000 C 
ATOM      3  O   UNL     1      -8.143   5.596  17.722  0.00  0.00    +0.000 OA
ATOM      4  C   UNL     1      -7.259   4.822  16.960  0.00  0.00    +0.000 A 
ATOM      5  C   UNL     1      -6.146   5.356  16.244  0.00  0.00    +0.000 A 
ATOM      6  C   UNL     1      -7.468   3.427  16.964  0.00  0.00    +0.000 A 
ATOM      7  C   UNL     1      -6.023   6.768  16.323  0.00  0.00    +0.000 C 
ATOM      8  C   UNL     1      -5.275   4.530  15.524  0.00  0.00    +0.000 A 
ATOM      9  C   UNL     1      -7.093   7.583  16.966  0.00  0.00    +0.000 C 
ATOM     10  C   UNL     1      -5.504   3.145  15.520  0.00  0.00    +0.000 A 
ATOM     11  C   UNL     1      -4.102   5.123  14.773  0.00  0.00    +0.000 C 
ATOM     12  C   UNL     1      -6.590   2.595  16.235  0.00  0.00    +0.000 A 
ATOM     13  C   UNL     1      -6.730   1.074  16.172  0.00  0.00    +0.000 C 
ATOM     14  C   UNL     1      -8.629   2.861  17.773  0.00  0.00    +0.000 C 
ATOM     15  C   UNL     1      -9.514   7.228  16.563  0.00  0.00    +0.000 C 
BRANCH  10  16
ATOM     16  O   UNL     1      -4.656   2.305  14.818  0.00  0.00    +0.000 OA
ATOM     17  H   UNL     1      -4.969   1.382  14.940  0.00  0.00    +0.000 HD
ENDBRANCH  10  16
ENDBRANCH   1   2
BRANCH   1  18
ATOM     18  O   UNL     1      -8.883   8.141  20.058  0.00  0.00    +0.000 OA
BRANCH  18  19
ATOM     19  C   UNL     1      -9.893   7.509  20.742  0.00  0.00    +0.000 C 
ATOM     20  C   UNL     1     -10.785   6.600  20.171  0.00  0.00    +0.000 C 
ATOM     21  C   UNL     1     -11.775   6.004  20.949  0.00  0.00    +0.000 C 
ATOM     22  C   UNL     1     -11.873   6.317  22.302  0.00  0.00    +0.000 C 
ATOM     23  C   UNL     1     -10.985   7.224  22.878  0.00  0.00    +0.000 C 
ATOM     24  C   UNL     1      -9.996   7.818  22.098  0.00  0.00    +0.000 C 
ATOM     25  C   UNL     1     -12.882   5.708  23.101  0.00  0.00    +0.000 C 
ATOM     26  C   UNL     1     -13.887   5.113  23.897  0.00  0.00    +0.000 C 
ATOM     27  S   UNL     1     -14.390   3.470  23.784  0.00  0.00    +0.000 S 
ATOM     28  C   UNL     1     -15.562   3.670  25.071  0.00  0.00    +0.000 C 
ATOM     29  O   UNL     1     -16.285   2.780  25.486  0.00  0.00    +0.000 OA
ATOM     30  N   UNL     1     -15.534   4.948  25.525  0.00  0.00    +0.000 N 
ATOM     31  C   UNL     1     -14.648   5.812  24.954  0.00  0.00    +0.000 C 
ATOM     32  H   UNL     1     -16.143   5.243  26.272  0.00  0.00    +0.000 HD
ATOM     33  O   UNL     1     -14.507   6.980  25.274  0.00  0.00    +0.000 OA
ENDBRANCH  18  19
ENDBRANCH   1  18
TORSDOF 4
ENDMDL
MODEL 4
REMARK VINA RESULT:      -6.7     18.315     20.240
REMARK  Name = Troglitazone.pdbqt.pdb
REMARK  4 active torsions:
REMARK  status: ('A' for Active; 'I' for Inactive)
REMARK    1  A    between atoms: C_1  and  O_2
REMARK    2  A    between atoms: C_1  and  C_18
REMARK    3  A    between atoms: O_2  and  C_3
REMARK    4  A    between atoms: C_26  and  O_32
REMARK                            x       y       z     vdW  Elec       q    Type
REMARK                         _______ _______ _______ _____ _____    ______ ____
ROOT
ATOM      1  C   UNL     1      -7.833   5.778  16.601  0.00  0.00    +0.000 C 
ENDROOT
BRANCH   1   2
ATOM      2  C   UNL     1      -9.168   6.188  17.069  0.00  0.00    +0.000 C 
ATOM      3  O   UNL     1      -9.008   6.698  18.442  0.00  0.00    +0.000 OA
ATOM      4  C   UNL     1      -9.983   6.557  19.438  0.00  0.00    +0.000 A 
ATOM      5  C   UNL     1     -11.016   5.576  19.407  0.00  0.00    +0.000 A 
ATOM      6  C   UNL     1      -9.878   7.412  20.555  0.00  0.00    +0.000 A 
ATOM      7  C   UNL     1     -11.016   4.761  18.246  0.00  0.00    +0.000 C 
ATOM      8  C   UNL     1     -11.946   5.460  20.448  0.00  0.00    +0.000 A 
ATOM      9  C   UNL     1     -10.099   5.068  17.110  0.00  0.00    +0.000 C 
ATOM     10  C   UNL     1     -11.844   6.328  21.546  0.00  0.00    +0.000 A 
ATOM     11  C   UNL     1     -13.034   4.409  20.390  0.00  0.00    +0.000 C 
ATOM     12  C   UNL     1     -10.818   7.296  21.603  0.00  0.00    +0.000 A 
ATOM     13  C   UNL     1     -10.796   8.173  22.855  0.00  0.00    +0.000 C 
ATOM     14  C   UNL     1      -8.740   8.424  20.602  0.00  0.00    +0.000 C 
ATOM     15  C   UNL     1      -9.735   7.354  16.223  0.00  0.00    +0.000 C 
BRANCH  10  16
ATOM     16  O   UNL     1     -12.749   6.233  22.590  0.00  0.00    +0.000 OA
ATOM     17  H   UNL     1     -12.862   7.127  22.981  0.00  0.00    +0.000 HD
ENDBRANCH  10  16
ENDBRANCH   1   2
BRANCH   1  18
ATOM     18  O   UNL     1      -6.628   5.404  16.168  0.00  0.00    +0.000 OA
BRANCH  18  19
ATOM     19  C   UNL     1      -6.484   4.053  15.969  0.00  0.00    +0.000 C 
ATOM     20  C   UNL     1      -7.159   3.071  16.697  0.00  0.00    +0.000 C 
ATOM     21  C   UNL     1      -6.952   1.722  16.416  0.00  0.00    +0.000 C 
ATOM     22  C   UNL     1      -6.068   1.354  15.406  0.00  0.00    +0.000 C 
ATOM     23  C   UNL     1      -5.391   2.329  14.676  0.00  0.00    +0.000 C 
ATOM     24  C   UNL     1      -5.601   3.677  14.958  0.00  0.00    +0.000 C 
ATOM     25  C   UNL     1      -5.855  -0.024  15.117  0.00  0.00    +0.000 C 
ATOM     26  C   UNL     1      -5.633  -1.390  14.830  0.00  0.00    +0.000 C 
ATOM     27  S   UNL     1      -6.854  -2.605  14.817  0.00  0.00    +0.000 S 
ATOM     28  C   UNL     1      -5.703  -3.852  14.380  0.00  0.00    +0.000 C 
ATOM     29  O   UNL     1      -5.993  -5.023  14.203  0.00  0.00    +0.000 OA
ATOM     30  N   UNL     1      -4.462  -3.315  14.268  0.00  0.00    +0.000 N 
ATOM     31  C   UNL     1      -4.321  -1.976  14.486  0.00  0.00    +0.000 C 
ATOM     32  H   UNL     1      -3.672  -3.888  14.017  0.00  0.00    +0.000 HD
ATOM     33  O   UNL     1      -3.271  -1.363  14.405  0.00  0.00    +0.000 OA
ENDBRANCH  18  19
ENDBRANCH   1  18
TORSDOF 4
ENDMDL
MODEL 5
REMARK VINA RESULT:      -6.7     14.112     16.080
REMARK  Name = Troglitazone.pdbqt.pdb
REMARK  4 active torsions:
REMARK  status: ('A' for Active; 'I' for Inactive)
REMARK    1  A    between atoms: C_1  and  O_2
REMARK    2  A    between atoms: C_1  and  C_18
REMARK    3  A    between atoms: O_2  and  C_3
REMARK    4  A    between atoms: C_26  and  O_32
REMARK                            x       y       z     vdW  Elec       q    Type
REMARK                         _______ _______ _______ _____ _____    ______ ____
ROOT
ATOM      1  C   UNL     1     -22.409  13.955   8.942  0.00  0.00    +0.000 C 
ENDROOT
BRANCH   1   2
ATOM      2  C   UNL     1     -22.891  15.347   8.953  0.00  0.00    +0.000 C 
ATOM      3  O   UNL     1     -23.016  15.773   7.548  0.00  0.00    +0.000 OA
ATOM      4  C   UNL     1     -22.785  17.085   7.115  0.00  0.00    +0.000 A 
ATOM      5  C   UNL     1     -22.012  18.039   7.840  0.00  0.00    +0.000 A 
ATOM      6  C   UNL     1     -23.311  17.440   5.855  0.00  0.00    +0.000 A 
ATOM      7  C   UNL     1     -21.519  17.568   9.085  0.00  0.00    +0.000 C 
ATOM      8  C   UNL     1     -21.787  19.328   7.342  0.00  0.00    +0.000 A 
ATOM      9  C   UNL     1     -21.952  16.243   9.615  0.00  0.00    +0.000 C 
ATOM     10  C   UNL     1     -22.331  19.676   6.096  0.00  0.00    +0.000 A 
ATOM     11  C   UNL     1     -20.962  20.321   8.133  0.00  0.00    +0.000 C 
ATOM     12  C   UNL     1     -23.085  18.742   5.356  0.00  0.00    +0.000 A 
ATOM     13  C   UNL     1     -23.612  19.228   4.006  0.00  0.00    +0.000 C 
ATOM     14  C   UNL     1     -24.093  16.398   5.065  0.00  0.00    +0.000 C 
ATOM     15  C   UNL     1     -24.303  15.456   9.580  0.00  0.00    +0.000 C 
BRANCH  10  16
ATOM     16  O   UNL     1     -22.121  20.945   5.580  0.00  0.00    +0.000 OA
ATOM     17  H   UNL     1     -22.743  21.077   4.831  0.00  0.00    +0.000 HD
ENDBRANCH  10  16
ENDBRANCH   1   2
BRANCH   1  18
ATOM     18  O   UNL     1     -21.974  12.694   8.921  0.00  0.00    +0.000 OA
BRANCH  18  19
ATOM     19  C   UNL     1     -22.620  11.880   8.024  0.00  0.00    +0.000 C 
ATOM     20  C   UNL     1     -23.450  12.337   6.998  0.00  0.00    +0.000 C 
ATOM     21  C   UNL     1     -24.057  11.431   6.130  0.00  0.00    +0.000 C 
ATOM     22  C   UNL     1     -23.834  10.066   6.288  0.00  0.00    +0.000 C 
ATOM     23  C   UNL     1     -23.007   9.604   7.310  0.00  0.00    +0.000 C 
ATOM     24  C   UNL     1     -22.400  10.512   8.176  0.00  0.00    +0.000 C 
ATOM     25  C   UNL     1     -24.452   9.139   5.401  0.00  0.00    +0.000 C 
ATOM     26  C   UNL     1     -25.069   8.213   4.530  0.00  0.00    +0.000 C 
ATOM     27  S   UNL     1     -25.268   8.438   2.834  0.00  0.00    +0.000 S 
ATOM     28  C   UNL     1     -26.056   6.883   2.653  0.00  0.00    +0.000 C 
ATOM     29  O   UNL     1     -26.456   6.435   1.591  0.00  0.00    +0.000 OA
ATOM     30  N   UNL     1     -26.142   6.266   3.858  0.00  0.00    +0.000 N 
ATOM     31  C   UNL     1     -25.624   6.908   4.944  0.00  0.00    +0.000 C 
ATOM     32  H   UNL     1     -26.564   5.355   3.943  0.00  0.00    +0.000 HD
ATOM     33  O   UNL     1     -25.620   6.465   6.080  0.00  0.00    +0.000 OA
ENDBRANCH  18  19
ENDBRANCH   1  18
TORSDOF 4
ENDMDL
MODEL 6
REMARK VINA RESULT:      -6.6     20.509     23.849
REMARK  Name = Troglitazone.pdbqt.pdb
REMARK  4 active torsions:
REMARK  status: ('A' for Active; 'I' for Inactive)
REMARK    1  A    between atoms: C_1  and  O_2
REMARK    2  A    between atoms: C_1  and  C_18
REMARK    3  A    between atoms: O_2  and  C_3
REMARK    4  A    between atoms: C_26  and  O_32
REMARK                            x       y       z     vdW  Elec       q    Type
REMARK                         _______ _______ _______ _____ _____    ______ ____
ROOT
ATOM      1  C   UNL     1     -13.503   5.919  23.797  0.00  0.00    +0.000 C 
ENDROOT
BRANCH   1   2
ATOM      2  C   UNL     1     -14.581   4.954  24.070  0.00  0.00    +0.000 C 
ATOM      3  O   UNL     1     -15.634   5.184  23.066  0.00  0.00    +0.000 OA
ATOM      4  C   UNL     1     -17.000   5.012  23.323  0.00  0.00    +0.000 A 
ATOM      5  C   UNL     1     -17.572   5.023  24.630  0.00  0.00    +0.000 A 
ATOM      6  C   UNL     1     -17.847   4.879  22.203  0.00  0.00    +0.000 A 
ATOM      7  C   UNL     1     -16.630   5.179  25.680  0.00  0.00    +0.000 C 
ATOM      8  C   UNL     1     -18.950   4.878  24.825  0.00  0.00    +0.000 A 
ATOM      9  C   UNL     1     -15.167   5.151  25.390  0.00  0.00    +0.000 C 
ATOM     10  C   UNL     1     -19.781   4.728  23.704  0.00  0.00    +0.000 A 
ATOM     11  C   UNL     1     -19.531   4.893  26.224  0.00  0.00    +0.000 C 
ATOM     12  C   UNL     1     -19.237   4.730  22.403  0.00  0.00    +0.000 A 
ATOM     13  C   UNL     1     -20.240   4.577  21.259  0.00  0.00    +0.000 C 
ATOM     14  C   UNL     1     -17.232   4.919  20.809  0.00  0.00    +0.000 C 
ATOM     15  C   UNL     1     -14.100   3.494  23.886  0.00  0.00    +0.000 C 
BRANCH  10  16
ATOM     16  O   UNL     1     -21.149   4.585  23.871  0.00  0.00    +0.000 OA
ATOM     17  H   UNL     1     -21.585   4.790  23.015  0.00  0.00    +0.000 HD
ENDBRANCH  10  16
ENDBRANCH   1   2
BRANCH   1  18
ATOM     18  O   UNL     1     -12.532   6.801  23.556  0.00  0.00    +0.000 OA
BRANCH  18  19
ATOM     19  C   UNL     1     -11.836   6.584  22.392  0.00  0.00    +0.000 C 
ATOM     20  C   UNL     1     -10.719   7.318  21.991  0.00  0.00    +0.000 C 
ATOM     21  C   UNL     1     -10.074   7.017  20.793  0.00  0.00    +0.000 C 
ATOM     22  C   UNL     1     -10.548   5.980  19.994  0.00  0.00    +0.000 C 
ATOM     23  C   UNL     1     -11.663   5.244  20.389  0.00  0.00    +0.000 C 
ATOM     24  C   UNL     1     -12.305   5.545  21.588  0.00  0.00    +0.000 C 
ATOM     25  C   UNL     1      -9.890   5.669  18.770  0.00  0.00    +0.000 C 
ATOM     26  C   UNL     1      -9.246   5.361  17.550  0.00  0.00    +0.000 C 
ATOM     27  S   UNL     1      -7.541   5.367  17.307  0.00  0.00    +0.000 S 
ATOM     28  C   UNL     1      -7.711   4.886  15.630  0.00  0.00    +0.000 C 
ATOM     29  O   UNL     1      -6.776   4.704  14.870  0.00  0.00    +0.000 OA
ATOM     30  N   UNL     1      -9.025   4.748  15.322  0.00  0.00    +0.000 N 
ATOM     31  C   UNL     1      -9.942   4.977  16.304  0.00  0.00    +0.000 C 
ATOM     32  H   UNL     1      -9.311   4.470  14.396  0.00  0.00    +0.000 HD
ATOM     33  O   UNL     1     -11.149   4.875  16.170  0.00  0.00    +0.000 OA
ENDBRANCH  18  19
ENDBRANCH   1  18
TORSDOF 4
ENDMDL
MODEL 7
REMARK VINA RESULT:      -6.6     21.718     25.555
REMARK  Name = Troglitazone.pdbqt.pdb
REMARK  4 active torsions:
REMARK  status: ('A' for Active; 'I' for Inactive)
REMARK    1  A    between atoms: C_1  and  O_2
REMARK    2  A    between atoms: C_1  and  C_18
REMARK    3  A    between atoms: O_2  and  C_3
REMARK    4  A    between atoms: C_26  and  O_32
REMARK                            x       y       z     vdW  Elec       q    Type
REMARK                         _______ _______ _______ _____ _____    ______ ____
ROOT
ATOM      1  C   UNL     1     -26.874   8.504  17.458  0.00  0.00    +0.000 C 
ENDROOT
BRANCH   1   2
ATOM      2  C   UNL     1     -25.685   7.923  16.811  0.00  0.00    +0.000 C 
ATOM      3  O   UNL     1     -25.009   7.087  17.818  0.00  0.00    +0.000 OA
ATOM      4  C   UNL     1     -23.620   6.920  17.878  0.00  0.00    +0.000 A 
ATOM      5  C   UNL     1     -22.683   7.825  17.297  0.00  0.00    +0.000 A 
ATOM      6  C   UNL     1     -23.143   5.814  18.613  0.00  0.00    +0.000 A 
ATOM      7  C   UNL     1     -23.273   8.909  16.597  0.00  0.00    +0.000 C 
ATOM      8  C   UNL     1     -21.302   7.625  17.417  0.00  0.00    +0.000 A 
ATOM      9  C   UNL     1     -24.747   8.948  16.373  0.00  0.00    +0.000 C 
ATOM     10  C   UNL     1     -20.840   6.511  18.134  0.00  0.00    +0.000 A 
ATOM     11  C   UNL     1     -20.330   8.601  16.790  0.00  0.00    +0.000 C 
ATOM     12  C   UNL     1     -21.750   5.612  18.730  0.00  0.00    +0.000 A 
ATOM     13  C   UNL     1     -21.131   4.446  19.500  0.00  0.00    +0.000 C 
ATOM     14  C   UNL     1     -24.151   4.881  19.272  0.00  0.00    +0.000 C 
ATOM     15  C   UNL     1     -26.074   6.986  15.641  0.00  0.00    +0.000 C 
BRANCH  10  16
ATOM     16  O   UNL     1     -19.479   6.291  18.269  0.00  0.00    +0.000 OA
ATOM     17  H   UNL     1     -19.311   5.329  18.160  0.00  0.00    +0.000 HD
ENDBRANCH  10  16
ENDBRANCH   1   2
BRANCH   1  18
ATOM     18  O   UNL     1     -27.949   9.023  18.052  0.00  0.00    +0.000 OA
BRANCH  18  19
ATOM     19  C   UNL     1     -27.931  10.391  18.176  0.00  0.00    +0.000 C 
ATOM     20  C   UNL     1     -27.904  11.281  17.101  0.00  0.00    +0.000 C 
ATOM     21  C   UNL     1     -27.894  12.656  17.328  0.00  0.00    +0.000 C 
ATOM     22  C   UNL     1     -27.911  13.142  18.632  0.00  0.00    +0.000 C 
ATOM     23  C   UNL     1     -27.937  12.258  19.709  0.00  0.00    +0.000 C 
ATOM     24  C   UNL     1     -27.948  10.884  19.480  0.00  0.00    +0.000 C 
ATOM     25  C   UNL     1     -27.903  14.546  18.866  0.00  0.00    +0.000 C 
ATOM     26  C   UNL     1     -27.886  15.939  19.106  0.00  0.00    +0.000 C 
ATOM     27  S   UNL     1     -28.753  17.108  18.185  0.00  0.00    +0.000 S 
ATOM     28  C   UNL     1     -28.157  18.427  19.172  0.00  0.00    +0.000 C 
ATOM     29  O   UNL     1     -28.450  19.598  19.003  0.00  0.00    +0.000 OA
ATOM     30  N   UNL     1     -27.335  17.945  20.138  0.00  0.00    +0.000 N 
ATOM     31  C   UNL     1     -27.130  16.598  20.191  0.00  0.00    +0.000 C 
ATOM     32  H   UNL     1     -26.902  18.565  20.804  0.00  0.00    +0.000 HD
ATOM     33  O   UNL     1     -26.431  16.030  21.013  0.00  0.00    +0.000 OA
ENDBRANCH  18  19
ENDBRANCH   1  18
TORSDOF 4
ENDMDL
MODEL 8
REMARK VINA RESULT:      -6.2     19.401     23.256
REMARK  Name = Troglitazone.pdbqt.pdb
REMARK  4 active torsions:
REMARK  status: ('A' for Active; 'I' for Inactive)
REMARK    1  A    between atoms: C_1  and  O_2
REMARK    2  A    between atoms: C_1  and  C_18
REMARK    3  A    between atoms: O_2  and  C_3
REMARK    4  A    between atoms: C_26  and  O_32
REMARK                            x       y       z     vdW  Elec       q    Type
REMARK                         _______ _______ _______ _____ _____    ______ ____
ROOT
ATOM      1  C   UNL     1      -7.174   9.461  20.431  0.00  0.00    +0.000 C 
ENDROOT
BRANCH   1   2
ATOM      2  C   UNL     1      -6.882   9.202  19.011  0.00  0.00    +0.000 C 
ATOM      3  O   UNL     1      -7.901   8.256  18.524  0.00  0.00    +0.000 OA
ATOM      4  C   UNL     1      -7.649   7.282  17.550  0.00  0.00    +0.000 A 
ATOM      5  C   UNL     1      -6.349   6.793  17.230  0.00  0.00    +0.000 A 
ATOM      6  C   UNL     1      -8.772   6.724  16.904  0.00  0.00    +0.000 A 
ATOM      7  C   UNL     1      -5.296   7.412  17.953  0.00  0.00    +0.000 C 
ATOM      8  C   UNL     1      -6.160   5.793  16.268  0.00  0.00    +0.000 A 
ATOM      9  C   UNL     1      -5.573   8.588  18.828  0.00  0.00    +0.000 C 
ATOM     10  C   UNL     1      -7.283   5.259  15.618  0.00  0.00    +0.000 A 
ATOM     11  C   UNL     1      -4.767   5.292  15.947  0.00  0.00    +0.000 C 
ATOM     12  C   UNL     1      -8.580   5.717  15.932  0.00  0.00    +0.000 A 
ATOM     13  C   UNL     1      -9.727   5.051  15.172  0.00  0.00    +0.000 C 
ATOM     14  C   UNL     1     -10.162   7.217  17.289  0.00  0.00    +0.000 C 
ATOM     15  C   UNL     1      -7.019  10.486  18.156  0.00  0.00    +0.000 C 
BRANCH  10  16
ATOM     16  O   UNL     1      -7.123   4.267  14.664  0.00  0.00    +0.000 OA
ATOM     17  H   UNL     1      -6.586   3.546  15.058  0.00  0.00    +0.000 HD
ENDBRANCH  10  16
ENDBRANCH   1   2
BRANCH   1  18
ATOM     18  O   UNL     1      -7.435   9.707  21.716  0.00  0.00    +0.000 OA
BRANCH  18  19
ATOM     19  C   UNL     1      -8.455   8.956  22.247  0.00  0.00    +0.000 C 
ATOM     20  C   UNL     1      -8.372   8.248  23.447  0.00  0.00    +0.000 C 
ATOM     21  C   UNL     1      -9.465   7.518  23.909  0.00  0.00    +0.000 C 
ATOM     22  C   UNL     1     -10.644   7.495  23.169  0.00  0.00    +0.000 C 
ATOM     23  C   UNL     1     -10.733   8.199  21.970  0.00  0.00    +0.000 C 
ATOM     24  C   UNL     1      -9.639   8.930  21.511  0.00  0.00    +0.000 C 
ATOM     25  C   UNL     1     -11.763   6.751  23.640  0.00  0.00    +0.000 C 
ATOM     26  C   UNL     1     -12.875   6.008  24.097  0.00  0.00    +0.000 C 
ATOM     27  S   UNL     1     -13.379   5.900  25.740  0.00  0.00    +0.000 S 
ATOM     28  C   UNL     1     -14.728   4.860  25.328  0.00  0.00    +0.000 C 
ATOM     29  O   UNL     1     -15.527   4.418  26.136  0.00  0.00    +0.000 OA
ATOM     30  N   UNL     1     -14.743   4.633  23.990  0.00  0.00    +0.000 N 
ATOM     31  C   UNL     1     -13.777   5.223  23.229  0.00  0.00    +0.000 C 
ATOM     32  H   UNL     1     -15.456   4.056  23.573  0.00  0.00    +0.000 HD
ATOM     33  O   UNL     1     -13.681   5.117  22.019  0.00  0.00    +0.000 OA
ENDBRANCH  18  19
ENDBRANCH   1  18
TORSDOF 4
ENDMDL
MODEL 9
REMARK VINA RESULT:      -6.2     18.513     21.267
REMARK  Name = Troglitazone.pdbqt.pdb
REMARK  4 active torsions:
REMARK  status: ('A' for Active; 'I' for Inactive)
REMARK    1  A    between atoms: C_1  and  O_2
REMARK    2  A    between atoms: C_1  and  C_18
REMARK    3  A    between atoms: O_2  and  C_3
REMARK    4  A    between atoms: C_26  and  O_32
REMARK                            x       y       z     vdW  Elec       q    Type
REMARK                         _______ _______ _______ _____ _____    ______ ____
ROOT
ATOM      1  C   UNL     1      -3.938   5.217  14.744  0.00  0.00    +0.000 C 
ENDROOT
BRANCH   1   2
ATOM      2  C   UNL     1      -2.569   5.079  15.268  0.00  0.00    +0.000 C 
ATOM      3  O   UNL     1      -1.648   5.341  14.148  0.00  0.00    +0.000 OA
ATOM      4  C   UNL     1      -0.408   4.707  14.002  0.00  0.00    +0.000 A 
ATOM      5  C   UNL     1      -0.067   3.470  14.624  0.00  0.00    +0.000 A 
ATOM      6  C   UNL     1       0.521   5.320  13.135  0.00  0.00    +0.000 A 
ATOM      7  C   UNL     1      -1.083   2.936  15.459  0.00  0.00    +0.000 C 
ATOM      8  C   UNL     1       1.178   2.866  14.416  0.00  0.00    +0.000 A 
ATOM      9  C   UNL     1      -2.308   3.733  15.760  0.00  0.00    +0.000 C 
ATOM     10  C   UNL     1       2.102   3.494  13.566  0.00  0.00    +0.000 A 
ATOM     11  C   UNL     1       1.514   1.552  15.089  0.00  0.00    +0.000 C 
ATOM     12  C   UNL     1       1.778   4.710  12.929  0.00  0.00    +0.000 A 
ATOM     13  C   UNL     1       2.856   5.293  12.014  0.00  0.00    +0.000 C 
ATOM     14  C   UNL     1       0.129   6.616  12.436  0.00  0.00    +0.000 C 
ATOM     15  C   UNL     1      -2.265   6.140  16.354  0.00  0.00    +0.000 C 
BRANCH  10  16
ATOM     16  O   UNL     1       3.341   2.916  13.342  0.00  0.00    +0.000 OA
ATOM     17  H   UNL     1       3.264   1.952  13.514  0.00  0.00    +0.000 HD
ENDBRANCH  10  16
ENDBRANCH   1   2
BRANCH   1  18
ATOM     18  O   UNL     1      -5.176   5.337  14.259  0.00  0.00    +0.000 OA
BRANCH  18  19
ATOM     19  C   UNL     1      -6.169   5.275  15.205  0.00  0.00    +0.000 C 
ATOM     20  C   UNL     1      -6.171   5.999  16.399  0.00  0.00    +0.000 C 
ATOM     21  C   UNL     1      -7.230   5.874  17.294  0.00  0.00    +0.000 C 
ATOM     22  C   UNL     1      -8.291   5.023  16.997  0.00  0.00    +0.000 C 
ATOM     23  C   UNL     1      -8.296   4.297  15.807  0.00  0.00    +0.000 C 
ATOM     24  C   UNL     1      -7.235   4.425  14.912  0.00  0.00    +0.000 C 
ATOM     25  C   UNL     1      -9.376   4.894  17.910  0.00  0.00    +0.000 C 
ATOM     26  C   UNL     1     -10.452   4.756  18.816  0.00  0.00    +0.000 C 
ATOM     27  S   UNL     1     -11.156   6.046  19.714  0.00  0.00    +0.000 S 
ATOM     28  C   UNL     1     -12.317   4.975  20.471  0.00  0.00    +0.000 C 
ATOM     29  O   UNL     1     -13.164   5.335  21.271  0.00  0.00    +0.000 OA
ATOM     30  N   UNL     1     -12.130   3.706  20.030  0.00  0.00    +0.000 N 
ATOM     31  C   UNL     1     -11.141   3.484  19.118  0.00  0.00    +0.000 C 
ATOM     32  H   UNL     1     -12.715   2.954  20.358  0.00  0.00    +0.000 HD
ATOM     33  O   UNL     1     -10.874   2.400  18.627  0.00  0.00    +0.000 OA
ENDBRANCH  18  19
ENDBRANCH   1  18
TORSDOF 4
ENDMDL
