MODEL 1
REMARK VINA RESULT:      -6.0      0.000      0.000
REMARK  Name = 
REMARK  19 active torsions:
REMARK  status: ('A' for Active; 'I' for Inactive)
REMARK    1  A    between atoms: O_1  and  C_20
REMARK    2  A    between atoms: O_1  and  C_36
REMARK    3  A    between atoms: O_2  and  C_18
REMARK    4  A    between atoms: O_3  and  C_28
REMARK    5  A    between atoms: O_3  and  C_42
REMARK    6  A    between atoms: O_5  and  C_34
REMARK    7  A    between atoms: O_5  and  C_50
REMARK    8  A    between atoms: O_7  and  C_40
REMARK    9  A    between atoms: O_7  and  C_56
REMARK   10  A    between atoms: O_9  and  C_46
REMARK   11  A    between atoms: N_11  and  C_30
REMARK   12  A    between atoms: C_17  and  C_23
REMARK   13  A    between atoms: C_18  and  C_28
REMARK   14  A    between atoms: C_23  and  C_32
REMARK   15  A    between atoms: C_33  and  C_35
REMARK   16  A    between atoms: C_35  and  C_40
REMARK   17  A    between atoms: C_36  and  C_41
REMARK   18  A    between atoms: C_46  and  C_53
REMARK   19  A    between atoms: C_53  and  C_57
REMARK                            x       y       z     vdW  Elec       q    Type
REMARK                         _______ _______ _______ _____ _____    ______ ____
ROOT
ATOM      1  N   UNL     1      -3.240  15.741   4.145  0.00  0.00    +0.000 NA
ATOM      2  N   UNL     1       1.335  17.075   3.873  0.00  0.00    +0.000 N 
ATOM      3  C   UNL     1      -1.012  16.409   3.977  0.00  0.00    +0.000 C 
ATOM      4  C   UNL     1      -2.415  16.738   3.438  0.00  0.00    +0.000 C 
ATOM      5  C   UNL     1       0.073  17.031   3.076  0.00  0.00    +0.000 C 
ATOM      6  C   UNL     1      -2.501  16.760   1.842  0.00  0.00    +0.000 C 
ATOM      7  C   UNL     1       0.132  16.503   1.633  0.00  0.00    +0.000 C 
ATOM      8  C   UNL     1      -1.029  14.889   4.232  0.00  0.00    +0.000 C 
ATOM      9  C   UNL     1      -1.274  16.029   1.137  0.00  0.00    +0.000 C 
ATOM     10  C   UNL     1      -0.559  17.059   5.270  0.00  0.00    +0.000 A 
ATOM     11  C   UNL     1      -2.500  14.485   4.185  0.00  0.00    +0.000 C 
ATOM     12  C   UNL     1       0.805  17.363   5.169  0.00  0.00    +0.000 A 
ATOM     13  C   UNL     1      -3.786  16.097   1.339  0.00  0.00    +0.000 C 
ATOM     14  C   UNL     1      -4.602  15.613   3.649  0.00  0.00    +0.000 C 
ATOM     15  C   UNL     1      -4.722  15.601   2.160  0.00  0.00    +0.000 C 
ATOM     16  C   UNL     1      -1.283  17.298   6.434  0.00  0.00    +0.000 A 
ATOM     17  C   UNL     1       2.383  17.992   3.428  0.00  0.00    +0.000 C 
ATOM     18  C   UNL     1       1.472  17.879   6.263  0.00  0.00    +0.000 A 
ATOM     19  C   UNL     1      -0.634  17.828   7.566  0.00  0.00    +0.000 A 
ATOM     20  C   UNL     1       0.762  18.101   7.455  0.00  0.00    +0.000 A 
ENDROOT
BRANCH  19  23
ATOM     21  N   UNL     1      -3.970  18.408  12.373  0.00  0.00    +0.000 NA
ATOM     22  N   UNL     1       0.275  16.472   9.918  0.00  0.00    +0.000 N 
ATOM     23  C   UNL     1      -1.401  18.095   8.922  0.00  0.00    +0.000 C 
ATOM     24  C   UNL     1      -2.828  17.378   8.933  0.00  0.00    +0.000 C 
ATOM     25  C   UNL     1      -0.594  17.528  10.139  0.00  0.00    +0.000 A 
ATOM     26  C   UNL     1      -3.533  17.253  10.294  0.00  0.00    +0.000 C 
ATOM     27  C   UNL     1      -4.817  16.424  10.279  0.00  0.00    +0.000 C 
ATOM     28  C   UNL     1      -3.894  18.586  10.933  0.00  0.00    +0.000 C 
ATOM     29  C   UNL     1      -0.578  17.761  11.526  0.00  0.00    +0.000 A 
ATOM     30  C   UNL     1      -5.447  16.316  11.700  0.00  0.00    +0.000 C 
ATOM     31  C   UNL     1      -5.026  17.438  12.736  0.00  0.00    +0.000 C 
ATOM     32  C   UNL     1      -1.374  18.725  12.392  0.00  0.00    +0.000 C 
ATOM     33  C   UNL     1      -2.663  18.106  13.012  0.00  0.00    +0.000 C 
ATOM     34  C   UNL     1       0.373  16.835  12.097  0.00  0.00    +0.000 A 
ATOM     35  C   UNL     1       0.881  16.055  11.070  0.00  0.00    +0.000 A 
ATOM     36  C   UNL     1       0.832  16.584  13.410  0.00  0.00    +0.000 A 
ATOM     37  C   UNL     1       1.828  15.042  11.271  0.00  0.00    +0.000 A 
ATOM     38  C   UNL     1       1.779  15.578  13.635  0.00  0.00    +0.000 A 
ATOM     39  C   UNL     1       2.269  14.819  12.578  0.00  0.00    +0.000 A 
ATOM     40  H   UNL     1       0.462  16.064   9.012  0.00  0.00    +0.000 HD
BRANCH  23  42
ATOM     41  O   UNL     1      -0.894  20.441   9.639  0.00  0.00    +0.000 OA
ATOM     42  C   UNL     1      -1.570  19.649   8.995  0.00  0.00    +0.000 C 
BRANCH  42  43
ATOM     43  O   UNL     1      -2.606  20.045   8.182  0.00  0.00    +0.000 OA
ATOM     44  C   UNL     1      -2.289  21.151   7.338  0.00  0.00    +0.000 C 
ENDBRANCH  42  43
ENDBRANCH  23  42
BRANCH  30  45
ATOM     45  O   UNL     1      -6.876  16.438  11.494  0.00  0.00    +0.000 OA
ATOM     46  H   UNL     1      -7.100  15.918  10.701  0.00  0.00    +0.000 HD
ENDBRANCH  30  45
BRANCH  30  47
ATOM     47  C   UNL     1      -5.277  14.896  12.290  0.00  0.00    +0.000 C 
ATOM     48  C   UNL     1      -3.940  14.586  12.939  0.00  0.00    +0.000 C 
ENDBRANCH  30  47
ENDBRANCH  19  23
BRANCH   7  49
ATOM     49  O   UNL     1       0.481  17.661   0.808  0.00  0.00    +0.000 OA
ATOM     50  H   UNL     1      -0.200  18.340   0.994  0.00  0.00    +0.000 HD
ENDBRANCH   7  49
BRANCH   7  52
ATOM     51  O   UNL     1       1.283  14.334   2.002  0.00  0.00    +0.000 OA
ATOM     52  C   UNL     1       1.224  15.421   1.444  0.00  0.00    +0.000 C 
BRANCH  52  53
ATOM     53  O   UNL     1       2.107  15.823   0.471  0.00  0.00    +0.000 OA
ATOM     54  C   UNL     1       3.104  14.850   0.155  0.00  0.00    +0.000 C 
ENDBRANCH  52  53
ENDBRANCH   7  52
BRANCH  20  55
ATOM     55  O   UNL     1       1.382  18.655   8.546  0.00  0.00    +0.000 OA
ATOM     56  C   UNL     1       2.349  19.659   8.250  0.00  0.00    +0.000 C 
ENDBRANCH  20  55
BRANCH   6  57
ATOM     57  C   UNL     1      -2.552  18.249   1.335  0.00  0.00    +0.000 C 
ATOM     58  C   UNL     1      -2.841  19.319   2.389  0.00  0.00    +0.000 C 
ENDBRANCH   6  57
BRANCH   9  59
ATOM     59  O   UNL     1      -1.452  14.600   1.290  0.00  0.00    +0.000 OA
BRANCH  59  61
ATOM     60  O   UNL     1      -2.618  12.971   0.179  0.00  0.00    +0.000 OA
ATOM     61  C   UNL     1      -1.820  13.898   0.185  0.00  0.00    +0.000 C 
ATOM     62  C   UNL     1      -1.133  14.446  -1.027  0.00  0.00    +0.000 C 
ENDBRANCH  59  61
ENDBRANCH   9  59
TORSDOF 12
ENDMDL
MODEL 2
REMARK VINA RESULT:      -6.0     16.232     20.507
REMARK  Name = 
REMARK  19 active torsions:
REMARK  status: ('A' for Active; 'I' for Inactive)
REMARK    1  A    between atoms: O_1  and  C_20
REMARK    2  A    between atoms: O_1  and  C_36
REMARK    3  A    between atoms: O_2  and  C_18
REMARK    4  A    between atoms: O_3  and  C_28
REMARK    5  A    between atoms: O_3  and  C_42
REMARK    6  A    between atoms: O_5  and  C_34
REMARK    7  A    between atoms: O_5  and  C_50
REMARK    8  A    between atoms: O_7  and  C_40
REMARK    9  A    between atoms: O_7  and  C_56
REMARK   10  A    between atoms: O_9  and  C_46
REMARK   11  A    between atoms: N_11  and  C_30
REMARK   12  A    between atoms: C_17  and  C_23
REMARK   13  A    between atoms: C_18  and  C_28
REMARK   14  A    between atoms: C_23  and  C_32
REMARK   15  A    between atoms: C_33  and  C_35
REMARK   16  A    between atoms: C_35  and  C_40
REMARK   17  A    between atoms: C_36  and  C_41
REMARK   18  A    between atoms: C_46  and  C_53
REMARK   19  A    between atoms: C_53  and  C_57
REMARK                            x       y       z     vdW  Elec       q    Type
REMARK                         _______ _______ _______ _____ _____    ______ ____
ROOT
ATOM      1  N   UNL     1     -16.104  10.528  -6.657  0.00  0.00    +0.000 NA
ATOM      2  N   UNL     1     -14.025  12.401  -2.791  0.00  0.00    +0.000 N 
ATOM      3  C   UNL     1     -15.102  11.478  -4.779  0.00  0.00    +0.000 C 
ATOM      4  C   UNL     1     -16.222  11.726  -5.805  0.00  0.00    +0.000 C 
ATOM      5  C   UNL     1     -14.749  12.784  -4.040  0.00  0.00    +0.000 C 
ATOM      6  C   UNL     1     -16.129  13.149  -6.526  0.00  0.00    +0.000 C 
ATOM      7  C   UNL     1     -14.169  13.912  -4.909  0.00  0.00    +0.000 C 
ATOM      8  C   UNL     1     -14.014  10.708  -5.552  0.00  0.00    +0.000 C 
ATOM      9  C   UNL     1     -14.700  13.836  -6.378  0.00  0.00    +0.000 C 
ATOM     10  C   UNL     1     -15.416  10.658  -3.543  0.00  0.00    +0.000 A 
ATOM     11  C   UNL     1     -14.687  10.235  -6.838  0.00  0.00    +0.000 C 
ATOM     12  C   UNL     1     -14.724  11.201  -2.452  0.00  0.00    +0.000 A 
ATOM     13  C   UNL     1     -16.440  13.043  -8.021  0.00  0.00    +0.000 C 
ATOM     14  C   UNL     1     -16.863  10.585  -7.898  0.00  0.00    +0.000 C 
ATOM     15  C   UNL     1     -16.779  11.892  -8.617  0.00  0.00    +0.000 C 
ATOM     16  C   UNL     1     -16.194   9.511  -3.425  0.00  0.00    +0.000 A 
ATOM     17  C   UNL     1     -13.962  13.390  -1.716  0.00  0.00    +0.000 C 
ATOM     18  C   UNL     1     -14.777  10.566  -1.226  0.00  0.00    +0.000 A 
ATOM     19  C   UNL     1     -16.273   8.842  -2.187  0.00  0.00    +0.000 A 
ATOM     20  C   UNL     1     -15.537   9.392  -1.096  0.00  0.00    +0.000 A 
ENDROOT
BRANCH  19  23
ATOM     21  N   UNL     1     -19.679   4.051  -2.116  0.00  0.00    +0.000 NA
ATOM     22  N   UNL     1     -14.944   6.329  -2.529  0.00  0.00    +0.000 N 
ATOM     23  C   UNL     1     -17.120   7.521  -2.002  0.00  0.00    +0.000 C 
ATOM     24  C   UNL     1     -18.106   7.285  -3.236  0.00  0.00    +0.000 C 
ATOM     25  C   UNL     1     -16.185   6.267  -1.918  0.00  0.00    +0.000 A 
ATOM     26  C   UNL     1     -18.731   5.887  -3.370  0.00  0.00    +0.000 C 
ATOM     27  C   UNL     1     -19.540   5.664  -4.648  0.00  0.00    +0.000 C 
ATOM     28  C   UNL     1     -19.643   5.499  -2.216  0.00  0.00    +0.000 C 
ATOM     29  C   UNL     1     -16.311   4.955  -1.426  0.00  0.00    +0.000 A 
ATOM     30  C   UNL     1     -20.106   4.214  -4.723  0.00  0.00    +0.000 C 
ATOM     31  C   UNL     1     -20.233   3.444  -3.346  0.00  0.00    +0.000 C 
ATOM     32  C   UNL     1     -17.466   4.248  -0.736  0.00  0.00    +0.000 C 
ATOM     33  C   UNL     1     -18.387   3.443  -1.703  0.00  0.00    +0.000 C 
ATOM     34  C   UNL     1     -15.074   4.272  -1.728  0.00  0.00    +0.000 A 
ATOM     35  C   UNL     1     -14.252   5.156  -2.410  0.00  0.00    +0.000 A 
ATOM     36  C   UNL     1     -14.591   2.965  -1.493  0.00  0.00    +0.000 A 
ATOM     37  C   UNL     1     -12.971   4.819  -2.865  0.00  0.00    +0.000 A 
ATOM     38  C   UNL     1     -13.313   2.606  -1.937  0.00  0.00    +0.000 A 
ATOM     39  C   UNL     1     -12.515   3.522  -2.613  0.00  0.00    +0.000 A 
ATOM     40  H   UNL     1     -14.574   7.149  -2.993  0.00  0.00    +0.000 HD
BRANCH  23  42
ATOM     41  O   UNL     1     -17.766   7.192   0.396  0.00  0.00    +0.000 OA
ATOM     42  C   UNL     1     -17.936   7.741  -0.686  0.00  0.00    +0.000 C 
BRANCH  42  43
ATOM     43  O   UNL     1     -18.902   8.699  -0.889  0.00  0.00    +0.000 OA
ATOM     44  C   UNL     1     -19.070   9.594   0.211  0.00  0.00    +0.000 C 
ENDBRANCH  42  43
ENDBRANCH  23  42
BRANCH  30  45
ATOM     45  O   UNL     1     -21.445   4.355  -5.261  0.00  0.00    +0.000 OA
ATOM     46  H   UNL     1     -21.710   5.284  -5.140  0.00  0.00    +0.000 HD
ENDBRANCH  30  45
BRANCH  30  47
ATOM     47  C   UNL     1     -19.366   3.371  -5.788  0.00  0.00    +0.000 C 
ATOM     48  C   UNL     1     -17.910   3.044  -5.505  0.00  0.00    +0.000 C 
ENDBRANCH  30  47
ENDBRANCH  19  23
BRANCH   7  49
ATOM     49  O   UNL     1     -14.709  15.153  -4.349  0.00  0.00    +0.000 OA
ATOM     50  H   UNL     1     -14.963  14.944  -3.426  0.00  0.00    +0.000 HD
ENDBRANCH   7  49
BRANCH   7  52
ATOM     51  O   UNL     1     -11.840  13.069  -5.081  0.00  0.00    +0.000 OA
ATOM     52  C   UNL     1     -12.623  13.977  -4.840  0.00  0.00    +0.000 C 
BRANCH  52  53
ATOM     53  O   UNL     1     -12.228  15.258  -4.537  0.00  0.00    +0.000 OA
ATOM     54  C   UNL     1     -11.342  15.835  -5.498  0.00  0.00    +0.000 C 
ENDBRANCH  52  53
ENDBRANCH   7  52
BRANCH  20  55
ATOM     55  O   UNL     1     -15.648   8.761   0.117  0.00  0.00    +0.000 OA
ATOM     56  C   UNL     1     -15.498   9.604   1.256  0.00  0.00    +0.000 C 
ENDBRANCH  20  55
BRANCH   6  57
ATOM     57  C   UNL     1     -17.213  14.118  -5.924  0.00  0.00    +0.000 C 
ATOM     58  C   UNL     1     -18.302  13.475  -5.064  0.00  0.00    +0.000 C 
ENDBRANCH   6  57
BRANCH   9  59
ATOM     59  O   UNL     1     -13.776  13.149  -7.256  0.00  0.00    +0.000 OA
BRANCH  59  61
ATOM     60  O   UNL     1     -13.207  15.083  -8.345  0.00  0.00    +0.000 OA
ATOM     61  C   UNL     1     -13.255  13.862  -8.291  0.00  0.00    +0.000 C 
ATOM     62  C   UNL     1     -12.719  12.935  -9.337  0.00  0.00    +0.000 C 
ENDBRANCH  59  61
ENDBRANCH   9  59
TORSDOF 12
ENDMDL
MODEL 3
REMARK VINA RESULT:      -5.9     18.331     23.058
REMARK  Name = 
REMARK  19 active torsions:
REMARK  status: ('A' for Active; 'I' for Inactive)
REMARK    1  A    between atoms: O_1  and  C_20
REMARK    2  A    between atoms: O_1  and  C_36
REMARK    3  A    between atoms: O_2  and  C_18
REMARK    4  A    between atoms: O_3  and  C_28
REMARK    5  A    between atoms: O_3  and  C_42
REMARK    6  A    between atoms: O_5  and  C_34
REMARK    7  A    between atoms: O_5  and  C_50
REMARK    8  A    between atoms: O_7  and  C_40
REMARK    9  A    between atoms: O_7  and  C_56
REMARK   10  A    between atoms: O_9  and  C_46
REMARK   11  A    between atoms: N_11  and  C_30
REMARK   12  A    between atoms: C_17  and  C_23
REMARK   13  A    between atoms: C_18  and  C_28
REMARK   14  A    between atoms: C_23  and  C_32
REMARK   15  A    between atoms: C_33  and  C_35
REMARK   16  A    between atoms: C_35  and  C_40
REMARK   17  A    between atoms: C_36  and  C_41
REMARK   18  A    between atoms: C_46  and  C_53
REMARK   19  A    between atoms: C_53  and  C_57
REMARK                            x       y       z     vdW  Elec       q    Type
REMARK                         _______ _______ _______ _____ _____    ______ ____
ROOT
ATOM      1  N   UNL     1     -13.143   1.190  -3.194  0.00  0.00    +0.000 NA
ATOM      2  N   UNL     1     -17.430   0.573  -1.190  0.00  0.00    +0.000 N 
ATOM      3  C   UNL     1     -15.220   0.873  -2.183  0.00  0.00    +0.000 C 
ATOM      4  C   UNL     1     -13.724   1.007  -1.850  0.00  0.00    +0.000 C 
ATOM      5  C   UNL     1     -15.984   0.256  -0.995  0.00  0.00    +0.000 C 
ATOM      6  C   UNL     1     -13.153  -0.194  -0.964  0.00  0.00    +0.000 C 
ATOM      7  C   UNL     1     -15.591  -1.182  -0.618  0.00  0.00    +0.000 C 
ATOM      8  C   UNL     1     -15.263   0.196  -3.567  0.00  0.00    +0.000 C 
ATOM      9  C   UNL     1     -14.095  -1.478  -0.966  0.00  0.00    +0.000 C 
ATOM     10  C   UNL     1     -16.056   2.133  -2.292  0.00  0.00    +0.000 A 
ATOM     11  C   UNL     1     -13.843   0.305  -4.117  0.00  0.00    +0.000 C 
ATOM     12  C   UNL     1     -17.328   1.879  -1.760  0.00  0.00    +0.000 A 
ATOM     13  C   UNL     1     -11.767  -0.636  -1.441  0.00  0.00    +0.000 C 
ATOM     14  C   UNL     1     -11.693   1.083  -3.252  0.00  0.00    +0.000 C 
ATOM     15  C   UNL     1     -11.122  -0.046  -2.457  0.00  0.00    +0.000 C 
ATOM     16  C   UNL     1     -15.727   3.359  -2.863  0.00  0.00    +0.000 A 
ATOM     17  C   UNL     1     -18.303   0.488  -0.020  0.00  0.00    +0.000 C 
ATOM     18  C   UNL     1     -18.305   2.853  -1.834  0.00  0.00    +0.000 A 
ATOM     19  C   UNL     1     -16.700   4.375  -2.948  0.00  0.00    +0.000 A 
ATOM     20  C   UNL     1     -17.997   4.087  -2.430  0.00  0.00    +0.000 A 
ENDROOT
BRANCH  19  23
ATOM     21  N   UNL     1     -16.180   9.575  -5.643  0.00  0.00    +0.000 NA
ATOM     22  N   UNL     1     -16.687   6.688  -1.261  0.00  0.00    +0.000 N 
ATOM     23  C   UNL     1     -16.389   5.777  -3.609  0.00  0.00    +0.000 C 
ATOM     24  C   UNL     1     -17.622   6.293  -4.484  0.00  0.00    +0.000 C 
ATOM     25  C   UNL     1     -16.120   6.862  -2.512  0.00  0.00    +0.000 A 
ATOM     26  C   UNL     1     -17.610   7.774  -4.896  0.00  0.00    +0.000 C 
ATOM     27  C   UNL     1     -18.881   8.256  -5.595  0.00  0.00    +0.000 C 
ATOM     28  C   UNL     1     -16.452   8.158  -5.806  0.00  0.00    +0.000 C 
ATOM     29  C   UNL     1     -15.479   8.114  -2.478  0.00  0.00    +0.000 A 
ATOM     30  C   UNL     1     -18.803   9.773  -5.945  0.00  0.00    +0.000 C 
ATOM     31  C   UNL     1     -17.348  10.392  -6.038  0.00  0.00    +0.000 C 
ATOM     32  C   UNL     1     -14.753   8.900  -3.558  0.00  0.00    +0.000 C 
ATOM     33  C   UNL     1     -15.649   9.935  -4.302  0.00  0.00    +0.000 C 
ATOM     34  C   UNL     1     -15.650   8.637  -1.142  0.00  0.00    +0.000 A 
ATOM     35  C   UNL     1     -16.403   7.725  -0.418  0.00  0.00    +0.000 A 
ATOM     36  C   UNL     1     -15.241   9.824  -0.493  0.00  0.00    +0.000 A 
ATOM     37  C   UNL     1     -16.765   7.921   0.921  0.00  0.00    +0.000 A 
ATOM     38  C   UNL     1     -15.591  10.040   0.845  0.00  0.00    +0.000 A 
ATOM     39  C   UNL     1     -16.342   9.099   1.541  0.00  0.00    +0.000 A 
ATOM     40  H   UNL     1     -17.232   5.881  -0.986  0.00  0.00    +0.000 HD
BRANCH  23  42
ATOM     41  O   UNL     1     -13.967   5.752  -4.247  0.00  0.00    +0.000 OA
ATOM     42  C   UNL     1     -15.140   5.530  -4.519  0.00  0.00    +0.000 C 
BRANCH  42  43
ATOM     43  O   UNL     1     -15.534   4.977  -5.715  0.00  0.00    +0.000 OA
ATOM     44  C   UNL     1     -14.528   5.008  -6.726  0.00  0.00    +0.000 C 
ENDBRANCH  42  43
ENDBRANCH  23  42
BRANCH  30  45
ATOM     45  O   UNL     1     -19.403   9.892  -7.259  0.00  0.00    +0.000 OA
ATOM     46  H   UNL     1     -20.180   9.305  -7.278  0.00  0.00    +0.000 HD
ENDBRANCH  30  45
BRANCH  30  47
ATOM     47  C   UNL     1     -19.730  10.614  -5.037  0.00  0.00    +0.000 C 
ATOM     48  C   UNL     1     -19.141  11.090  -3.721  0.00  0.00    +0.000 C 
ENDBRANCH  30  47
ENDBRANCH  19  23
BRANCH   7  49
ATOM     49  O   UNL     1     -15.685  -1.242   0.842  0.00  0.00    +0.000 OA
ATOM     50  H   UNL     1     -16.001  -0.360   1.128  0.00  0.00    +0.000 HD
ENDBRANCH   7  49
BRANCH   7  52
ATOM     51  O   UNL     1     -16.915  -2.326  -2.380  0.00  0.00    +0.000 OA
ATOM     52  C   UNL     1     -16.558  -2.236  -1.214  0.00  0.00    +0.000 C 
BRANCH  52  53
ATOM     53  O   UNL     1     -16.914  -3.137  -0.239  0.00  0.00    +0.000 OA
ATOM     54  C   UNL     1     -16.792  -4.503  -0.640  0.00  0.00    +0.000 C 
ENDBRANCH  52  53
ENDBRANCH   7  52
BRANCH  20  55
ATOM     55  O   UNL     1     -18.929   5.093  -2.479  0.00  0.00    +0.000 OA
ATOM     56  C   UNL     1     -20.274   4.685  -2.247  0.00  0.00    +0.000 C 
ENDBRANCH  20  55
BRANCH   6  57
ATOM     57  C   UNL     1     -12.968   0.286   0.523  0.00  0.00    +0.000 C 
ATOM     58  C   UNL     1     -11.644   0.975   0.858  0.00  0.00    +0.000 C 
ENDBRANCH   6  57
BRANCH   9  59
ATOM     59  O   UNL     1     -13.954  -2.140  -2.246  0.00  0.00    +0.000 OA
BRANCH  59  61
ATOM     60  O   UNL     1     -13.374  -4.141  -1.292  0.00  0.00    +0.000 OA
ATOM     61  C   UNL     1     -13.388  -3.377  -2.247  0.00  0.00    +0.000 C 
ATOM     62  C   UNL     1     -12.816  -3.681  -3.597  0.00  0.00    +0.000 C 
ENDBRANCH  59  61
ENDBRANCH   9  59
TORSDOF 12
ENDMDL
MODEL 4
REMARK VINA RESULT:      -5.7     17.335     21.607
REMARK  Name = 
REMARK  19 active torsions:
REMARK  status: ('A' for Active; 'I' for Inactive)
REMARK    1  A    between atoms: O_1  and  C_20
REMARK    2  A    between atoms: O_1  and  C_36
REMARK    3  A    between atoms: O_2  and  C_18
REMARK    4  A    between atoms: O_3  and  C_28
REMARK    5  A    between atoms: O_3  and  C_42
REMARK    6  A    between atoms: O_5  and  C_34
REMARK    7  A    between atoms: O_5  and  C_50
REMARK    8  A    between atoms: O_7  and  C_40
REMARK    9  A    between atoms: O_7  and  C_56
REMARK   10  A    between atoms: O_9  and  C_46
REMARK   11  A    between atoms: N_11  and  C_30
REMARK   12  A    between atoms: C_17  and  C_23
REMARK   13  A    between atoms: C_18  and  C_28
REMARK   14  A    between atoms: C_23  and  C_32
REMARK   15  A    between atoms: C_33  and  C_35
REMARK   16  A    between atoms: C_35  and  C_40
REMARK   17  A    between atoms: C_36  and  C_41
REMARK   18  A    between atoms: C_46  and  C_53
REMARK   19  A    between atoms: C_53  and  C_57
REMARK                            x       y       z     vdW  Elec       q    Type
REMARK                         _______ _______ _______ _____ _____    ______ ____
ROOT
ATOM      1  N   UNL     1     -16.194   5.580  -2.641  0.00  0.00    +0.000 NA
ATOM      2  N   UNL     1     -15.702   9.750  -4.909  0.00  0.00    +0.000 N 
ATOM      3  C   UNL     1     -15.956   7.636  -3.715  0.00  0.00    +0.000 C 
ATOM      4  C   UNL     1     -15.791   6.967  -2.339  0.00  0.00    +0.000 C 
ATOM      5  C   UNL     1     -16.002   9.169  -3.567  0.00  0.00    +0.000 C 
ATOM      6  C   UNL     1     -16.572   7.715  -1.162  0.00  0.00    +0.000 C 
ATOM      7  C   UNL     1     -17.191   9.732  -2.771  0.00  0.00    +0.000 C 
ATOM      8  C   UNL     1     -17.124   6.888  -4.386  0.00  0.00    +0.000 C 
ATOM      9  C   UNL     1     -17.691   8.718  -1.691  0.00  0.00    +0.000 C 
ATOM     10  C   UNL     1     -14.795   7.589  -4.690  0.00  0.00    +0.000 A 
ATOM     11  C   UNL     1     -17.329   5.624  -3.554  0.00  0.00    +0.000 C 
ATOM     12  C   UNL     1     -14.740   8.806  -5.383  0.00  0.00    +0.000 A 
ATOM     13  C   UNL     1     -17.250   6.721  -0.216  0.00  0.00    +0.000 C 
ATOM     14  C   UNL     1     -16.402   4.737  -1.473  0.00  0.00    +0.000 C 
ATOM     15  C   UNL     1     -17.154   5.392  -0.361  0.00  0.00    +0.000 C 
ATOM     16  C   UNL     1     -13.921   6.543  -4.965  0.00  0.00    +0.000 A 
ATOM     17  C   UNL     1     -15.261  11.143  -4.959  0.00  0.00    +0.000 C 
ATOM     18  C   UNL     1     -13.819   8.969  -6.400  0.00  0.00    +0.000 A 
ATOM     19  C   UNL     1     -12.966   6.680  -5.992  0.00  0.00    +0.000 A 
ATOM     20  C   UNL     1     -12.945   7.913  -6.708  0.00  0.00    +0.000 A 
ENDROOT
BRANCH  19  23
ATOM     21  N   UNL     1      -8.744   2.793  -7.272  0.00  0.00    +0.000 NA
ATOM     22  N   UNL     1     -12.453   4.663  -4.026  0.00  0.00    +0.000 N 
ATOM     23  C   UNL     1     -11.965   5.515  -6.364  0.00  0.00    +0.000 C 
ATOM     24  C   UNL     1     -10.454   6.031  -6.381  0.00  0.00    +0.000 C 
ATOM     25  C   UNL     1     -12.042   4.357  -5.312  0.00  0.00    +0.000 A 
ATOM     26  C   UNL     1      -9.353   4.957  -6.381  0.00  0.00    +0.000 C 
ATOM     27  C   UNL     1      -7.930   5.496  -6.239  0.00  0.00    +0.000 C 
ATOM     28  C   UNL     1      -9.350   4.068  -7.616  0.00  0.00    +0.000 C 
ATOM     29  C   UNL     1     -11.693   2.994  -5.295  0.00  0.00    +0.000 A 
ATOM     30  C   UNL     1      -6.880   4.345  -6.211  0.00  0.00    +0.000 C 
ATOM     31  C   UNL     1      -7.339   2.968  -6.845  0.00  0.00    +0.000 C 
ATOM     32  C   UNL     1     -11.097   2.097  -6.368  0.00  0.00    +0.000 C 
ATOM     33  C   UNL     1      -9.544   1.986  -6.314  0.00  0.00    +0.000 C 
ATOM     34  C   UNL     1     -11.966   2.507  -3.963  0.00  0.00    +0.000 A 
ATOM     35  C   UNL     1     -12.437   3.569  -3.206  0.00  0.00    +0.000 A 
ATOM     36  C   UNL     1     -11.834   1.250  -3.331  0.00  0.00    +0.000 A 
ATOM     37  C   UNL     1     -12.794   3.452  -1.857  0.00  0.00    +0.000 A 
ATOM     38  C   UNL     1     -12.186   1.109  -1.984  0.00  0.00    +0.000 A 
ATOM     39  C   UNL     1     -12.660   2.197  -1.258  0.00  0.00    +0.000 A 
ATOM     40  H   UNL     1     -12.753   5.581  -3.723  0.00  0.00    +0.000 HD
BRANCH  23  42
ATOM     41  O   UNL     1     -11.792   5.209  -8.845  0.00  0.00    +0.000 OA
ATOM     42  C   UNL     1     -12.398   5.047  -7.793  0.00  0.00    +0.000 C 
BRANCH  42  43
ATOM     43  O   UNL     1     -13.593   4.369  -7.722  0.00  0.00    +0.000 OA
ATOM     44  C   UNL     1     -14.528   4.736  -8.735  0.00  0.00    +0.000 C 
ENDBRANCH  42  43
ENDBRANCH  23  42
BRANCH  30  45
ATOM     45  O   UNL     1      -5.763   4.828  -6.998  0.00  0.00    +0.000 OA
ATOM     46  H   UNL     1      -6.118   5.462  -7.647  0.00  0.00    +0.000 HD
ENDBRANCH  30  45
BRANCH  30  47
ATOM     47  C   UNL     1      -6.282   4.157  -4.797  0.00  0.00    +0.000 C 
ATOM     48  C   UNL     1      -5.297   5.215  -4.331  0.00  0.00    +0.000 C 
ENDBRANCH  30  47
ENDBRANCH  19  23
BRANCH   7  49
ATOM     49  O   UNL     1     -16.659  10.879  -2.032  0.00  0.00    +0.000 OA
ATOM     50  H   UNL     1     -15.689  10.858  -2.166  0.00  0.00    +0.000 HD
ENDBRANCH   7  49
BRANCH   7  52
ATOM     51  O   UNL     1     -18.685   9.743  -4.755  0.00  0.00    +0.000 OA
ATOM     52  C   UNL     1     -18.335  10.231  -3.690  0.00  0.00    +0.000 C 
BRANCH  52  53
ATOM     53  O   UNL     1     -18.980  11.286  -3.091  0.00  0.00    +0.000 OA
ATOM     54  C   UNL     1     -20.255  11.586  -3.662  0.00  0.00    +0.000 C 
ENDBRANCH  52  53
ENDBRANCH   7  52
BRANCH  20  55
ATOM     55  O   UNL     1     -11.988   8.058  -7.680  0.00  0.00    +0.000 OA
ATOM     56  C   UNL     1     -12.421   8.718  -8.866  0.00  0.00    +0.000 C 
ENDBRANCH  20  55
BRANCH   6  57
ATOM     57  C   UNL     1     -15.551   8.527  -0.283  0.00  0.00    +0.000 C 
ATOM     58  C   UNL     1     -16.079   9.077   1.044  0.00  0.00    +0.000 C 
ENDBRANCH   6  57
BRANCH   9  59
ATOM     59  O   UNL     1     -18.815   7.934  -2.158  0.00  0.00    +0.000 OA
BRANCH  59  61
ATOM     60  O   UNL     1     -20.255   8.862  -0.637  0.00  0.00    +0.000 OA
ATOM     61  C   UNL     1     -20.046   8.269  -1.686  0.00  0.00    +0.000 C 
ATOM     62  C   UNL     1     -21.105   7.837  -2.652  0.00  0.00    +0.000 C 
ENDBRANCH  59  61
ENDBRANCH   9  59
TORSDOF 12
ENDMDL
MODEL 5
REMARK VINA RESULT:      -5.7     16.999     22.218
REMARK  Name = 
REMARK  19 active torsions:
REMARK  status: ('A' for Active; 'I' for Inactive)
REMARK    1  A    between atoms: O_1  and  C_20
REMARK    2  A    between atoms: O_1  and  C_36
REMARK    3  A    between atoms: O_2  and  C_18
REMARK    4  A    between atoms: O_3  and  C_28
REMARK    5  A    between atoms: O_3  and  C_42
REMARK    6  A    between atoms: O_5  and  C_34
REMARK    7  A    between atoms: O_5  and  C_50
REMARK    8  A    between atoms: O_7  and  C_40
REMARK    9  A    between atoms: O_7  and  C_56
REMARK   10  A    between atoms: O_9  and  C_46
REMARK   11  A    between atoms: N_11  and  C_30
REMARK   12  A    between atoms: C_17  and  C_23
REMARK   13  A    between atoms: C_18  and  C_28
REMARK   14  A    between atoms: C_23  and  C_32
REMARK   15  A    between atoms: C_33  and  C_35
REMARK   16  A    between atoms: C_35  and  C_40
REMARK   17  A    between atoms: C_36  and  C_41
REMARK   18  A    between atoms: C_46  and  C_53
REMARK   19  A    between atoms: C_53  and  C_57
REMARK                            x       y       z     vdW  Elec       q    Type
REMARK                         _______ _______ _______ _____ _____    ______ ____
ROOT
ATOM      1  N   UNL     1      -6.934   4.478  17.636  0.00  0.00    +0.000 NA
ATOM      2  N   UNL     1      -9.962   1.473  19.776  0.00  0.00    +0.000 N 
ATOM      3  C   UNL     1      -8.443   3.029  18.666  0.00  0.00    +0.000 C 
ATOM      4  C   UNL     1      -8.320   3.999  17.477  0.00  0.00    +0.000 C 
ATOM      5  C   UNL     1      -9.925   2.724  18.961  0.00  0.00    +0.000 C 
ATOM      6  C   UNL     1      -9.474   5.103  17.427  0.00  0.00    +0.000 C 
ATOM      7  C   UNL     1     -10.781   3.920  19.410  0.00  0.00    +0.000 C 
ATOM      8  C   UNL     1      -7.541   3.626  19.764  0.00  0.00    +0.000 C 
ATOM      9  C   UNL     1     -10.251   5.263  18.808  0.00  0.00    +0.000 C 
ATOM     10  C   UNL     1      -8.002   1.590  18.478  0.00  0.00    +0.000 A 
ATOM     11  C   UNL     1      -6.679   4.669  19.059  0.00  0.00    +0.000 C 
ATOM     12  C   UNL     1      -8.877   0.755  19.186  0.00  0.00    +0.000 A 
ATOM     13  C   UNL     1      -8.921   6.478  17.045  0.00  0.00    +0.000 C 
ATOM     14  C   UNL     1      -6.586   5.624  16.810  0.00  0.00    +0.000 C 
ATOM     15  C   UNL     1      -7.629   6.693  16.760  0.00  0.00    +0.000 C 
ATOM     16  C   UNL     1      -6.899   1.092  17.793  0.00  0.00    +0.000 A 
ATOM     17  C   UNL     1     -11.223   0.736  19.825  0.00  0.00    +0.000 C 
ATOM     18  C   UNL     1      -8.624  -0.602  19.246  0.00  0.00    +0.000 A 
ATOM     19  C   UNL     1      -6.617  -0.288  17.830  0.00  0.00    +0.000 A 
ATOM     20  C   UNL     1      -7.500  -1.119  18.581  0.00  0.00    +0.000 A 
ENDROOT
BRANCH  19  23
ATOM     21  N   UNL     1      -1.964  -3.072  15.557  0.00  0.00    +0.000 NA
ATOM     22  N   UNL     1      -7.059  -1.728  15.395  0.00  0.00    +0.000 N 
ATOM     23  C   UNL     1      -5.362  -0.905  17.092  0.00  0.00    +0.000 C 
ATOM     24  C   UNL     1      -4.803  -2.184  17.869  0.00  0.00    +0.000 C 
ATOM     25  C   UNL     1      -5.743  -1.377  15.647  0.00  0.00    +0.000 A 
ATOM     26  C   UNL     1      -3.821  -3.087  17.104  0.00  0.00    +0.000 C 
ATOM     27  C   UNL     1      -3.437  -4.377  17.829  0.00  0.00    +0.000 C 
ATOM     28  C   UNL     1      -2.515  -2.407  16.724  0.00  0.00    +0.000 C 
ATOM     29  C   UNL     1      -5.034  -1.650  14.464  0.00  0.00    +0.000 A 
ATOM     30  C   UNL     1      -2.472  -5.251  16.973  0.00  0.00    +0.000 C 
ATOM     31  C   UNL     1      -1.661  -4.491  15.844  0.00  0.00    +0.000 C 
ATOM     32  C   UNL     1      -3.552  -1.555  14.137  0.00  0.00    +0.000 C 
ATOM     33  C   UNL     1      -2.773  -2.892  14.323  0.00  0.00    +0.000 C 
ATOM     34  C   UNL     1      -5.997  -2.123  13.496  0.00  0.00    +0.000 A 
ATOM     35  C   UNL     1      -7.240  -2.156  14.110  0.00  0.00    +0.000 A 
ATOM     36  C   UNL     1      -5.910  -2.543  12.150  0.00  0.00    +0.000 A 
ATOM     37  C   UNL     1      -8.407  -2.575  13.458  0.00  0.00    +0.000 A 
ATOM     38  C   UNL     1      -7.063  -2.965  11.478  0.00  0.00    +0.000 A 
ATOM     39  C   UNL     1      -8.294  -2.980  12.126  0.00  0.00    +0.000 A 
ATOM     40  H   UNL     1      -7.810  -1.659  16.069  0.00  0.00    +0.000 HD
BRANCH  23  42
ATOM     41  O   UNL     1      -4.037   1.006  16.162  0.00  0.00    +0.000 OA
ATOM     42  C   UNL     1      -4.294   0.237  17.080  0.00  0.00    +0.000 C 
BRANCH  42  43
ATOM     43  O   UNL     1      -3.663   0.301  18.301  0.00  0.00    +0.000 OA
ATOM     44  C   UNL     1      -2.458   1.065  18.290  0.00  0.00    +0.000 C 
ENDBRANCH  42  43
ENDBRANCH  23  42
BRANCH  30  45
ATOM     45  O   UNL     1      -1.504  -5.782  17.912  0.00  0.00    +0.000 OA
ATOM     46  H   UNL     1      -1.894  -5.711  18.801  0.00  0.00    +0.000 HD
ENDBRANCH  30  45
BRANCH  30  47
ATOM     47  C   UNL     1      -3.183  -6.509  16.423  0.00  0.00    +0.000 C 
ATOM     48  C   UNL     1      -4.089  -6.306  15.221  0.00  0.00    +0.000 C 
ENDBRANCH  30  47
ENDBRANCH  19  23
BRANCH   7  49
ATOM     49  O   UNL     1     -12.099   3.702  18.812  0.00  0.00    +0.000 OA
ATOM     50  H   UNL     1     -12.408   4.582  18.512  0.00  0.00    +0.000 HD
ENDBRANCH   7  49
BRANCH   7  52
ATOM     51  O   UNL     1     -10.064   3.863  21.787  0.00  0.00    +0.000 OA
ATOM     52  C   UNL     1     -10.947   3.984  20.949  0.00  0.00    +0.000 C 
BRANCH  52  53
ATOM     53  O   UNL     1     -12.251   4.286  21.259  0.00  0.00    +0.000 OA
ATOM     54  C   UNL     1     -12.824   3.431  22.250  0.00  0.00    +0.000 C 
ENDBRANCH  52  53
ENDBRANCH   7  52
BRANCH  20  55
ATOM     55  O   UNL     1      -7.245  -2.467  18.581  0.00  0.00    +0.000 OA
ATOM     56  C   UNL     1      -8.397  -3.303  18.526  0.00  0.00    +0.000 C 
ENDBRANCH  20  55
BRANCH   6  57
ATOM     57  C   UNL     1     -10.517   4.728  16.310  0.00  0.00    +0.000 C 
ATOM     58  C   UNL     1     -10.136   5.089  14.872  0.00  0.00    +0.000 C 
ENDBRANCH   6  57
BRANCH   9  59
ATOM     59  O   UNL     1      -9.390   5.971  19.732  0.00  0.00    +0.000 OA
BRANCH  59  61
ATOM     60  O   UNL     1     -10.988   7.458  20.427  0.00  0.00    +0.000 OA
ATOM     61  C   UNL     1      -9.822   7.178  20.184  0.00  0.00    +0.000 C 
ATOM     62  C   UNL     1      -8.661   8.104  20.376  0.00  0.00    +0.000 C 
ENDBRANCH  59  61
ENDBRANCH   9  59
TORSDOF 12
ENDMDL
MODEL 6
REMARK VINA RESULT:      -5.7     17.020     22.216
REMARK  Name = 
REMARK  19 active torsions:
REMARK  status: ('A' for Active; 'I' for Inactive)
REMARK    1  A    between atoms: O_1  and  C_20
REMARK    2  A    between atoms: O_1  and  C_36
REMARK    3  A    between atoms: O_2  and  C_18
REMARK    4  A    between atoms: O_3  and  C_28
REMARK    5  A    between atoms: O_3  and  C_42
REMARK    6  A    between atoms: O_5  and  C_34
REMARK    7  A    between atoms: O_5  and  C_50
REMARK    8  A    between atoms: O_7  and  C_40
REMARK    9  A    between atoms: O_7  and  C_56
REMARK   10  A    between atoms: O_9  and  C_46
REMARK   11  A    between atoms: N_11  and  C_30
REMARK   12  A    between atoms: C_17  and  C_23
REMARK   13  A    between atoms: C_18  and  C_28
REMARK   14  A    between atoms: C_23  and  C_32
REMARK   15  A    between atoms: C_33  and  C_35
REMARK   16  A    between atoms: C_35  and  C_40
REMARK   17  A    between atoms: C_36  and  C_41
REMARK   18  A    between atoms: C_46  and  C_53
REMARK   19  A    between atoms: C_53  and  C_57
REMARK                            x       y       z     vdW  Elec       q    Type
REMARK                         _______ _______ _______ _____ _____    ______ ____
ROOT
ATOM      1  N   UNL     1      -7.990   5.195  19.981  0.00  0.00    +0.000 NA
ATOM      2  N   UNL     1     -11.453   2.055  20.948  0.00  0.00    +0.000 N 
ATOM      3  C   UNL     1      -9.708   3.686  20.440  0.00  0.00    +0.000 C 
ATOM      4  C   UNL     1      -9.378   4.912  19.570  0.00  0.00    +0.000 C 
ATOM      5  C   UNL     1     -11.232   3.463  20.503  0.00  0.00    +0.000 C 
ATOM      6  C   UNL     1     -10.438   6.101  19.706  0.00  0.00    +0.000 C 
ATOM      7  C   UNL     1     -12.048   4.583  21.171  0.00  0.00    +0.000 C 
ATOM      8  C   UNL     1      -8.901   3.888  21.737  0.00  0.00    +0.000 C 
ATOM      9  C   UNL     1     -11.358   5.976  21.001  0.00  0.00    +0.000 C 
ATOM     10  C   UNL     1      -9.351   2.308  19.919  0.00  0.00    +0.000 A 
ATOM     11  C   UNL     1      -7.890   4.988  21.420  0.00  0.00    +0.000 C 
ATOM     12  C   UNL     1     -10.360   1.409  20.293  0.00  0.00    +0.000 A 
ATOM     13  C   UNL     1      -9.748   7.466  19.759  0.00  0.00    +0.000 C 
ATOM     14  C   UNL     1      -7.467   6.474  19.526  0.00  0.00    +0.000 C 
ATOM     15  C   UNL     1      -8.419   7.618  19.664  0.00  0.00    +0.000 C 
ATOM     16  C   UNL     1      -8.213   1.895  19.233  0.00  0.00    +0.000 A 
ATOM     17  C   UNL     1     -12.760   1.459  20.680  0.00  0.00    +0.000 C 
ATOM     18  C   UNL     1     -10.212   0.064  20.013  0.00  0.00    +0.000 A 
ATOM     19  C   UNL     1      -8.036   0.532  18.928  0.00  0.00    +0.000 A 
ATOM     20  C   UNL     1      -9.057  -0.373  19.344  0.00  0.00    +0.000 A 
ENDROOT
BRANCH  19  23
ATOM     21  N   UNL     1      -3.674  -1.840  15.779  0.00  0.00    +0.000 NA
ATOM     22  N   UNL     1      -6.900   2.180  16.881  0.00  0.00    +0.000 N 
ATOM     23  C   UNL     1      -6.750   0.003  18.174  0.00  0.00    +0.000 C 
ATOM     24  C   UNL     1      -7.114  -1.180  17.165  0.00  0.00    +0.000 C 
ATOM     25  C   UNL     1      -6.095   1.145  17.325  0.00  0.00    +0.000 A 
ATOM     26  C   UNL     1      -6.050  -1.554  16.120  0.00  0.00    +0.000 C 
ATOM     27  C   UNL     1      -6.502  -2.579  15.081  0.00  0.00    +0.000 C 
ATOM     28  C   UNL     1      -4.756  -2.091  16.713  0.00  0.00    +0.000 C 
ATOM     29  C   UNL     1      -4.824   1.375  16.769  0.00  0.00    +0.000 A 
ATOM     30  C   UNL     1      -5.381  -2.875  14.040  0.00  0.00    +0.000 C 
ATOM     31  C   UNL     1      -3.902  -2.541  14.496  0.00  0.00    +0.000 C 
ATOM     32  C   UNL     1      -3.543   0.557  16.817  0.00  0.00    +0.000 C 
ATOM     33  C   UNL     1      -3.354  -0.399  15.601  0.00  0.00    +0.000 C 
ATOM     34  C   UNL     1      -4.906   2.613  16.028  0.00  0.00    +0.000 A 
ATOM     35  C   UNL     1      -6.208   3.082  16.122  0.00  0.00    +0.000 A 
ATOM     36  C   UNL     1      -3.983   3.366  15.269  0.00  0.00    +0.000 A 
ATOM     37  C   UNL     1      -6.644   4.265  15.511  0.00  0.00    +0.000 A 
ATOM     38  C   UNL     1      -4.396   4.552  14.650  0.00  0.00    +0.000 A 
ATOM     39  C   UNL     1      -5.709   4.993  14.771  0.00  0.00    +0.000 A 
ATOM     40  H   UNL     1      -7.882   2.279  17.104  0.00  0.00    +0.000 HD
BRANCH  23  42
ATOM     41  O   UNL     1      -5.630  -1.676  19.657  0.00  0.00    +0.000 OA
ATOM     42  C   UNL     1      -5.801  -0.516  19.304  0.00  0.00    +0.000 C 
BRANCH  42  43
ATOM     43  O   UNL     1      -5.120   0.540  19.864  0.00  0.00    +0.000 OA
ATOM     44  C   UNL     1      -5.136   0.548  21.291  0.00  0.00    +0.000 C 
ENDBRANCH  42  43
ENDBRANCH  23  42
BRANCH  30  45
ATOM     45  O   UNL     1      -5.445  -4.304  13.805  0.00  0.00    +0.000 OA
ATOM     46  H   UNL     1      -5.620  -4.731  14.663  0.00  0.00    +0.000 HD
ENDBRANCH  30  45
BRANCH  30  47
ATOM     47  C   UNL     1      -5.711  -2.258  12.660  0.00  0.00    +0.000 C 
ATOM     48  C   UNL     1      -6.599  -1.026  12.662  0.00  0.00    +0.000 C 
ENDBRANCH  30  47
ENDBRANCH  19  23
BRANCH   7  49
ATOM     49  O   UNL     1     -13.300   4.658  20.414  0.00  0.00    +0.000 OA
ATOM     50  H   UNL     1     -13.853   3.916  20.735  0.00  0.00    +0.000 HD
ENDBRANCH   7  49
BRANCH   7  52
ATOM     51  O   UNL     1     -11.646   3.759  23.479  0.00  0.00    +0.000 OA
ATOM     52  C   UNL     1     -12.388   4.266  22.649  0.00  0.00    +0.000 C 
BRANCH  52  53
ATOM     53  O   UNL     1     -13.653   4.717  22.937  0.00  0.00    +0.000 OA
ATOM     54  C   UNL     1     -14.473   3.757  23.606  0.00  0.00    +0.000 C 
ENDBRANCH  52  53
ENDBRANCH   7  52
BRANCH  20  55
ATOM     55  O   UNL     1      -8.900  -1.694  19.009  0.00  0.00    +0.000 OA
ATOM     56  C   UNL     1     -10.060  -2.504  19.173  0.00  0.00    +0.000 C 
ENDBRANCH  20  55
BRANCH   6  57
ATOM     57  C   UNL     1     -11.366   6.131  18.437  0.00  0.00    +0.000 C 
ATOM     58  C   UNL     1     -10.964   5.219  17.275  0.00  0.00    +0.000 C 
ENDBRANCH   6  57
BRANCH   9  59
ATOM     59  O   UNL     1     -10.562   6.334  22.156  0.00  0.00    +0.000 OA
BRANCH  59  61
ATOM     60  O   UNL     1     -12.108   7.775  23.042  0.00  0.00    +0.000 OA
ATOM     61  C   UNL     1     -10.948   7.432  22.861  0.00  0.00    +0.000 C 
ATOM     62  C   UNL     1      -9.749   8.140  23.411  0.00  0.00    +0.000 C 
ENDBRANCH  59  61
ENDBRANCH   9  59
TORSDOF 12
ENDMDL
MODEL 7
REMARK VINA RESULT:      -5.6     11.478     18.126
REMARK  Name = 
REMARK  19 active torsions:
REMARK  status: ('A' for Active; 'I' for Inactive)
REMARK    1  A    between atoms: O_1  and  C_20
REMARK    2  A    between atoms: O_1  and  C_36
REMARK    3  A    between atoms: O_2  and  C_18
REMARK    4  A    between atoms: O_3  and  C_28
REMARK    5  A    between atoms: O_3  and  C_42
REMARK    6  A    between atoms: O_5  and  C_34
REMARK    7  A    between atoms: O_5  and  C_50
REMARK    8  A    between atoms: O_7  and  C_40
REMARK    9  A    between atoms: O_7  and  C_56
REMARK   10  A    between atoms: O_9  and  C_46
REMARK   11  A    between atoms: N_11  and  C_30
REMARK   12  A    between atoms: C_17  and  C_23
REMARK   13  A    between atoms: C_18  and  C_28
REMARK   14  A    between atoms: C_23  and  C_32
REMARK   15  A    between atoms: C_33  and  C_35
REMARK   16  A    between atoms: C_35  and  C_40
REMARK   17  A    between atoms: C_36  and  C_41
REMARK   18  A    between atoms: C_46  and  C_53
REMARK   19  A    between atoms: C_53  and  C_57
REMARK                            x       y       z     vdW  Elec       q    Type
REMARK                         _______ _______ _______ _____ _____    ______ ____
ROOT
ATOM      1  N   UNL     1      -8.087   7.161  20.559  0.00  0.00    +0.000 NA
ATOM      2  N   UNL     1      -7.445   3.278  17.858  0.00  0.00    +0.000 N 
ATOM      3  C   UNL     1      -7.809   5.269  19.225  0.00  0.00    +0.000 C 
ATOM      4  C   UNL     1      -8.643   6.557  19.333  0.00  0.00    +0.000 C 
ATOM      5  C   UNL     1      -8.486   4.266  18.269  0.00  0.00    +0.000 C 
ATOM      6  C   UNL     1     -10.221   6.307  19.292  0.00  0.00    +0.000 C 
ATOM      7  C   UNL     1      -9.863   3.743  18.710  0.00  0.00    +0.000 C 
ATOM      8  C   UNL     1      -7.506   4.866  20.681  0.00  0.00    +0.000 C 
ATOM      9  C   UNL     1     -10.624   4.794  19.584  0.00  0.00    +0.000 C 
ATOM     10  C   UNL     1      -6.476   5.324  18.505  0.00  0.00    +0.000 A 
ATOM     11  C   UNL     1      -7.844   6.094  21.522  0.00  0.00    +0.000 C 
ATOM     12  C   UNL     1      -6.301   4.132  17.788  0.00  0.00    +0.000 A 
ATOM     13  C   UNL     1     -10.956   7.186  20.307  0.00  0.00    +0.000 C 
ATOM     14  C   UNL     1      -8.852   8.279  21.090  0.00  0.00    +0.000 C 
ATOM     15  C   UNL     1     -10.332   8.072  21.095  0.00  0.00    +0.000 C 
ATOM     16  C   UNL     1      -5.500   6.314  18.538  0.00  0.00    +0.000 A 
ATOM     17  C   UNL     1      -7.695   2.498  16.648  0.00  0.00    +0.000 C 
ATOM     18  C   UNL     1      -5.111   3.905  17.123  0.00  0.00    +0.000 A 
ATOM     19  C   UNL     1      -4.278   6.116  17.866  0.00  0.00    +0.000 A 
ATOM     20  C   UNL     1      -4.105   4.884  17.168  0.00  0.00    +0.000 A 
ENDROOT
BRANCH  19  23
ATOM     21  N   UNL     1       0.247   9.840  17.396  0.00  0.00    +0.000 NA
ATOM     22  N   UNL     1      -4.901   8.776  17.009  0.00  0.00    +0.000 N 
ATOM     23  C   UNL     1      -3.124   7.196  17.891  0.00  0.00    +0.000 C 
ATOM     24  C   UNL     1      -2.073   6.951  16.714  0.00  0.00    +0.000 C 
ATOM     25  C   UNL     1      -3.706   8.637  17.694  0.00  0.00    +0.000 A 
ATOM     26  C   UNL     1      -1.104   8.102  16.396  0.00  0.00    +0.000 C 
ATOM     27  C   UNL     1      -0.226   7.882  15.165  0.00  0.00    +0.000 C 
ATOM     28  C   UNL     1      -0.159   8.453  17.536  0.00  0.00    +0.000 C 
ATOM     29  C   UNL     1      -3.260   9.943  17.968  0.00  0.00    +0.000 A 
ATOM     30  C   UNL     1       0.697   9.107  14.892  0.00  0.00    +0.000 C 
ATOM     31  C   UNL     1       0.977  10.057  16.127  0.00  0.00    +0.000 C 
ATOM     32  C   UNL     1      -1.983  10.453  18.616  0.00  0.00    +0.000 C 
ATOM     33  C   UNL     1      -0.856  10.814  17.602  0.00  0.00    +0.000 C 
ATOM     34  C   UNL     1      -4.269  10.845  17.463  0.00  0.00    +0.000 A 
ATOM     35  C   UNL     1      -5.270  10.085  16.877  0.00  0.00    +0.000 A 
ATOM     36  C   UNL     1      -4.405  12.252  17.440  0.00  0.00    +0.000 A 
ATOM     37  C   UNL     1      -6.406  10.643  16.277  0.00  0.00    +0.000 A 
ATOM     38  C   UNL     1      -5.532  12.831  16.846  0.00  0.00    +0.000 A 
ATOM     39  C   UNL     1      -6.518  12.035  16.273  0.00  0.00    +0.000 A 
ATOM     40  H   UNL     1      -5.456   8.004  16.662  0.00  0.00    +0.000 HD
BRANCH  23  42
ATOM     41  O   UNL     1      -2.649   7.660  20.307  0.00  0.00    +0.000 OA
ATOM     42  C   UNL     1      -2.434   7.021  19.285  0.00  0.00    +0.000 C 
BRANCH  42  43
ATOM     43  O   UNL     1      -1.527   5.988  19.231  0.00  0.00    +0.000 OA
ATOM     44  C   UNL     1      -0.633   5.944  20.343  0.00  0.00    +0.000 C 
ENDBRANCH  42  43
ENDBRANCH  23  42
BRANCH  30  45
ATOM     45  O   UNL     1       1.970   8.543  14.489  0.00  0.00    +0.000 OA
ATOM     46  H   UNL     1       1.799   7.949  13.736  0.00  0.00    +0.000 HD
ENDBRANCH  30  45
BRANCH  30  47
ATOM     47  C   UNL     1       0.234   9.901  13.648  0.00  0.00    +0.000 C 
ATOM     48  C   UNL     1      -0.141  11.356  13.872  0.00  0.00    +0.000 C 
ENDBRANCH  30  47
ENDBRANCH  19  23
BRANCH   7  49
ATOM     49  O   UNL     1     -10.641   3.605  17.477  0.00  0.00    +0.000 OA
ATOM     50  H   UNL     1     -11.490   3.194  17.739  0.00  0.00    +0.000 HD
ENDBRANCH   7  49
BRANCH   7  52
ATOM     51  O   UNL     1      -8.956   1.996  20.224  0.00  0.00    +0.000 OA
ATOM     52  C   UNL     1      -9.778   2.355  19.392  0.00  0.00    +0.000 C 
BRANCH  52  53
ATOM     53  O   UNL     1     -10.834   1.575  18.984  0.00  0.00    +0.000 OA
ATOM     54  C   UNL     1     -11.398   0.773  20.023  0.00  0.00    +0.000 C 
ENDBRANCH  52  53
ENDBRANCH   7  52
BRANCH  20  55
ATOM     55  O   UNL     1      -2.930   4.712  16.481  0.00  0.00    +0.000 OA
ATOM     56  C   UNL     1      -2.888   3.573  15.626  0.00  0.00    +0.000 C 
ENDBRANCH  20  55
BRANCH   6  57
ATOM     57  C   UNL     1     -10.784   6.709  17.879  0.00  0.00    +0.000 C 
ATOM     58  C   UNL     1      -9.793   7.354  16.908  0.00  0.00    +0.000 C 
ENDBRANCH   6  57
BRANCH   9  59
ATOM     59  O   UNL     1     -10.458   4.547  21.001  0.00  0.00    +0.000 OA
BRANCH  59  61
ATOM     60  O   UNL     1     -11.616   4.130  22.932  0.00  0.00    +0.000 OA
ATOM     61  C   UNL     1     -11.576   4.254  21.716  0.00  0.00    +0.000 C 
ATOM     62  C   UNL     1     -12.758   4.139  20.804  0.00  0.00    +0.000 C 
ENDBRANCH  59  61
ENDBRANCH   9  59
TORSDOF 12
ENDMDL
MODEL 8
REMARK VINA RESULT:      -5.5     19.975     23.161
REMARK  Name = 
REMARK  19 active torsions:
REMARK  status: ('A' for Active; 'I' for Inactive)
REMARK    1  A    between atoms: O_1  and  C_20
REMARK    2  A    between atoms: O_1  and  C_36
REMARK    3  A    between atoms: O_2  and  C_18
REMARK    4  A    between atoms: O_3  and  C_28
REMARK    5  A    between atoms: O_3  and  C_42
REMARK    6  A    between atoms: O_5  and  C_34
REMARK    7  A    between atoms: O_5  and  C_50
REMARK    8  A    between atoms: O_7  and  C_40
REMARK    9  A    between atoms: O_7  and  C_56
REMARK   10  A    between atoms: O_9  and  C_46
REMARK   11  A    between atoms: N_11  and  C_30
REMARK   12  A    between atoms: C_17  and  C_23
REMARK   13  A    between atoms: C_18  and  C_28
REMARK   14  A    between atoms: C_23  and  C_32
REMARK   15  A    between atoms: C_33  and  C_35
REMARK   16  A    between atoms: C_35  and  C_40
REMARK   17  A    between atoms: C_36  and  C_41
REMARK   18  A    between atoms: C_46  and  C_53
REMARK   19  A    between atoms: C_53  and  C_57
REMARK                            x       y       z     vdW  Elec       q    Type
REMARK                         _______ _______ _______ _____ _____    ______ ____
ROOT
ATOM      1  N   UNL     1     -25.571  18.451   7.591  0.00  0.00    +0.000 NA
ATOM      2  N   UNL     1     -22.561  15.287   9.517  0.00  0.00    +0.000 N 
ATOM      3  C   UNL     1     -24.092  16.892   8.496  0.00  0.00    +0.000 C 
ATOM      4  C   UNL     1     -24.408  17.638   7.188  0.00  0.00    +0.000 C 
ATOM      5  C   UNL     1     -23.188  15.675   8.218  0.00  0.00    +0.000 C 
ATOM      6  C   UNL     1     -24.591  16.675   5.926  0.00  0.00    +0.000 C 
ATOM      7  C   UNL     1     -23.798  14.572   7.338  0.00  0.00    +0.000 C 
ATOM      8  C   UNL     1     -25.456  16.701   9.187  0.00  0.00    +0.000 C 
ATOM      9  C   UNL     1     -24.843  15.155   6.330  0.00  0.00    +0.000 C 
ATOM     10  C   UNL     1     -23.182  17.557   9.511  0.00  0.00    +0.000 A 
ATOM     11  C   UNL     1     -26.416  17.639   8.458  0.00  0.00    +0.000 C 
ATOM     12  C   UNL     1     -22.372  16.577  10.102  0.00  0.00    +0.000 A 
ATOM     13  C   UNL     1     -25.760  17.119   5.044  0.00  0.00    +0.000 C 
ATOM     14  C   UNL     1     -26.282  19.086   6.493  0.00  0.00    +0.000 C 
ATOM     15  C   UNL     1     -26.499  18.207   5.303  0.00  0.00    +0.000 C 
ATOM     16  C   UNL     1     -23.130  18.891   9.903  0.00  0.00    +0.000 A 
ATOM     17  C   UNL     1     -21.355  14.462   9.465  0.00  0.00    +0.000 C 
ATOM     18  C   UNL     1     -21.521  16.927  11.132  0.00  0.00    +0.000 A 
ATOM     19  C   UNL     1     -22.269  19.280  10.948  0.00  0.00    +0.000 A 
ATOM     20  C   UNL     1     -21.475  18.264  11.558  0.00  0.00    +0.000 A 
ENDROOT
BRANCH  19  23
ATOM     21  N   UNL     1     -22.511  24.965  12.432  0.00  0.00    +0.000 NA
ATOM     22  N   UNL     1     -23.223  19.869  13.582  0.00  0.00    +0.000 N 
ATOM     23  C   UNL     1     -22.188  20.777  11.451  0.00  0.00    +0.000 C 
ATOM     24  C   UNL     1     -23.286  21.690  10.737  0.00  0.00    +0.000 C 
ATOM     25  C   UNL     1     -22.456  20.860  12.993  0.00  0.00    +0.000 A 
ATOM     26  C   UNL     1     -23.562  23.066  11.365  0.00  0.00    +0.000 C 
ATOM     27  C   UNL     1     -24.726  23.836  10.742  0.00  0.00    +0.000 C 
ATOM     28  C   UNL     1     -22.369  24.010  11.346  0.00  0.00    +0.000 C 
ATOM     29  C   UNL     1     -22.181  21.795  14.008  0.00  0.00    +0.000 A 
ATOM     30  C   UNL     1     -24.962  25.199  11.459  0.00  0.00    +0.000 C 
ATOM     31  C   UNL     1     -23.732  25.784  12.266  0.00  0.00    +0.000 C 
ATOM     32  C   UNL     1     -21.459  23.132  13.972  0.00  0.00    +0.000 C 
ATOM     33  C   UNL     1     -22.402  24.359  13.784  0.00  0.00    +0.000 C 
ATOM     34  C   UNL     1     -22.772  21.283  15.222  0.00  0.00    +0.000 A 
ATOM     35  C   UNL     1     -23.408  20.088  14.919  0.00  0.00    +0.000 A 
ATOM     36  C   UNL     1     -22.835  21.747  16.555  0.00  0.00    +0.000 A 
ATOM     37  C   UNL     1     -24.096  19.322  15.868  0.00  0.00    +0.000 A 
ATOM     38  C   UNL     1     -23.516  20.997  17.521  0.00  0.00    +0.000 A 
ATOM     39  C   UNL     1     -24.137  19.801  17.180  0.00  0.00    +0.000 A 
ATOM     40  H   UNL     1     -23.591  19.063  13.094  0.00  0.00    +0.000 HD
BRANCH  23  42
ATOM     41  O   UNL     1     -19.811  21.469  11.832  0.00  0.00    +0.000 OA
ATOM     42  C   UNL     1     -20.748  21.257  11.073  0.00  0.00    +0.000 C 
BRANCH  42  43
ATOM     43  O   UNL     1     -20.643  21.392   9.708  0.00  0.00    +0.000 OA
ATOM     44  C   UNL     1     -19.585  22.254   9.291  0.00  0.00    +0.000 C 
ENDBRANCH  42  43
ENDBRANCH  23  42
BRANCH  30  45
ATOM     45  O   UNL     1     -25.266  26.140  10.399  0.00  0.00    +0.000 OA
ATOM     46  H   UNL     1     -24.458  26.247   9.866  0.00  0.00    +0.000 HD
ENDBRANCH  30  45
BRANCH  30  47
ATOM     47  C   UNL     1     -26.252  25.175  12.313  0.00  0.00    +0.000 C 
ATOM     48  C   UNL     1     -26.162  24.478  13.659  0.00  0.00    +0.000 C 
ENDBRANCH  30  47
ENDBRANCH  19  23
BRANCH   7  49
ATOM     49  O   UNL     1     -22.691  14.066   6.523  0.00  0.00    +0.000 OA
ATOM     50  H   UNL     1     -23.099  13.503   5.834  0.00  0.00    +0.000 HD
ENDBRANCH   7  49
BRANCH   7  52
ATOM     51  O   UNL     1     -25.055  13.481   9.180  0.00  0.00    +0.000 OA
ATOM     52  C   UNL     1     -24.369  13.398   8.171  0.00  0.00    +0.000 C 
BRANCH  52  53
ATOM     53  O   UNL     1     -24.058  12.206   7.561  0.00  0.00    +0.000 OA
ATOM     54  C   UNL     1     -23.104  11.419   8.278  0.00  0.00    +0.000 C 
ENDBRANCH  52  53
ENDBRANCH   7  52
BRANCH  20  55
ATOM     55  O   UNL     1     -20.608  18.655  12.547  0.00  0.00    +0.000 OA
ATOM     56  C   UNL     1     -19.616  17.695  12.898  0.00  0.00    +0.000 C 
ENDBRANCH  20  55
BRANCH   6  57
ATOM     57  C   UNL     1     -23.309  16.743   5.018  0.00  0.00    +0.000 C 
ATOM     58  C   UNL     1     -22.286  17.829   5.360  0.00  0.00    +0.000 C 
ENDBRANCH   6  57
BRANCH   9  59
ATOM     59  O   UNL     1     -26.199  15.036   6.822  0.00  0.00    +0.000 OA
BRANCH  59  61
ATOM     60  O   UNL     1     -28.185  13.945   6.483  0.00  0.00    +0.000 OA
ATOM     61  C   UNL     1     -27.020  14.163   6.179  0.00  0.00    +0.000 C 
ATOM     62  C   UNL     1     -26.303  13.534   5.026  0.00  0.00    +0.000 C 
ENDBRANCH  59  61
ENDBRANCH   9  59
TORSDOF 12
ENDMDL
MODEL 9
REMARK VINA RESULT:      -5.5     18.047     22.356
REMARK  Name = 
REMARK  19 active torsions:
REMARK  status: ('A' for Active; 'I' for Inactive)
REMARK    1  A    between atoms: O_1  and  C_20
REMARK    2  A    between atoms: O_1  and  C_36
REMARK    3  A    between atoms: O_2  and  C_18
REMARK    4  A    between atoms: O_3  and  C_28
REMARK    5  A    between atoms: O_3  and  C_42
REMARK    6  A    between atoms: O_5  and  C_34
REMARK    7  A    between atoms: O_5  and  C_50
REMARK    8  A    between atoms: O_7  and  C_40
REMARK    9  A    between atoms: O_7  and  C_56
REMARK   10  A    between atoms: O_9  and  C_46
REMARK   11  A    between atoms: N_11  and  C_30
REMARK   12  A    between atoms: C_17  and  C_23
REMARK   13  A    between atoms: C_18  and  C_28
REMARK   14  A    between atoms: C_23  and  C_32
REMARK   15  A    between atoms: C_33  and  C_35
REMARK   16  A    between atoms: C_35  and  C_40
REMARK   17  A    between atoms: C_36  and  C_41
REMARK   18  A    between atoms: C_46  and  C_53
REMARK   19  A    between atoms: C_53  and  C_57
REMARK                            x       y       z     vdW  Elec       q    Type
REMARK                         _______ _______ _______ _____ _____    ______ ____
ROOT
ATOM      1  N   UNL     1     -15.599   7.814  -0.803  0.00  0.00    +0.000 NA
ATOM      2  N   UNL     1     -18.573   6.444  -4.276  0.00  0.00    +0.000 N 
ATOM      3  C   UNL     1     -17.058   7.182  -2.508  0.00  0.00    +0.000 C 
ATOM      4  C   UNL     1     -16.174   8.355  -2.048  0.00  0.00    +0.000 C 
ATOM      5  C   UNL     1     -18.084   7.658  -3.556  0.00  0.00    +0.000 C 
ATOM      6  C   UNL     1     -16.954   9.747  -1.950  0.00  0.00    +0.000 C 
ATOM      7  C   UNL     1     -19.115   8.689  -3.067  0.00  0.00    +0.000 C 
ATOM      8  C   UNL     1     -17.536   6.508  -1.207  0.00  0.00    +0.000 C 
ATOM      9  C   UNL     1     -18.537   9.579  -1.918  0.00  0.00    +0.000 C 
ATOM     10  C   UNL     1     -16.435   6.091  -3.357  0.00  0.00    +0.000 A 
ATOM     11  C   UNL     1     -16.641   7.070  -0.106  0.00  0.00    +0.000 C 
ATOM     12  C   UNL     1     -17.372   5.671  -4.311  0.00  0.00    +0.000 A 
ATOM     13  C   UNL     1     -16.546  10.532  -0.701  0.00  0.00    +0.000 C 
ATOM     14  C   UNL     1     -14.910   8.791   0.026  0.00  0.00    +0.000 C 
ATOM     15  C   UNL     1     -15.621  10.098   0.166  0.00  0.00    +0.000 C 
ATOM     16  C   UNL     1     -15.181   5.500  -3.245  0.00  0.00    +0.000 A 
ATOM     17  C   UNL     1     -19.207   6.641  -5.578  0.00  0.00    +0.000 C 
ATOM     18  C   UNL     1     -17.068   4.612  -5.145  0.00  0.00    +0.000 A 
ATOM     19  C   UNL     1     -14.838   4.421  -4.083  0.00  0.00    +0.000 A 
ATOM     20  C   UNL     1     -15.815   3.986  -5.027  0.00  0.00    +0.000 A 
ENDROOT
BRANCH  19  23
ATOM     21  N   UNL     1      -9.898   1.232  -4.094  0.00  0.00    +0.000 NA
ATOM     22  N   UNL     1     -12.684   5.414  -5.688  0.00  0.00    +0.000 N 
ATOM     23  C   UNL     1     -13.438   3.694  -3.982  0.00  0.00    +0.000 C 
ATOM     24  C   UNL     1     -13.466   2.274  -4.712  0.00  0.00    +0.000 C 
ATOM     25  C   UNL     1     -12.318   4.544  -4.675  0.00  0.00    +0.000 A 
ATOM     26  C   UNL     1     -12.108   1.613  -5.000  0.00  0.00    +0.000 C 
ATOM     27  C   UNL     1     -12.178   0.337  -5.836  0.00  0.00    +0.000 C 
ATOM     28  C   UNL     1     -11.310   1.262  -3.752  0.00  0.00    +0.000 C 
ATOM     29  C   UNL     1     -10.915   4.601  -4.601  0.00  0.00    +0.000 A 
ATOM     30  C   UNL     1     -10.761  -0.248  -6.113  0.00  0.00    +0.000 C 
ATOM     31  C   UNL     1      -9.617   0.195  -5.111  0.00  0.00    +0.000 C 
ATOM     32  C   UNL     1      -9.921   3.824  -3.751  0.00  0.00    +0.000 C 
ATOM     33  C   UNL     1      -9.337   2.560  -4.452  0.00  0.00    +0.000 C 
ATOM     34  C   UNL     1     -10.482   5.577  -5.574  0.00  0.00    +0.000 A 
ATOM     35  C   UNL     1     -11.607   6.059  -6.227  0.00  0.00    +0.000 A 
ATOM     36  C   UNL     1      -9.221   6.078  -5.968  0.00  0.00    +0.000 A 
ATOM     37  C   UNL     1     -11.551   7.020  -7.244  0.00  0.00    +0.000 A 
ATOM     38  C   UNL     1      -9.141   7.040  -6.982  0.00  0.00    +0.000 A 
ATOM     39  C   UNL     1     -10.292   7.503  -7.610  0.00  0.00    +0.000 A 
ATOM     40  H   UNL     1     -13.637   5.576  -5.988  0.00  0.00    +0.000 HD
BRANCH  23  42
ATOM     41  O   UNL     1     -12.472   4.204  -1.727  0.00  0.00    +0.000 OA
ATOM     42  C   UNL     1     -13.183   3.515  -2.449  0.00  0.00    +0.000 C 
BRANCH  42  43
ATOM     43  O   UNL     1     -13.914   2.451  -1.974  0.00  0.00    +0.000 OA
ATOM     44  C   UNL     1     -13.266   1.722  -0.932  0.00  0.00    +0.000 C 
ENDBRANCH  42  43
ENDBRANCH  23  42
BRANCH  30  45
ATOM     45  O   UNL     1     -10.909  -1.685  -5.985  0.00  0.00    +0.000 OA
ATOM     46  H   UNL     1     -11.490  -1.982  -6.707  0.00  0.00    +0.000 HD
ENDBRANCH  30  45
BRANCH  30  47
ATOM     47  C   UNL     1     -10.343  -0.049  -7.588  0.00  0.00    +0.000 C 
ATOM     48  C   UNL     1      -9.848   1.335  -7.973  0.00  0.00    +0.000 C 
ENDBRANCH  30  47
ENDBRANCH  19  23
BRANCH   7  49
ATOM     49  O   UNL     1     -19.336   9.588  -4.202  0.00  0.00    +0.000 OA
ATOM     50  H   UNL     1     -20.106   9.225  -4.687  0.00  0.00    +0.000 HD
ENDBRANCH   7  49
BRANCH   7  52
ATOM     51  O   UNL     1     -20.640   7.086  -1.939  0.00  0.00    +0.000 OA
ATOM     52  C   UNL     1     -20.469   8.037  -2.688  0.00  0.00    +0.000 C 
BRANCH  52  53
ATOM     53  O   UNL     1     -21.497   8.744  -3.264  0.00  0.00    +0.000 OA
ATOM     54  C   UNL     1     -22.471   7.925  -3.914  0.00  0.00    +0.000 C 
ENDBRANCH  52  53
ENDBRANCH   7  52
BRANCH  20  55
ATOM     55  O   UNL     1     -15.463   2.962  -5.869  0.00  0.00    +0.000 OA
ATOM     56  C   UNL     1     -16.454   2.592  -6.822  0.00  0.00    +0.000 C 
ENDBRANCH  20  55
BRANCH   6  57
ATOM     57  C   UNL     1     -16.573  10.654  -3.178  0.00  0.00    +0.000 C 
ATOM     58  C   UNL     1     -15.089  10.721  -3.544  0.00  0.00    +0.000 C 
ENDBRANCH   6  57
BRANCH   9  59
ATOM     59  O   UNL     1     -18.913   9.090  -0.609  0.00  0.00    +0.000 OA
BRANCH  59  61
ATOM     60  O   UNL     1     -20.797  10.357  -0.303  0.00  0.00    +0.000 OA
ATOM     61  C   UNL     1     -19.764   9.859   0.122  0.00  0.00    +0.000 C 
ATOM     62  C   UNL     1     -19.271   9.979   1.530  0.00  0.00    +0.000 C 
ENDBRANCH  59  61
ENDBRANCH   9  59
TORSDOF 12
ENDMDL
