MODEL 1
REMARK VINA RESULT:      -5.3      0.000      0.000
REMARK  Name = Vorinostat.pdbqt.pdb
REMARK  6 active torsions:
REMARK  status: ('A' for Active; 'I' for Inactive)
REMARK    1  A    between atoms: C_1  and  C_2
REMARK    2  A    between atoms: C_3  and  C_4
REMARK    3  A    between atoms: C_5  and  C_8
REMARK    4  A    between atoms: N_7  and  O_10
REMARK    5  A    between atoms: C_12  and  C_15
REMARK    6  A    between atoms: N_14  and  C_17
REMARK                            x       y       z     vdW  Elec       q    Type
REMARK                         _______ _______ _______ _____ _____    ______ ____
ROOT
ATOM      1  C   UNL     1      -4.261   3.020   2.497  0.00  0.00    +0.000 C 
ATOM      2  C   UNL     1      -5.503   2.142   2.320  0.00  0.00    +0.000 C 
ENDROOT
BRANCH   2   5
ATOM      3  O   UNL     1      -6.526   0.105   2.071  0.00  0.00    +0.000 OA
ATOM      4  N   UNL     1      -7.856   2.019   2.102  0.00  0.00    +0.000 N 
ATOM      5  C   UNL     1      -6.675   1.314   2.152  0.00  0.00    +0.000 C 
ATOM      6  H   UNL     1      -7.799   3.027   2.185  0.00  0.00    +0.000 HD
BRANCH   4   7
ATOM      7  C   UNL     1      -9.136   1.461   1.945  0.00  0.00    +0.000 A 
ATOM      8  C   UNL     1      -9.687   1.447   0.663  0.00  0.00    +0.000 A 
ATOM      9  C   UNL     1      -9.864   0.929   3.008  0.00  0.00    +0.000 A 
ATOM     10  C   UNL     1     -10.953   0.907   0.446  0.00  0.00    +0.000 A 
ATOM     11  C   UNL     1     -11.131   0.388   2.794  0.00  0.00    +0.000 A 
ATOM     12  C   UNL     1     -11.675   0.377   1.512  0.00  0.00    +0.000 A 
ENDBRANCH   4   7
ENDBRANCH   2   5
BRANCH   1  13
ATOM     13  C   UNL     1      -3.019   3.898   2.673  0.00  0.00    +0.000 C 
ATOM     14  C   UNL     1      -1.775   4.775   2.849  0.00  0.00    +0.000 C 
BRANCH  14  15
ATOM     15  C   UNL     1      -0.533   5.652   3.025  0.00  0.00    +0.000 C 
ATOM     16  C   UNL     1       0.711   6.529   3.203  0.00  0.00    +0.000 C 
BRANCH  16  19
ATOM     17  O   UNL     1       2.262   8.081   2.465  0.00  0.00    +0.000 OA
ATOM     18  N   UNL     1       2.504   7.260   4.583  0.00  0.00    +0.000 N 
ATOM     19  C   UNL     1       1.879   7.351   3.371  0.00  0.00    +0.000 C 
ATOM     20  H   UNL     1       2.180   6.693   5.357  0.00  0.00    +0.000 HD
BRANCH  18  21
ATOM     21  O   UNL     1       3.636   8.076   4.799  0.00  0.00    +0.000 OA
ATOM     22  H   UNL     1       3.435   8.871   4.258  0.00  0.00    +0.000 HD
ENDBRANCH  18  21
ENDBRANCH  16  19
ENDBRANCH  14  15
ENDBRANCH   1  13
TORSDOF 6
ENDMDL
MODEL 2
REMARK VINA RESULT:      -5.0     20.958     23.815
REMARK  Name = Vorinostat.pdbqt.pdb
REMARK  6 active torsions:
REMARK  status: ('A' for Active; 'I' for Inactive)
REMARK    1  A    between atoms: C_1  and  C_2
REMARK    2  A    between atoms: C_3  and  C_4
REMARK    3  A    between atoms: C_5  and  C_8
REMARK    4  A    between atoms: N_7  and  O_10
REMARK    5  A    between atoms: C_12  and  C_15
REMARK    6  A    between atoms: N_14  and  C_17
REMARK                            x       y       z     vdW  Elec       q    Type
REMARK                         _______ _______ _______ _____ _____    ______ ____
ROOT
ATOM      1  C   UNL     1     -22.699  13.133   8.011  0.00  0.00    +0.000 C 
ATOM      2  C   UNL     1     -22.237  14.455   8.629  0.00  0.00    +0.000 C 
ENDROOT
BRANCH   2   5
ATOM      3  O   UNL     1     -21.616  16.657   8.476  0.00  0.00    +0.000 OA
ATOM      4  N   UNL     1     -21.643  15.654  10.581  0.00  0.00    +0.000 N 
ATOM      5  C   UNL     1     -21.801  15.702   9.214  0.00  0.00    +0.000 C 
ATOM      6  H   UNL     1     -21.841  14.774  11.041  0.00  0.00    +0.000 HD
BRANCH   4   7
ATOM      7  C   UNL     1     -21.229  16.723  11.394  0.00  0.00    +0.000 A 
ATOM      8  C   UNL     1     -22.040  17.858  11.440  0.00  0.00    +0.000 A 
ATOM      9  C   UNL     1     -20.056  16.691  12.147  0.00  0.00    +0.000 A 
ATOM     10  C   UNL     1     -21.682  18.949  12.229  0.00  0.00    +0.000 A 
ATOM     11  C   UNL     1     -19.696  17.780  12.937  0.00  0.00    +0.000 A 
ATOM     12  C   UNL     1     -20.509  18.910  12.978  0.00  0.00    +0.000 A 
ENDBRANCH   4   7
ENDBRANCH   2   5
BRANCH   1  13
ATOM     13  C   UNL     1     -23.159  11.810   7.392  0.00  0.00    +0.000 C 
ATOM     14  C   UNL     1     -23.620  10.487   6.773  0.00  0.00    +0.000 C 
BRANCH  14  15
ATOM     15  C   UNL     1     -24.081   9.164   6.155  0.00  0.00    +0.000 C 
ATOM     16  C   UNL     1     -24.542   7.840   5.536  0.00  0.00    +0.000 C 
BRANCH  16  19
ATOM     17  O   UNL     1     -25.810   6.587   4.059  0.00  0.00    +0.000 OA
ATOM     18  N   UNL     1     -24.388   5.468   5.454  0.00  0.00    +0.000 N 
ATOM     19  C   UNL     1     -24.972   6.598   4.953  0.00  0.00    +0.000 C 
ATOM     20  H   UNL     1     -23.666   5.460   6.164  0.00  0.00    +0.000 HD
BRANCH  18  21
ATOM     21  O   UNL     1     -24.760   4.231   4.885  0.00  0.00    +0.000 OA
ATOM     22  H   UNL     1     -24.237   3.586   5.409  0.00  0.00    +0.000 HD
ENDBRANCH  18  21
ENDBRANCH  16  19
ENDBRANCH  14  15
ENDBRANCH   1  13
TORSDOF 6
ENDMDL
MODEL 3
REMARK VINA RESULT:      -4.9     19.634     22.665
REMARK  Name = Vorinostat.pdbqt.pdb
REMARK  6 active torsions:
REMARK  status: ('A' for Active; 'I' for Inactive)
REMARK    1  A    between atoms: C_1  and  C_2
REMARK    2  A    between atoms: C_3  and  C_4
REMARK    3  A    between atoms: C_5  and  C_8
REMARK    4  A    between atoms: N_7  and  O_10
REMARK    5  A    between atoms: C_12  and  C_15
REMARK    6  A    between atoms: N_14  and  C_17
REMARK                            x       y       z     vdW  Elec       q    Type
REMARK                         _______ _______ _______ _____ _____    ______ ____
ROOT
ATOM      1  C   UNL     1     -13.483   4.843  20.853  0.00  0.00    +0.000 C 
ATOM      2  C   UNL     1     -12.141   4.918  20.119  0.00  0.00    +0.000 C 
ENDROOT
BRANCH   2   5
ATOM      3  O   UNL     1      -9.968   5.625  19.940  0.00  0.00    +0.000 OA
ATOM      4  N   UNL     1     -10.852   4.311  18.230  0.00  0.00    +0.000 N 
ATOM      5  C   UNL     1     -10.876   4.991  19.426  0.00  0.00    +0.000 C 
ATOM      6  H   UNL     1     -11.700   3.834  17.950  0.00  0.00    +0.000 HD
BRANCH   4   7
ATOM      7  C   UNL     1      -9.751   4.221  17.361  0.00  0.00    +0.000 A 
ATOM      8  C   UNL     1      -9.746   5.039  16.230  0.00  0.00    +0.000 A 
ATOM      9  C   UNL     1      -8.679   3.358  17.585  0.00  0.00    +0.000 A 
ATOM     10  C   UNL     1      -8.681   4.994  15.333  0.00  0.00    +0.000 A 
ATOM     11  C   UNL     1      -7.613   3.311  16.689  0.00  0.00    +0.000 A 
ATOM     12  C   UNL     1      -7.614   4.130  15.563  0.00  0.00    +0.000 A 
ENDBRANCH   4   7
ENDBRANCH   2   5
BRANCH   1  13
ATOM     13  C   UNL     1     -14.823   4.768  21.590  0.00  0.00    +0.000 C 
ATOM     14  C   UNL     1     -16.165   4.692  22.326  0.00  0.00    +0.000 C 
BRANCH  14  15
ATOM     15  C   UNL     1     -17.506   4.616  23.061  0.00  0.00    +0.000 C 
ATOM     16  C   UNL     1     -18.848   4.540  23.796  0.00  0.00    +0.000 C 
BRANCH  16  19
ATOM     17  O   UNL     1     -20.300   3.607  25.339  0.00  0.00    +0.000 OA
ATOM     18  N   UNL     1     -21.039   5.401  24.132  0.00  0.00    +0.000 N 
ATOM     19  C   UNL     1     -20.107   4.465  24.486  0.00  0.00    +0.000 C 
ATOM     20  H   UNL     1     -20.883   6.142  23.460  0.00  0.00    +0.000 HD
BRANCH  18  21
ATOM     21  O   UNL     1     -22.277   5.382  24.811  0.00  0.00    +0.000 OA
ATOM     22  H   UNL     1     -22.080   4.837  25.604  0.00  0.00    +0.000 HD
ENDBRANCH  18  21
ENDBRANCH  16  19
ENDBRANCH  14  15
ENDBRANCH   1  13
TORSDOF 6
ENDMDL
MODEL 4
REMARK VINA RESULT:      -4.6     13.229     13.844
REMARK  Name = Vorinostat.pdbqt.pdb
REMARK  6 active torsions:
REMARK  status: ('A' for Active; 'I' for Inactive)
REMARK    1  A    between atoms: C_1  and  C_2
REMARK    2  A    between atoms: C_3  and  C_4
REMARK    3  A    between atoms: C_5  and  C_8
REMARK    4  A    between atoms: N_7  and  O_10
REMARK    5  A    between atoms: C_12  and  C_15
REMARK    6  A    between atoms: N_14  and  C_17
REMARK                            x       y       z     vdW  Elec       q    Type
REMARK                         _______ _______ _______ _____ _____    ______ ____
ROOT
ATOM      1  C   UNL     1      -4.738   5.300  15.032  0.00  0.00    +0.000 C 
ATOM      2  C   UNL     1      -6.173   5.167  15.550  0.00  0.00    +0.000 C 
ENDROOT
BRANCH   2   5
ATOM      3  O   UNL     1      -8.326   4.399  15.377  0.00  0.00    +0.000 OA
ATOM      4  N   UNL     1      -7.751   5.681  17.236  0.00  0.00    +0.000 N 
ATOM      5  C   UNL     1      -7.526   5.040  16.040  0.00  0.00    +0.000 C 
ATOM      6  H   UNL     1      -6.969   6.171  17.655  0.00  0.00    +0.000 HD
BRANCH   4   7
ATOM      7  C   UNL     1      -8.973   5.715  17.930  0.00  0.00    +0.000 A 
ATOM      8  C   UNL     1      -9.881   6.722  17.599  0.00  0.00    +0.000 A 
ATOM      9  C   UNL     1      -9.305   4.793  18.921  0.00  0.00    +0.000 A 
ATOM     10  C   UNL     1     -11.108   6.807  18.252  0.00  0.00    +0.000 A 
ATOM     11  C   UNL     1     -10.533   4.876  19.576  0.00  0.00    +0.000 A 
ATOM     12  C   UNL     1     -11.434   5.882  19.241  0.00  0.00    +0.000 A 
ENDBRANCH   4   7
ENDBRANCH   2   5
BRANCH   1  13
ATOM     13  C   UNL     1      -3.303   5.436  14.515  0.00  0.00    +0.000 C 
ATOM     14  C   UNL     1      -1.867   5.571  13.997  0.00  0.00    +0.000 C 
BRANCH  14  15
ATOM     15  C   UNL     1      -0.433   5.706  13.480  0.00  0.00    +0.000 C 
ATOM     16  C   UNL     1       1.003   5.843  12.962  0.00  0.00    +0.000 C 
BRANCH  16  19
ATOM     17  O   UNL     1       2.620   5.716  11.310  0.00  0.00    +0.000 OA
ATOM     18  N   UNL     1       3.276   6.394  13.392  0.00  0.00    +0.000 N 
ATOM     19  C   UNL     1       2.351   5.972  12.478  0.00  0.00    +0.000 C 
ATOM     20  H   UNL     1       3.065   6.648  14.349  0.00  0.00    +0.000 HD
BRANCH  18  21
ATOM     21  O   UNL     1       4.605   6.564  12.946  0.00  0.00    +0.000 OA
ATOM     22  H   UNL     1       5.101   5.918  13.494  0.00  0.00    +0.000 HD
ENDBRANCH  18  21
ENDBRANCH  16  19
ENDBRANCH  14  15
ENDBRANCH   1  13
TORSDOF 6
ENDMDL
MODEL 5
REMARK VINA RESULT:      -4.5     13.238     17.217
REMARK  Name = Vorinostat.pdbqt.pdb
REMARK  6 active torsions:
REMARK  status: ('A' for Active; 'I' for Inactive)
REMARK    1  A    between atoms: C_1  and  C_2
REMARK    2  A    between atoms: C_3  and  C_4
REMARK    3  A    between atoms: C_5  and  C_8
REMARK    4  A    between atoms: N_7  and  O_10
REMARK    5  A    between atoms: C_12  and  C_15
REMARK    6  A    between atoms: N_14  and  C_17
REMARK                            x       y       z     vdW  Elec       q    Type
REMARK                         _______ _______ _______ _____ _____    ______ ____
ROOT
ATOM      1  C   UNL     1     -14.708  10.954  -2.229  0.00  0.00    +0.000 C 
ATOM      2  C   UNL     1     -14.273  12.408  -2.438  0.00  0.00    +0.000 C 
ENDROOT
BRANCH   2   5
ATOM      3  O   UNL     1     -13.695  14.481  -1.647  0.00  0.00    +0.000 OA
ATOM      4  N   UNL     1     -13.708  14.136  -3.952  0.00  0.00    +0.000 N 
ATOM      5  C   UNL     1     -13.864  13.780  -2.632  0.00  0.00    +0.000 C 
ATOM      6  H   UNL     1     -13.891  13.425  -4.650  0.00  0.00    +0.000 HD
BRANCH   4   7
ATOM      7  C   UNL     1     -13.319  15.404  -4.417  0.00  0.00    +0.000 A 
ATOM      8  C   UNL     1     -14.179  16.068  -5.293  0.00  0.00    +0.000 A 
ATOM      9  C   UNL     1     -12.122  16.012  -4.041  0.00  0.00    +0.000 A 
ATOM     10  C   UNL     1     -13.846  17.327  -5.787  0.00  0.00    +0.000 A 
ATOM     11  C   UNL     1     -11.787  17.272  -4.534  0.00  0.00    +0.000 A 
ATOM     12  C   UNL     1     -12.650  17.930  -5.407  0.00  0.00    +0.000 A 
ENDBRANCH   4   7
ENDBRANCH   2   5
BRANCH   1  13
ATOM     13  C   UNL     1     -15.140   9.501  -2.020  0.00  0.00    +0.000 C 
ATOM     14  C   UNL     1     -15.572   8.045  -1.811  0.00  0.00    +0.000 C 
BRANCH  14  15
ATOM     15  C   UNL     1     -16.003   6.591  -1.603  0.00  0.00    +0.000 C 
ATOM     16  C   UNL     1     -16.435   5.136  -1.394  0.00  0.00    +0.000 C 
BRANCH  16  19
ATOM     17  O   UNL     1     -17.994   3.503  -0.883  0.00  0.00    +0.000 OA
ATOM     18  N   UNL     1     -15.869   2.826  -1.382  0.00  0.00    +0.000 N 
ATOM     19  C   UNL     1     -16.840   3.771  -1.195  0.00  0.00    +0.000 C 
ATOM     20  H   UNL     1     -14.922   3.025  -1.678  0.00  0.00    +0.000 HD
BRANCH  18  21
ATOM     21  O   UNL     1     -16.236   1.472  -1.228  0.00  0.00    +0.000 OA
ATOM     22  H   UNL     1     -16.117   1.324  -0.264  0.00  0.00    +0.000 HD
ENDBRANCH  18  21
ENDBRANCH  16  19
ENDBRANCH  14  15
ENDBRANCH   1  13
TORSDOF 6
ENDMDL
MODEL 6
REMARK VINA RESULT:      -4.3     20.511     23.634
REMARK  Name = Vorinostat.pdbqt.pdb
REMARK  6 active torsions:
REMARK  status: ('A' for Active; 'I' for Inactive)
REMARK    1  A    between atoms: C_1  and  C_2
REMARK    2  A    between atoms: C_3  and  C_4
REMARK    3  A    between atoms: C_5  and  C_8
REMARK    4  A    between atoms: N_7  and  O_10
REMARK    5  A    between atoms: C_12  and  C_15
REMARK    6  A    between atoms: N_14  and  C_17
REMARK                            x       y       z     vdW  Elec       q    Type
REMARK                         _______ _______ _______ _____ _____    ______ ____
ROOT
ATOM      1  C   UNL     1     -14.191   4.932  21.296  0.00  0.00    +0.000 C 
ATOM      2  C   UNL     1     -12.828   5.052  20.608  0.00  0.00    +0.000 C 
ENDROOT
BRANCH   2   5
ATOM      3  O   UNL     1     -10.684   4.337  20.223  0.00  0.00    +0.000 OA
ATOM      4  N   UNL     1     -11.444   6.227  19.091  0.00  0.00    +0.000 N 
ATOM      5  C   UNL     1     -11.542   5.164  19.959  0.00  0.00    +0.000 C 
ATOM      6  H   UNL     1     -12.258   6.820  18.988  0.00  0.00    +0.000 HD
BRANCH   4   7
ATOM      7  C   UNL     1     -10.309   6.563  18.333  0.00  0.00    +0.000 A 
ATOM      8  C   UNL     1      -9.330   7.351  18.941  0.00  0.00    +0.000 A 
ATOM      9  C   UNL     1     -10.127   6.143  17.016  0.00  0.00    +0.000 A 
ATOM     10  C   UNL     1      -8.183   7.716  18.239  0.00  0.00    +0.000 A 
ATOM     11  C   UNL     1      -8.980   6.506  16.312  0.00  0.00    +0.000 A 
ATOM     12  C   UNL     1      -8.008   7.293  16.925  0.00  0.00    +0.000 A 
ENDBRANCH   4   7
ENDBRANCH   2   5
BRANCH   1  13
ATOM     13  C   UNL     1     -15.555   4.814  21.981  0.00  0.00    +0.000 C 
ATOM     14  C   UNL     1     -16.920   4.696  22.667  0.00  0.00    +0.000 C 
BRANCH  14  15
ATOM     15  C   UNL     1     -18.284   4.579  23.352  0.00  0.00    +0.000 C 
ATOM     16  C   UNL     1     -19.648   4.461  24.039  0.00  0.00    +0.000 C 
BRANCH  16  19
ATOM     17  O   UNL     1     -21.191   3.374  25.379  0.00  0.00    +0.000 OA
ATOM     18  N   UNL     1     -21.798   5.381  24.472  0.00  0.00    +0.000 N 
ATOM     19  C   UNL     1     -20.929   4.348  24.684  0.00  0.00    +0.000 C 
ATOM     20  H   UNL     1     -21.584   6.212  23.934  0.00  0.00    +0.000 HD
BRANCH  18  21
ATOM     21  O   UNL     1     -23.053   5.324  25.116  0.00  0.00    +0.000 OA
ATOM     22  H   UNL     1     -23.087   4.397  25.440  0.00  0.00    +0.000 HD
ENDBRANCH  18  21
ENDBRANCH  16  19
ENDBRANCH  14  15
ENDBRANCH   1  13
TORSDOF 6
ENDMDL
MODEL 7
REMARK VINA RESULT:      -4.3     14.093     15.211
REMARK  Name = Vorinostat.pdbqt.pdb
REMARK  6 active torsions:
REMARK  status: ('A' for Active; 'I' for Inactive)
REMARK    1  A    between atoms: C_1  and  C_2
REMARK    2  A    between atoms: C_3  and  C_4
REMARK    3  A    between atoms: C_5  and  C_8
REMARK    4  A    between atoms: N_7  and  O_10
REMARK    5  A    between atoms: C_12  and  C_15
REMARK    6  A    between atoms: N_14  and  C_17
REMARK                            x       y       z     vdW  Elec       q    Type
REMARK                         _______ _______ _______ _____ _____    ______ ____
ROOT
ATOM      1  C   UNL     1     -13.854  10.357  -5.499  0.00  0.00    +0.000 C 
ATOM      2  C   UNL     1     -14.687  10.300  -4.215  0.00  0.00    +0.000 C 
ENDROOT
BRANCH   2   5
ATOM      3  O   UNL     1     -16.431  10.997  -2.901  0.00  0.00    +0.000 OA
ATOM      4  N   UNL     1     -15.029   9.323  -2.087  0.00  0.00    +0.000 N 
ATOM      5  C   UNL     1     -15.474  10.247  -3.004  0.00  0.00    +0.000 C 
ATOM      6  H   UNL     1     -14.212   8.778  -2.335  0.00  0.00    +0.000 HD
BRANCH   4   7
ATOM      7  C   UNL     1     -15.610   9.069  -0.833  0.00  0.00    +0.000 A 
ATOM      8  C   UNL     1     -16.594   8.082  -0.759  0.00  0.00    +0.000 A 
ATOM      9  C   UNL     1     -15.245   9.758   0.323  0.00  0.00    +0.000 A 
ATOM     10  C   UNL     1     -17.206   7.787   0.458  0.00  0.00    +0.000 A 
ATOM     11  C   UNL     1     -15.855   9.464   1.541  0.00  0.00    +0.000 A 
ATOM     12  C   UNL     1     -16.836   8.479   1.608  0.00  0.00    +0.000 A 
ENDBRANCH   4   7
ENDBRANCH   2   5
BRANCH   1  13
ATOM     13  C   UNL     1     -13.022  10.412  -6.783  0.00  0.00    +0.000 C 
ATOM     14  C   UNL     1     -12.191  10.468  -8.069  0.00  0.00    +0.000 C 
BRANCH  14  15
ATOM     15  C   UNL     1     -11.361  10.523  -9.354  0.00  0.00    +0.000 C 
ATOM     16  C   UNL     1     -10.531  10.577 -10.641  0.00  0.00    +0.000 C 
BRANCH  16  19
ATOM     17  O   UNL     1      -8.705  11.260 -11.889  0.00  0.00    +0.000 OA
ATOM     18  N   UNL     1     -10.258   9.934 -12.914  0.00  0.00    +0.000 N 
ATOM     19  C   UNL     1      -9.753  10.628 -11.850  0.00  0.00    +0.000 C 
ATOM     20  H   UNL     1     -11.101   9.374 -12.888  0.00  0.00    +0.000 HD
BRANCH  18  21
ATOM     21  O   UNL     1      -9.507   9.932 -14.109  0.00  0.00    +0.000 OA
ATOM     22  H   UNL     1      -9.753  10.789 -14.520  0.00  0.00    +0.000 HD
ENDBRANCH  18  21
ENDBRANCH  16  19
ENDBRANCH  14  15
ENDBRANCH   1  13
TORSDOF 6
ENDMDL
MODEL 8
REMARK VINA RESULT:      -4.3      2.589     11.886
REMARK  Name = Vorinostat.pdbqt.pdb
REMARK  6 active torsions:
REMARK  status: ('A' for Active; 'I' for Inactive)
REMARK    1  A    between atoms: C_1  and  C_2
REMARK    2  A    between atoms: C_3  and  C_4
REMARK    3  A    between atoms: C_5  and  C_8
REMARK    4  A    between atoms: N_7  and  O_10
REMARK    5  A    between atoms: C_12  and  C_15
REMARK    6  A    between atoms: N_14  and  C_17
REMARK                            x       y       z     vdW  Elec       q    Type
REMARK                         _______ _______ _______ _____ _____    ______ ____
ROOT
ATOM      1  C   UNL     1      -1.988   3.284   2.671  0.00  0.00    +0.000 C 
ATOM      2  C   UNL     1      -0.548   3.794   2.560  0.00  0.00    +0.000 C 
ENDROOT
BRANCH   2   5
ATOM      3  O   UNL     1       1.694   3.472   2.207  0.00  0.00    +0.000 OA
ATOM      4  N   UNL     1       0.939   5.632   2.651  0.00  0.00    +0.000 N 
ATOM      5  C   UNL     1       0.809   4.276   2.454  0.00  0.00    +0.000 C 
ATOM      6  H   UNL     1       0.095   6.156   2.848  0.00  0.00    +0.000 HD
BRANCH   4   7
ATOM      7  C   UNL     1       2.144   6.355   2.603  0.00  0.00    +0.000 A 
ATOM      8  C   UNL     1       2.729   6.724   3.814  0.00  0.00    +0.000 A 
ATOM      9  C   UNL     1       2.766   6.709   1.407  0.00  0.00    +0.000 A 
ATOM     10  C   UNL     1       3.924   7.442   3.830  0.00  0.00    +0.000 A 
ATOM     11  C   UNL     1       3.961   7.426   1.419  0.00  0.00    +0.000 A 
ATOM     12  C   UNL     1       4.540   7.792   2.632  0.00  0.00    +0.000 A 
ENDBRANCH   4   7
ENDBRANCH   2   5
BRANCH   1  13
ATOM     13  C   UNL     1      -3.428   2.775   2.782  0.00  0.00    +0.000 C 
ATOM     14  C   UNL     1      -4.868   2.265   2.894  0.00  0.00    +0.000 C 
BRANCH  14  15
ATOM     15  C   UNL     1      -6.307   1.755   3.005  0.00  0.00    +0.000 C 
ATOM     16  C   UNL     1      -7.747   1.244   3.116  0.00  0.00    +0.000 C 
BRANCH  16  19
ATOM     17  O   UNL     1      -9.321  -0.416   3.468  0.00  0.00    +0.000 OA
ATOM     18  N   UNL     1     -10.081   1.694   3.030  0.00  0.00    +0.000 N 
ATOM     19  C   UNL     1      -9.099   0.762   3.219  0.00  0.00    +0.000 C 
ATOM     20  H   UNL     1      -9.916   2.678   2.864  0.00  0.00    +0.000 HD
BRANCH  18  21
ATOM     21  O   UNL     1     -11.421   1.266   3.157  0.00  0.00    +0.000 OA
ATOM     22  H   UNL     1     -11.381   0.336   2.845  0.00  0.00    +0.000 HD
ENDBRANCH  18  21
ENDBRANCH  16  19
ENDBRANCH  14  15
ENDBRANCH   1  13
TORSDOF 6
ENDMDL
MODEL 9
REMARK VINA RESULT:      -4.2     15.648     16.815
REMARK  Name = Vorinostat.pdbqt.pdb
REMARK  6 active torsions:
REMARK  status: ('A' for Active; 'I' for Inactive)
REMARK    1  A    between atoms: C_1  and  C_2
REMARK    2  A    between atoms: C_3  and  C_4
REMARK    3  A    between atoms: C_5  and  C_8
REMARK    4  A    between atoms: N_7  and  O_10
REMARK    5  A    between atoms: C_12  and  C_15
REMARK    6  A    between atoms: N_14  and  C_17
REMARK                            x       y       z     vdW  Elec       q    Type
REMARK                         _______ _______ _______ _____ _____    ______ ____
ROOT
ATOM      1  C   UNL     1      -5.699  14.654  13.525  0.00  0.00    +0.000 C 
ATOM      2  C   UNL     1      -6.448  14.117  14.749  0.00  0.00    +0.000 C 
ENDROOT
BRANCH   2   5
ATOM      3  O   UNL     1      -8.313  13.959  16.073  0.00  0.00    +0.000 OA
ATOM      4  N   UNL     1      -6.407  12.768  16.692  0.00  0.00    +0.000 N 
ATOM      5  C   UNL     1      -7.155  13.611  15.902  0.00  0.00    +0.000 C 
ATOM      6  H   UNL     1      -5.454  12.584  16.403  0.00  0.00    +0.000 HD
BRANCH   4   7
ATOM      7  C   UNL     1      -6.851  12.140  17.868  0.00  0.00    +0.000 A 
ATOM      8  C   UNL     1      -6.791  10.746  17.924  0.00  0.00    +0.000 A 
ATOM      9  C   UNL     1      -7.341  12.848  18.965  0.00  0.00    +0.000 A 
ATOM     10  C   UNL     1      -7.218  10.068  19.064  0.00  0.00    +0.000 A 
ATOM     11  C   UNL     1      -7.767  12.172  20.106  0.00  0.00    +0.000 A 
ATOM     12  C   UNL     1      -7.705  10.782  20.156  0.00  0.00    +0.000 A 
ENDBRANCH   4   7
ENDBRANCH   2   5
BRANCH   1  13
ATOM     13  C   UNL     1      -4.950  15.188  12.301  0.00  0.00    +0.000 C 
ATOM     14  C   UNL     1      -4.201  15.723  11.077  0.00  0.00    +0.000 C 
BRANCH  14  15
ATOM     15  C   UNL     1      -3.452  16.259   9.853  0.00  0.00    +0.000 C 
ATOM     16  C   UNL     1      -2.704  16.796   8.629  0.00  0.00    +0.000 C 
BRANCH  16  19
ATOM     17  O   UNL     1      -2.589  17.972   6.639  0.00  0.00    +0.000 OA
ATOM     18  N   UNL     1      -0.674  16.990   7.406  0.00  0.00    +0.000 N 
ATOM     19  C   UNL     1      -2.003  17.301   7.480  0.00  0.00    +0.000 C 
ATOM     20  H   UNL     1      -0.164  16.471   8.110  0.00  0.00    +0.000 HD
BRANCH  18  21
ATOM     21  O   UNL     1       0.057  17.496   6.309  0.00  0.00    +0.000 OA
ATOM     22  H   UNL     1       0.896  17.792   6.727  0.00  0.00    +0.000 HD
ENDBRANCH  18  21
ENDBRANCH  16  19
ENDBRANCH  14  15
ENDBRANCH   1  13
TORSDOF 6
ENDMDL
