MODEL 1
REMARK VINA RESULT:      -8.3      0.000      0.000
REMARK  Name = 10074640_Masitinib.pdbqt.pdb
REMARK  6 active torsions:
REMARK  status: ('A' for Active; 'I' for Inactive)
REMARK    1  A    between atoms: C_1  and  N_22
REMARK    2  A    between atoms: C_2  and  N_9
REMARK    3  A    between atoms: C_12  and  C_16
REMARK    4  A    between atoms: C_23  and  C_30
REMARK    5  A    between atoms: C_25  and  C_31
REMARK    6  A    between atoms: C_31  and  N_32
REMARK                            x       y       z     vdW  Elec       q    Type
REMARK                         _______ _______ _______ _____ _____    ______ ____
ROOT
ATOM      1  C   UNL     1      45.482  -8.875   7.756  0.00  0.00    +0.000 A 
ATOM      2  C   UNL     1      45.789 -11.155   6.915  0.00  0.00    +0.000 A 
ATOM      3  C   UNL     1      45.454 -10.259   7.939  0.00  0.00    +0.000 A 
ATOM      4  C   UNL     1      46.162 -10.602   5.674  0.00  0.00    +0.000 A 
ATOM      5  C   UNL     1      45.833  -8.362   6.509  0.00  0.00    +0.000 A 
ATOM      6  C   UNL     1      46.182  -9.222   5.472  0.00  0.00    +0.000 A 
ATOM      7  C   UNL     1      46.551 -11.499   4.516  0.00  0.00    +0.000 C 
ENDROOT
BRANCH   2   9
ATOM      8  S   UNL     1      46.166 -15.010   8.047  0.00  0.00    +0.000 S 
ATOM      9  N   UNL     1      45.717 -12.557   7.093  0.00  0.00    +0.000 N 
ATOM     10  N   UNL     1      46.853 -12.806   9.167  0.00  0.00    +0.000 NA
ATOM     11  C   UNL     1      46.259 -13.282   8.096  0.00  0.00    +0.000 A 
ATOM     12  C   UNL     1      47.298 -13.826   9.987  0.00  0.00    +0.000 A 
ATOM     13  C   UNL     1      47.006 -15.084   9.520  0.00  0.00    +0.000 A 
ATOM     14  H   UNL     1      45.174 -13.032   6.375  0.00  0.00    +0.000 HD
BRANCH  12  16
ATOM     15  N   UNL     1      50.016 -12.835  12.348  0.00  0.00    +0.000 NA
ATOM     16  C   UNL     1      47.991 -13.561  11.228  0.00  0.00    +0.000 A 
ATOM     17  C   UNL     1      47.369 -13.710  12.465  0.00  0.00    +0.000 A 
ATOM     18  C   UNL     1      49.310 -13.130  11.228  0.00  0.00    +0.000 A 
ATOM     19  C   UNL     1      48.061 -13.431  13.638  0.00  0.00    +0.000 A 
ATOM     20  C   UNL     1      49.372 -12.999  13.523  0.00  0.00    +0.000 A 
ENDBRANCH  12  16
ENDBRANCH   2   9
BRANCH   1  22
ATOM     21  O   UNL     1      43.031  -7.343   8.049  0.00  0.00    +0.000 OA
ATOM     22  N   UNL     1      45.147  -7.962   8.776  0.00  0.00    +0.000 N 
ATOM     23  C   UNL     1      43.971  -7.228   8.826  0.00  0.00    +0.000 C 
ATOM     24  H   UNL     1      45.815  -7.873   9.533  0.00  0.00    +0.000 HD
BRANCH  23  30
ATOM     25  C   UNL     1      43.678  -4.475  12.077  0.00  0.00    +0.000 A 
ATOM     26  C   UNL     1      42.854  -4.306  10.967  0.00  0.00    +0.000 A 
ATOM     27  C   UNL     1      44.589  -5.527  12.123  0.00  0.00    +0.000 A 
ATOM     28  C   UNL     1      42.941  -5.195   9.898  0.00  0.00    +0.000 A 
ATOM     29  C   UNL     1      44.675  -6.413  11.052  0.00  0.00    +0.000 A 
ATOM     30  C   UNL     1      43.853  -6.250   9.935  0.00  0.00    +0.000 A 
BRANCH  25  31
ATOM     31  C   UNL     1      43.588  -3.567  13.173  0.00  0.00    +0.000 C 
BRANCH  31  32
ATOM     32  N   UNL     1      43.494  -2.640  14.294  0.00  0.00    +0.000 N 
ATOM     33  N   UNL     1      43.645   0.804  13.443  0.00  0.00    +0.000 N 
ATOM     34  C   UNL     1      44.636  -1.692  14.167  0.00  0.00    +0.000 C 
ATOM     35  C   UNL     1      42.436  -1.649  13.948  0.00  0.00    +0.000 C 
ATOM     36  C   UNL     1      44.701  -0.181  13.803  0.00  0.00    +0.000 C 
ATOM     37  C   UNL     1      42.502  -0.139  13.583  0.00  0.00    +0.000 C 
ATOM     38  C   UNL     1      43.553   1.752  14.544  0.00  0.00    +0.000 C 
ENDBRANCH  31  32
ENDBRANCH  25  31
ENDBRANCH  23  30
ENDBRANCH   1  22
TORSDOF 6
ENDMDL
MODEL 2
REMARK VINA RESULT:      -7.5     32.523     37.737
REMARK  Name = 10074640_Masitinib.pdbqt.pdb
REMARK  6 active torsions:
REMARK  status: ('A' for Active; 'I' for Inactive)
REMARK    1  A    between atoms: C_1  and  N_22
REMARK    2  A    between atoms: C_2  and  N_9
REMARK    3  A    between atoms: C_12  and  C_16
REMARK    4  A    between atoms: C_23  and  C_30
REMARK    5  A    between atoms: C_25  and  C_31
REMARK    6  A    between atoms: C_31  and  N_32
REMARK                            x       y       z     vdW  Elec       q    Type
REMARK                         _______ _______ _______ _____ _____    ______ ____
ROOT
ATOM      1  C   UNL     1      16.480   2.997  25.812  0.00  0.00    +0.000 A 
ATOM      2  C   UNL     1      16.740   0.977  24.450  0.00  0.00    +0.000 A 
ATOM      3  C   UNL     1      15.944   1.880  25.168  0.00  0.00    +0.000 A 
ATOM      4  C   UNL     1      18.123   1.240  24.399  0.00  0.00    +0.000 A 
ATOM      5  C   UNL     1      17.849   3.241  25.722  0.00  0.00    +0.000 A 
ATOM      6  C   UNL     1      18.672   2.359  25.025  0.00  0.00    +0.000 A 
ATOM      7  C   UNL     1      19.058   0.309  23.654  0.00  0.00    +0.000 C 
ENDROOT
BRANCH   2   9
ATOM      8  S   UNL     1      14.447  -1.686  22.465  0.00  0.00    +0.000 S 
ATOM      9  N   UNL     1      16.186  -0.129  23.764  0.00  0.00    +0.000 N 
ATOM     10  N   UNL     1      14.180   0.826  22.913  0.00  0.00    +0.000 NA
ATOM     11  C   UNL     1      14.996  -0.183  23.125  0.00  0.00    +0.000 A 
ATOM     12  C   UNL     1      13.048   0.420  22.235  0.00  0.00    +0.000 A 
ATOM     13  C   UNL     1      13.036  -0.917  21.919  0.00  0.00    +0.000 A 
ATOM     14  H   UNL     1      16.787  -0.950  23.760  0.00  0.00    +0.000 HD
BRANCH  12  16
ATOM     15  N   UNL     1       9.873   2.371  22.465  0.00  0.00    +0.000 NA
ATOM     16  C   UNL     1      11.992   1.345  21.887  0.00  0.00    +0.000 A 
ATOM     17  C   UNL     1      12.044   2.120  20.732  0.00  0.00    +0.000 A 
ATOM     18  C   UNL     1      10.887   1.504  22.710  0.00  0.00    +0.000 A 
ATOM     19  C   UNL     1      11.019   3.011  20.436  0.00  0.00    +0.000 A 
ATOM     20  C   UNL     1       9.965   3.097  21.331  0.00  0.00    +0.000 A 
ENDBRANCH  12  16
ENDBRANCH   2   9
BRANCH   1  22
ATOM     21  O   UNL     1      15.377   5.523  24.893  0.00  0.00    +0.000 OA
ATOM     22  N   UNL     1      15.692   3.914  26.536  0.00  0.00    +0.000 N 
ATOM     23  C   UNL     1      15.237   5.128  26.045  0.00  0.00    +0.000 C 
ATOM     24  H   UNL     1      15.426   3.631  27.472  0.00  0.00    +0.000 HD
BRANCH  23  30
ATOM     25  C   UNL     1      13.064   7.535  28.822  0.00  0.00    +0.000 A 
ATOM     26  C   UNL     1      13.824   8.156  27.834  0.00  0.00    +0.000 A 
ATOM     27  C   UNL     1      13.017   6.147  28.904  0.00  0.00    +0.000 A 
ATOM     28  C   UNL     1      14.542   7.384  26.924  0.00  0.00    +0.000 A 
ATOM     29  C   UNL     1      13.736   5.376  27.993  0.00  0.00    +0.000 A 
ATOM     30  C   UNL     1      14.502   5.992  27.000  0.00  0.00    +0.000 A 
BRANCH  25  31
ATOM     31  C   UNL     1      12.328   8.326  29.754  0.00  0.00    +0.000 C 
BRANCH  31  32
ATOM     32  N   UNL     1      11.575   9.131  30.707  0.00  0.00    +0.000 N 
ATOM     33  N   UNL     1      13.295   9.956  33.701  0.00  0.00    +0.000 N 
ATOM     34  C   UNL     1      11.671   8.443  32.024  0.00  0.00    +0.000 C 
ATOM     35  C   UNL     1      12.441  10.286  31.075  0.00  0.00    +0.000 C 
ATOM     36  C   UNL     1      12.418   8.809  33.339  0.00  0.00    +0.000 C 
ATOM     37  C   UNL     1      13.188  10.651  32.390  0.00  0.00    +0.000 C 
ATOM     38  C   UNL     1      12.566  10.761  34.671  0.00  0.00    +0.000 C 
ENDBRANCH  31  32
ENDBRANCH  25  31
ENDBRANCH  23  30
ENDBRANCH   1  22
TORSDOF 6
ENDMDL
MODEL 3
REMARK VINA RESULT:      -7.4      2.032      2.379
REMARK  Name = 10074640_Masitinib.pdbqt.pdb
REMARK  6 active torsions:
REMARK  status: ('A' for Active; 'I' for Inactive)
REMARK    1  A    between atoms: C_1  and  N_22
REMARK    2  A    between atoms: C_2  and  N_9
REMARK    3  A    between atoms: C_12  and  C_16
REMARK    4  A    between atoms: C_23  and  C_30
REMARK    5  A    between atoms: C_25  and  C_31
REMARK    6  A    between atoms: C_31  and  N_32
REMARK                            x       y       z     vdW  Elec       q    Type
REMARK                         _______ _______ _______ _____ _____    ______ ____
ROOT
ATOM      1  C   UNL     1      46.515  -7.970   7.598  0.00  0.00    +0.000 A 
ATOM      2  C   UNL     1      48.209  -9.620   6.961  0.00  0.00    +0.000 A 
ATOM      3  C   UNL     1      47.754  -8.584   7.788  0.00  0.00    +0.000 A 
ATOM      4  C   UNL     1      47.359 -10.026   5.913  0.00  0.00    +0.000 A 
ATOM      5  C   UNL     1      45.689  -8.412   6.567  0.00  0.00    +0.000 A 
ATOM      6  C   UNL     1      46.113  -9.431   5.719  0.00  0.00    +0.000 A 
ATOM      7  C   UNL     1      47.778 -11.131   4.965  0.00  0.00    +0.000 C 
ENDROOT
BRANCH   2   9
ATOM      8  S   UNL     1      51.374 -11.707   8.346  0.00  0.00    +0.000 S 
ATOM      9  N   UNL     1      49.447 -10.268   7.184  0.00  0.00    +0.000 N 
ATOM     10  N   UNL     1      48.909 -11.632   9.058  0.00  0.00    +0.000 NA
ATOM     11  C   UNL     1      49.749 -11.134   8.178  0.00  0.00    +0.000 A 
ATOM     12  C   UNL     1      49.553 -12.480   9.938  0.00  0.00    +0.000 A 
ATOM     13  C   UNL     1      50.896 -12.628   9.690  0.00  0.00    +0.000 A 
ATOM     14  H   UNL     1      50.155 -10.047   6.488  0.00  0.00    +0.000 HD
BRANCH  12  16
ATOM     15  N   UNL     1      48.895 -14.092  13.241  0.00  0.00    +0.000 NA
ATOM     16  C   UNL     1      48.847 -13.152  11.006  0.00  0.00    +0.000 A 
ATOM     17  C   UNL     1      47.497 -13.474  10.907  0.00  0.00    +0.000 A 
ATOM     18  C   UNL     1      49.496 -13.489  12.186  0.00  0.00    +0.000 A 
ATOM     19  C   UNL     1      46.845 -14.106  11.961  0.00  0.00    +0.000 A 
ATOM     20  C   UNL     1      47.586 -14.389  13.096  0.00  0.00    +0.000 A 
ENDBRANCH  12  16
ENDBRANCH   2   9
BRANCH   1  22
ATOM     21  O   UNL     1      44.167  -7.968   9.310  0.00  0.00    +0.000 OA
ATOM     22  N   UNL     1      46.043  -6.929   8.422  0.00  0.00    +0.000 N 
ATOM     23  C   UNL     1      44.883  -6.982   9.180  0.00  0.00    +0.000 C 
ATOM     24  H   UNL     1      46.626  -6.101   8.472  0.00  0.00    +0.000 HD
BRANCH  23  30
ATOM     25  C   UNL     1      43.906  -3.414  11.312  0.00  0.00    +0.000 A 
ATOM     26  C   UNL     1      42.882  -4.169  10.746  0.00  0.00    +0.000 A 
ATOM     27  C   UNL     1      45.232  -3.816  11.180  0.00  0.00    +0.000 A 
ATOM     28  C   UNL     1      43.186  -5.334  10.045  0.00  0.00    +0.000 A 
ATOM     29  C   UNL     1      45.534  -4.980  10.477  0.00  0.00    +0.000 A 
ATOM     30  C   UNL     1      44.512  -5.743   9.906  0.00  0.00    +0.000 A 
BRANCH  25  31
ATOM     31  C   UNL     1      43.595  -2.222  12.031  0.00  0.00    +0.000 C 
BRANCH  31  32
ATOM     32  N   UNL     1      43.275  -1.004  12.765  0.00  0.00    +0.000 N 
ATOM     33  N   UNL     1      46.043   1.081  13.539  0.00  0.00    +0.000 N 
ATOM     34  C   UNL     1      44.190  -0.954  13.939  0.00  0.00    +0.000 C 
ATOM     35  C   UNL     1      43.913   0.124  12.028  0.00  0.00    +0.000 C 
ATOM     36  C   UNL     1      45.397  -0.035  14.282  0.00  0.00    +0.000 C 
ATOM     37  C   UNL     1      45.120   1.042  12.371  0.00  0.00    +0.000 C 
ATOM     38  C   UNL     1      45.752   2.306  14.271  0.00  0.00    +0.000 C 
ENDBRANCH  31  32
ENDBRANCH  25  31
ENDBRANCH  23  30
ENDBRANCH   1  22
TORSDOF 6
ENDMDL
MODEL 4
REMARK VINA RESULT:      -6.9     40.037     43.940
REMARK  Name = 10074640_Masitinib.pdbqt.pdb
REMARK  6 active torsions:
REMARK  status: ('A' for Active; 'I' for Inactive)
REMARK    1  A    between atoms: C_1  and  N_22
REMARK    2  A    between atoms: C_2  and  N_9
REMARK    3  A    between atoms: C_12  and  C_16
REMARK    4  A    between atoms: C_23  and  C_30
REMARK    5  A    between atoms: C_25  and  C_31
REMARK    6  A    between atoms: C_31  and  N_32
REMARK                            x       y       z     vdW  Elec       q    Type
REMARK                         _______ _______ _______ _____ _____    ______ ____
ROOT
ATOM      1  C   UNL     1      24.723  21.991  31.255  0.00  0.00    +0.000 A 
ATOM      2  C   UNL     1      24.731  19.549  31.060  0.00  0.00    +0.000 A 
ATOM      3  C   UNL     1      24.279  20.812  30.654  0.00  0.00    +0.000 A 
ATOM      4  C   UNL     1      25.663  19.510  32.116  0.00  0.00    +0.000 A 
ATOM      5  C   UNL     1      25.663  21.918  32.280  0.00  0.00    +0.000 A 
ATOM      6  C   UNL     1      26.126  20.680  32.718  0.00  0.00    +0.000 A 
ATOM      7  C   UNL     1      26.195  18.186  32.627  0.00  0.00    +0.000 C 
ENDROOT
BRANCH   2   9
ATOM      8  S   UNL     1      22.884  16.187  29.805  0.00  0.00    +0.000 S 
ATOM      9  N   UNL     1      24.311  18.360  30.419  0.00  0.00    +0.000 N 
ATOM     10  N   UNL     1      22.115  18.123  31.303  0.00  0.00    +0.000 NA
ATOM     11  C   UNL     1      23.140  17.707  30.592  0.00  0.00    +0.000 A 
ATOM     12  C   UNL     1      21.081  17.207  31.273  0.00  0.00    +0.000 A 
ATOM     13  C   UNL     1      21.341  16.098  30.504  0.00  0.00    +0.000 A 
ATOM     14  H   UNL     1      24.984  17.999  29.747  0.00  0.00    +0.000 HD
BRANCH  12  16
ATOM     15  N   UNL     1      17.768  16.521  32.853  0.00  0.00    +0.000 NA
ATOM     16  C   UNL     1      19.842  17.430  31.983  0.00  0.00    +0.000 A 
ATOM     17  C   UNL     1      19.512  18.673  32.515  0.00  0.00    +0.000 A 
ATOM     18  C   UNL     1      18.936  16.396  32.174  0.00  0.00    +0.000 A 
ATOM     19  C   UNL     1      18.318  18.847  33.207  0.00  0.00    +0.000 A 
ATOM     20  C   UNL     1      17.490  17.747  33.347  0.00  0.00    +0.000 A 
ENDBRANCH  12  16
ENDBRANCH   2   9
BRANCH   1  22
ATOM     21  O   UNL     1      22.453  23.493  32.271  0.00  0.00    +0.000 OA
ATOM     22  N   UNL     1      24.279  23.267  30.856  0.00  0.00    +0.000 N 
ATOM     23  C   UNL     1      23.153  23.906  31.354  0.00  0.00    +0.000 C 
ATOM     24  H   UNL     1      24.855  23.747  30.174  0.00  0.00    +0.000 HD
BRANCH  23  30
ATOM     25  C   UNL     1      22.057  27.612  29.539  0.00  0.00    +0.000 A 
ATOM     26  C   UNL     1      23.403  27.340  29.770  0.00  0.00    +0.000 A 
ATOM     27  C   UNL     1      21.081  26.687  29.901  0.00  0.00    +0.000 A 
ATOM     28  C   UNL     1      23.775  26.137  30.365  0.00  0.00    +0.000 A 
ATOM     29  C   UNL     1      21.455  25.485  30.496  0.00  0.00    +0.000 A 
ATOM     30  C   UNL     1      22.803  25.206  30.732  0.00  0.00    +0.000 A 
BRANCH  25  31
ATOM     31  C   UNL     1      21.675  28.843  28.929  0.00  0.00    +0.000 C 
BRANCH  31  32
ATOM     32  N   UNL     1      21.286  30.101  28.303  0.00  0.00    +0.000 N 
ATOM     33  N   UNL     1      21.808  30.285  24.797  0.00  0.00    +0.000 N 
ATOM     34  C   UNL     1      22.448  30.555  27.490  0.00  0.00    +0.000 C 
ATOM     35  C   UNL     1      20.415  29.756  27.145  0.00  0.00    +0.000 C 
ATOM     36  C   UNL     1      22.673  30.644  25.953  0.00  0.00    +0.000 C 
ATOM     37  C   UNL     1      20.641  29.844  25.609  0.00  0.00    +0.000 C 
ATOM     38  C   UNL     1      21.428  31.531  24.145  0.00  0.00    +0.000 C 
ENDBRANCH  31  32
ENDBRANCH  25  31
ENDBRANCH  23  30
ENDBRANCH   1  22
TORSDOF 6
ENDMDL
MODEL 5
REMARK VINA RESULT:      -6.8      4.335      5.919
REMARK  Name = 10074640_Masitinib.pdbqt.pdb
REMARK  6 active torsions:
REMARK  status: ('A' for Active; 'I' for Inactive)
REMARK    1  A    between atoms: C_1  and  N_22
REMARK    2  A    between atoms: C_2  and  N_9
REMARK    3  A    between atoms: C_12  and  C_16
REMARK    4  A    between atoms: C_23  and  C_30
REMARK    5  A    between atoms: C_25  and  C_31
REMARK    6  A    between atoms: C_31  and  N_32
REMARK                            x       y       z     vdW  Elec       q    Type
REMARK                         _______ _______ _______ _____ _____    ______ ____
ROOT
ATOM      1  C   UNL     1      46.585  -8.335   7.485  0.00  0.00    +0.000 A 
ATOM      2  C   UNL     1      48.386  -9.720   6.569  0.00  0.00    +0.000 A 
ATOM      3  C   UNL     1      47.874  -8.868   7.556  0.00  0.00    +0.000 A 
ATOM      4  C   UNL     1      47.542 -10.024   5.482  0.00  0.00    +0.000 A 
ATOM      5  C   UNL     1      45.768  -8.675   6.410  0.00  0.00    +0.000 A 
ATOM      6  C   UNL     1      46.247  -9.510   5.404  0.00  0.00    +0.000 A 
ATOM      7  C   UNL     1      48.020 -10.928   4.364  0.00  0.00    +0.000 C 
ENDROOT
BRANCH   2   9
ATOM      8  S   UNL     1      52.271 -10.765   6.243  0.00  0.00    +0.000 S 
ATOM      9  N   UNL     1      49.677 -10.291   6.667  0.00  0.00    +0.000 N 
ATOM     10  N   UNL     1      50.969  -8.694   5.468  0.00  0.00    +0.000 NA
ATOM     11  C   UNL     1      50.819  -9.832   6.109  0.00  0.00    +0.000 A 
ATOM     12  C   UNL     1      52.266  -8.540   5.020  0.00  0.00    +0.000 A 
ATOM     13  C   UNL     1      53.100  -9.579   5.357  0.00  0.00    +0.000 A 
ATOM     14  H   UNL     1      49.709 -11.128   7.245  0.00  0.00    +0.000 HD
BRANCH  12  16
ATOM     15  N   UNL     1      54.312  -6.330   2.813  0.00  0.00    +0.000 NA
ATOM     16  C   UNL     1      52.686  -7.371   4.280  0.00  0.00    +0.000 A 
ATOM     17  C   UNL     1      51.923  -6.207   4.249  0.00  0.00    +0.000 A 
ATOM     18  C   UNL     1      53.868  -7.376   3.554  0.00  0.00    +0.000 A 
ATOM     19  C   UNL     1      52.349  -5.107   3.512  0.00  0.00    +0.000 A 
ATOM     20  C   UNL     1      53.541  -5.222   2.817  0.00  0.00    +0.000 A 
ENDBRANCH  12  16
ENDBRANCH   2   9
BRANCH   1  22
ATOM     21  O   UNL     1      43.793  -7.762   8.045  0.00  0.00    +0.000 OA
ATOM     22  N   UNL     1      46.057  -7.479   8.472  0.00  0.00    +0.000 N 
ATOM     23  C   UNL     1      44.707  -7.216   8.652  0.00  0.00    +0.000 C 
ATOM     24  H   UNL     1      46.728  -7.057   9.104  0.00  0.00    +0.000 HD
BRANCH  23  30
ATOM     25  C   UNL     1      43.796  -4.351  11.684  0.00  0.00    +0.000 A 
ATOM     26  C   UNL     1      42.834  -4.652  10.723  0.00  0.00    +0.000 A 
ATOM     27  C   UNL     1      45.039  -4.975  11.653  0.00  0.00    +0.000 A 
ATOM     28  C   UNL     1      43.119  -5.582   9.725  0.00  0.00    +0.000 A 
ATOM     29  C   UNL     1      45.323  -5.904  10.655  0.00  0.00    +0.000 A 
ATOM     30  C   UNL     1      44.364  -6.209   9.686  0.00  0.00    +0.000 A 
BRANCH  25  31
ATOM     31  C   UNL     1      43.504  -3.400  12.707  0.00  0.00    +0.000 C 
BRANCH  31  32
ATOM     32  N   UNL     1      43.209  -2.429  13.753  0.00  0.00    +0.000 N 
ATOM     33  N   UNL     1      44.857   0.700  13.439  0.00  0.00    +0.000 N 
ATOM     34  C   UNL     1      44.517  -1.934  14.264  0.00  0.00    +0.000 C 
ATOM     35  C   UNL     1      42.824  -1.162  13.069  0.00  0.00    +0.000 C 
ATOM     36  C   UNL     1      45.235  -0.560  14.134  0.00  0.00    +0.000 C 
ATOM     37  C   UNL     1      43.542   0.211  12.939  0.00  0.00    +0.000 C 
ATOM     38  C   UNL     1      44.579   1.689  14.470  0.00  0.00    +0.000 C 
ENDBRANCH  31  32
ENDBRANCH  25  31
ENDBRANCH  23  30
ENDBRANCH   1  22
TORSDOF 6
ENDMDL
MODEL 6
REMARK VINA RESULT:      -6.7     27.575     32.615
REMARK  Name = 10074640_Masitinib.pdbqt.pdb
REMARK  6 active torsions:
REMARK  status: ('A' for Active; 'I' for Inactive)
REMARK    1  A    between atoms: C_1  and  N_22
REMARK    2  A    between atoms: C_2  and  N_9
REMARK    3  A    between atoms: C_12  and  C_16
REMARK    4  A    between atoms: C_23  and  C_30
REMARK    5  A    between atoms: C_25  and  C_31
REMARK    6  A    between atoms: C_31  and  N_32
REMARK                            x       y       z     vdW  Elec       q    Type
REMARK                         _______ _______ _______ _____ _____    ______ ____
ROOT
ATOM      1  C   UNL     1      23.703   0.467  32.851  0.00  0.00    +0.000 A 
ATOM      2  C   UNL     1      24.652  -1.070  31.197  0.00  0.00    +0.000 A 
ATOM      3  C   UNL     1      24.633   0.167  31.854  0.00  0.00    +0.000 A 
ATOM      4  C   UNL     1      23.682  -2.017  31.582  0.00  0.00    +0.000 A 
ATOM      5  C   UNL     1      22.773  -0.500  33.224  0.00  0.00    +0.000 A 
ATOM      6  C   UNL     1      22.754  -1.737  32.585  0.00  0.00    +0.000 A 
ATOM      7  C   UNL     1      23.623  -3.376  30.914  0.00  0.00    +0.000 C 
ENDROOT
BRANCH   2   9
ATOM      8  S   UNL     1      27.897  -2.215  29.087  0.00  0.00    +0.000 S 
ATOM      9  N   UNL     1      25.624  -1.385  30.218  0.00  0.00    +0.000 N 
ATOM     10  N   UNL     1      27.165  -2.658  31.507  0.00  0.00    +0.000 NA
ATOM     11  C   UNL     1      26.781  -2.058  30.402  0.00  0.00    +0.000 A 
ATOM     12  C   UNL     1      28.406  -3.245  31.351  0.00  0.00    +0.000 A 
ATOM     13  C   UNL     1      28.942  -3.093  30.095  0.00  0.00    +0.000 A 
ATOM     14  H   UNL     1      25.379  -1.067  29.282  0.00  0.00    +0.000 HD
BRANCH  12  16
ATOM     15  N   UNL     1      29.271  -4.354  34.810  0.00  0.00    +0.000 NA
ATOM     16  C   UNL     1      29.052  -3.963  32.427  0.00  0.00    +0.000 A 
ATOM     17  C   UNL     1      30.005  -4.949  32.186  0.00  0.00    +0.000 A 
ATOM     18  C   UNL     1      28.729  -3.702  33.751  0.00  0.00    +0.000 A 
ATOM     19  C   UNL     1      30.594  -5.632  33.244  0.00  0.00    +0.000 A 
ATOM     20  C   UNL     1      30.193  -5.298  34.526  0.00  0.00    +0.000 A 
ENDBRANCH  12  16
ENDBRANCH   2   9
BRANCH   1  22
ATOM     21  O   UNL     1      23.686   0.950  35.715  0.00  0.00    +0.000 OA
ATOM     22  N   UNL     1      23.674   1.706  33.521  0.00  0.00    +0.000 N 
ATOM     23  C   UNL     1      23.619   1.860  34.899  0.00  0.00    +0.000 C 
ATOM     24  H   UNL     1      23.726   2.532  32.936  0.00  0.00    +0.000 HD
BRANCH  23  30
ATOM     25  C   UNL     1      23.311   5.895  36.261  0.00  0.00    +0.000 A 
ATOM     26  C   UNL     1      23.228   4.857  37.187  0.00  0.00    +0.000 A 
ATOM     27  C   UNL     1      23.487   5.618  34.909  0.00  0.00    +0.000 A 
ATOM     28  C   UNL     1      23.324   3.536  36.756  0.00  0.00    +0.000 A 
ATOM     29  C   UNL     1      23.581   4.297  34.480  0.00  0.00    +0.000 A 
ATOM     30  C   UNL     1      23.498   3.250  35.402  0.00  0.00    +0.000 A 
BRANCH  25  31
ATOM     31  C   UNL     1      23.214   7.248  36.702  0.00  0.00    +0.000 C 
BRANCH  31  32
ATOM     32  N   UNL     1      23.115   8.630  37.154  0.00  0.00    +0.000 N 
ATOM     33  N   UNL     1      22.896  11.066  34.581  0.00  0.00    +0.000 N 
ATOM     34  C   UNL     1      24.156   9.401  36.419  0.00  0.00    +0.000 C 
ATOM     35  C   UNL     1      21.951   9.234  36.447  0.00  0.00    +0.000 C 
ATOM     36  C   UNL     1      24.059  10.475  35.297  0.00  0.00    +0.000 C 
ATOM     37  C   UNL     1      21.855  10.306  35.325  0.00  0.00    +0.000 C 
ATOM     38  C   UNL     1      22.796  12.455  35.005  0.00  0.00    +0.000 C 
ENDBRANCH  31  32
ENDBRANCH  25  31
ENDBRANCH  23  30
ENDBRANCH   1  22
TORSDOF 6
ENDMDL
MODEL 7
REMARK VINA RESULT:      -6.7     29.117     34.775
REMARK  Name = 10074640_Masitinib.pdbqt.pdb
REMARK  6 active torsions:
REMARK  status: ('A' for Active; 'I' for Inactive)
REMARK    1  A    between atoms: C_1  and  N_22
REMARK    2  A    between atoms: C_2  and  N_9
REMARK    3  A    between atoms: C_12  and  C_16
REMARK    4  A    between atoms: C_23  and  C_30
REMARK    5  A    between atoms: C_25  and  C_31
REMARK    6  A    between atoms: C_31  and  N_32
REMARK                            x       y       z     vdW  Elec       q    Type
REMARK                         _______ _______ _______ _____ _____    ______ ____
ROOT
ATOM      1  C   UNL     1      22.534   1.588  36.093  0.00  0.00    +0.000 A 
ATOM      2  C   UNL     1      23.351  -0.717  35.961  0.00  0.00    +0.000 A 
ATOM      3  C   UNL     1      23.567   0.666  35.911  0.00  0.00    +0.000 A 
ATOM      4  C   UNL     1      22.034  -1.154  36.203  0.00  0.00    +0.000 A 
ATOM      5  C   UNL     1      21.248   1.123  36.354  0.00  0.00    +0.000 A 
ATOM      6  C   UNL     1      20.994  -0.245  36.399  0.00  0.00    +0.000 A 
ATOM      7  C   UNL     1      21.709  -2.633  36.260  0.00  0.00    +0.000 C 
ENDROOT
BRANCH   2   9
ATOM      8  S   UNL     1      26.341  -3.131  34.724  0.00  0.00    +0.000 S 
ATOM      9  N   UNL     1      24.409  -1.647  35.819  0.00  0.00    +0.000 N 
ATOM     10  N   UNL     1      25.188  -1.113  33.636  0.00  0.00    +0.000 NA
ATOM     11  C   UNL     1      25.187  -1.840  34.731  0.00  0.00    +0.000 A 
ATOM     12  C   UNL     1      26.103  -1.592  32.718  0.00  0.00    +0.000 A 
ATOM     13  C   UNL     1      26.810  -2.686  33.155  0.00  0.00    +0.000 A 
ATOM     14  H   UNL     1      24.583  -2.198  36.657  0.00  0.00    +0.000 HD
BRANCH  12  16
ATOM     15  N   UNL     1      27.415  -0.964  29.279  0.00  0.00    +0.000 NA
ATOM     16  C   UNL     1      26.291  -0.967  31.428  0.00  0.00    +0.000 A 
ATOM     17  C   UNL     1      25.560   0.151  31.039  0.00  0.00    +0.000 A 
ATOM     18  C   UNL     1      27.205  -1.478  30.517  0.00  0.00    +0.000 A 
ATOM     19  C   UNL     1      25.754   0.717  29.783  0.00  0.00    +0.000 A 
ATOM     20  C   UNL     1      26.686   0.123  28.949  0.00  0.00    +0.000 A 
ENDBRANCH  12  16
ENDBRANCH   2   9
BRANCH   1  22
ATOM     21  O   UNL     1      23.712   3.291  38.131  0.00  0.00    +0.000 OA
ATOM     22  N   UNL     1      22.737   2.982  36.047  0.00  0.00    +0.000 N 
ATOM     23  C   UNL     1      23.265   3.740  37.082  0.00  0.00    +0.000 C 
ATOM     24  H   UNL     1      22.500   3.439  35.174  0.00  0.00    +0.000 HD
BRANCH  23  30
ATOM     25  C   UNL     1      23.416   7.948  36.375  0.00  0.00    +0.000 A 
ATOM     26  C   UNL     1      23.392   7.480  37.687  0.00  0.00    +0.000 A 
ATOM     27  C   UNL     1      23.386   7.054  35.309  0.00  0.00    +0.000 A 
ATOM     28  C   UNL     1      23.340   6.109  37.932  0.00  0.00    +0.000 A 
ATOM     29  C   UNL     1      23.332   5.684  35.556  0.00  0.00    +0.000 A 
ATOM     30  C   UNL     1      23.307   5.207  36.869  0.00  0.00    +0.000 A 
BRANCH  25  31
ATOM     31  C   UNL     1      23.471   9.351  36.123  0.00  0.00    +0.000 C 
BRANCH  31  32
ATOM     32  N   UNL     1      23.530  10.784  35.864  0.00  0.00    +0.000 N 
ATOM     33  N   UNL     1      21.997  11.851  32.844  0.00  0.00    +0.000 N 
ATOM     34  C   UNL     1      24.058  10.951  34.481  0.00  0.00    +0.000 C 
ATOM     35  C   UNL     1      22.141  11.223  35.550  0.00  0.00    +0.000 C 
ATOM     36  C   UNL     1      23.388  11.427  33.160  0.00  0.00    +0.000 C 
ATOM     37  C   UNL     1      21.472  11.698  34.229  0.00  0.00    +0.000 C 
ATOM     38  C   UNL     1      22.040  13.278  32.560  0.00  0.00    +0.000 C 
ENDBRANCH  31  32
ENDBRANCH  25  31
ENDBRANCH  23  30
ENDBRANCH   1  22
TORSDOF 6
ENDMDL
MODEL 8
REMARK VINA RESULT:      -6.6     29.927     34.077
REMARK  Name = 10074640_Masitinib.pdbqt.pdb
REMARK  6 active torsions:
REMARK  status: ('A' for Active; 'I' for Inactive)
REMARK    1  A    between atoms: C_1  and  N_22
REMARK    2  A    between atoms: C_2  and  N_9
REMARK    3  A    between atoms: C_12  and  C_16
REMARK    4  A    between atoms: C_23  and  C_30
REMARK    5  A    between atoms: C_25  and  C_31
REMARK    6  A    between atoms: C_31  and  N_32
REMARK                            x       y       z     vdW  Elec       q    Type
REMARK                         _______ _______ _______ _____ _____    ______ ____
ROOT
ATOM      1  C   UNL     1      28.741  16.567  -8.732  0.00  0.00    +0.000 A 
ATOM      2  C   UNL     1      27.536  14.438  -8.848  0.00  0.00    +0.000 A 
ATOM      3  C   UNL     1      28.189  15.441  -8.119  0.00  0.00    +0.000 A 
ATOM      4  C   UNL     1      27.455  14.608 -10.244  0.00  0.00    +0.000 A 
ATOM      5  C   UNL     1      28.623  16.716 -10.112  0.00  0.00    +0.000 A 
ATOM      6  C   UNL     1      27.990  15.734 -10.870  0.00  0.00    +0.000 A 
ATOM      7  C   UNL     1      26.776  13.566 -11.110  0.00  0.00    +0.000 C 
ENDROOT
BRANCH   2   9
ATOM      8  S   UNL     1      26.646  10.942  -7.040  0.00  0.00    +0.000 S 
ATOM      9  N   UNL     1      26.940  13.320  -8.217  0.00  0.00    +0.000 N 
ATOM     10  N   UNL     1      28.867  12.165  -7.435  0.00  0.00    +0.000 NA
ATOM     11  C   UNL     1      27.572  12.277  -7.634  0.00  0.00    +0.000 A 
ATOM     12  C   UNL     1      29.176  10.967  -6.820  0.00  0.00    +0.000 A 
ATOM     13  C   UNL     1      28.081  10.186  -6.540  0.00  0.00    +0.000 A 
ATOM     14  H   UNL     1      25.923  13.352  -8.206  0.00  0.00    +0.000 HD
BRANCH  12  16
ATOM     15  N   UNL     1      32.071   8.980  -5.551  0.00  0.00    +0.000 NA
ATOM     16  C   UNL     1      30.537  10.602  -6.498  0.00  0.00    +0.000 A 
ATOM     17  C   UNL     1      31.615  11.420  -6.824  0.00  0.00    +0.000 A 
ATOM     18  C   UNL     1      30.819   9.403  -5.859  0.00  0.00    +0.000 A 
ATOM     19  C   UNL     1      32.913  11.030  -6.513  0.00  0.00    +0.000 A 
ATOM     20  C   UNL     1      33.083   9.809  -5.883  0.00  0.00    +0.000 A 
ENDBRANCH  12  16
ENDBRANCH   2   9
BRANCH   1  22
ATOM     21  O   UNL     1      31.567  17.240  -8.766  0.00  0.00    +0.000 OA
ATOM     22  N   UNL     1      29.399  17.584  -8.012  0.00  0.00    +0.000 N 
ATOM     23  C   UNL     1      30.766  17.818  -8.042  0.00  0.00    +0.000 C 
ATOM     24  H   UNL     1      28.807  18.195  -7.461  0.00  0.00    +0.000 HD
BRANCH  23  30
ATOM     25  C   UNL     1      32.142  20.921  -5.450  0.00  0.00    +0.000 A 
ATOM     26  C   UNL     1      33.052  19.979  -5.926  0.00  0.00    +0.000 A 
ATOM     27  C   UNL     1      30.800  20.847  -5.813  0.00  0.00    +0.000 A 
ATOM     28  C   UNL     1      32.616  18.959  -6.770  0.00  0.00    +0.000 A 
ATOM     29  C   UNL     1      30.366  19.826  -6.655  0.00  0.00    +0.000 A 
ATOM     30  C   UNL     1      31.273  18.877  -7.135  0.00  0.00    +0.000 A 
BRANCH  25  31
ATOM     31  C   UNL     1      32.587  21.966  -4.588  0.00  0.00    +0.000 C 
BRANCH  31  32
ATOM     32  N   UNL     1      33.044  23.035  -3.709  0.00  0.00    +0.000 N 
ATOM     33  N   UNL     1      31.969  26.301  -4.594  0.00  0.00    +0.000 N 
ATOM     34  C   UNL     1      33.646  24.082  -4.580  0.00  0.00    +0.000 C 
ATOM     35  C   UNL     1      31.840  23.827  -3.331  0.00  0.00    +0.000 C 
ATOM     36  C   UNL     1      33.179  25.517  -4.961  0.00  0.00    +0.000 C 
ATOM     37  C   UNL     1      31.373  25.260  -3.712  0.00  0.00    +0.000 C 
ATOM     38  C   UNL     1      32.410  27.388  -3.732  0.00  0.00    +0.000 C 
ENDBRANCH  31  32
ENDBRANCH  25  31
ENDBRANCH  23  30
ENDBRANCH   1  22
TORSDOF 6
ENDMDL
MODEL 9
REMARK VINA RESULT:      -6.5     46.242     47.705
REMARK  Name = 10074640_Masitinib.pdbqt.pdb
REMARK  6 active torsions:
REMARK  status: ('A' for Active; 'I' for Inactive)
REMARK    1  A    between atoms: C_1  and  N_22
REMARK    2  A    between atoms: C_2  and  N_9
REMARK    3  A    between atoms: C_12  and  C_16
REMARK    4  A    between atoms: C_23  and  C_30
REMARK    5  A    between atoms: C_25  and  C_31
REMARK    6  A    between atoms: C_31  and  N_32
REMARK                            x       y       z     vdW  Elec       q    Type
REMARK                         _______ _______ _______ _____ _____    ______ ____
ROOT
ATOM      1  C   UNL     1      27.293  31.874  24.844  0.00  0.00    +0.000 A 
ATOM      2  C   UNL     1      26.402  30.373  26.562  0.00  0.00    +0.000 A 
ATOM      3  C   UNL     1      26.321  30.984  25.303  0.00  0.00    +0.000 A 
ATOM      4  C   UNL     1      27.516  30.695  27.362  0.00  0.00    +0.000 A 
ATOM      5  C   UNL     1      28.394  32.153  25.650  0.00  0.00    +0.000 A 
ATOM      6  C   UNL     1      28.502  31.573  26.911  0.00  0.00    +0.000 A 
ATOM      7  C   UNL     1      27.677  30.089  28.741  0.00  0.00    +0.000 C 
ENDROOT
BRANCH   2   9
ATOM      8  S   UNL     1      23.096  28.211  27.389  0.00  0.00    +0.000 S 
ATOM      9  N   UNL     1      25.437  29.438  27.005  0.00  0.00    +0.000 N 
ATOM     10  N   UNL     1      23.574  30.041  25.654  0.00  0.00    +0.000 NA
ATOM     11  C   UNL     1      24.145  29.349  26.615  0.00  0.00    +0.000 A 
ATOM     12  C   UNL     1      22.240  29.705  25.524  0.00  0.00    +0.000 A 
ATOM     13  C   UNL     1      21.822  28.728  26.394  0.00  0.00    +0.000 A 
ATOM     14  H   UNL     1      25.799  28.765  27.677  0.00  0.00    +0.000 HD
BRANCH  12  16
ATOM     15  N   UNL     1      19.689  30.090  22.824  0.00  0.00    +0.000 NA
ATOM     16  C   UNL     1      21.387  30.332  24.538  0.00  0.00    +0.000 A 
ATOM     17  C   UNL     1      21.368  31.711  24.352  0.00  0.00    +0.000 A 
ATOM     18  C   UNL     1      20.538  29.572  23.747  0.00  0.00    +0.000 A 
ATOM     19  C   UNL     1      20.523  32.282  23.407  0.00  0.00    +0.000 A 
ATOM     20  C   UNL     1      19.710  31.432  22.676  0.00  0.00    +0.000 A 
ENDBRANCH  12  16
ENDBRANCH   2   9
BRANCH   1  22
ATOM     21  O   UNL     1      25.761  34.223  24.085  0.00  0.00    +0.000 OA
ATOM     22  N   UNL     1      27.225  32.494  23.580  0.00  0.00    +0.000 N 
ATOM     23  C   UNL     1      26.432  33.591  23.278  0.00  0.00    +0.000 C 
ATOM     24  H   UNL     1      27.830  32.112  22.862  0.00  0.00    +0.000 HD
BRANCH  23  30
ATOM     25  C   UNL     1      26.526  34.834  19.194  0.00  0.00    +0.000 A 
ATOM     26  C   UNL     1      25.520  35.317  20.028  0.00  0.00    +0.000 A 
ATOM     27  C   UNL     1      27.485  33.955  19.686  0.00  0.00    +0.000 A 
ATOM     28  C   UNL     1      25.475  34.917  21.362  0.00  0.00    +0.000 A 
ATOM     29  C   UNL     1      27.438  33.555  21.019  0.00  0.00    +0.000 A 
ATOM     30  C   UNL     1      26.431  34.034  21.862  0.00  0.00    +0.000 A 
BRANCH  25  31
ATOM     31  C   UNL     1      26.573  35.245  17.829  0.00  0.00    +0.000 C 
BRANCH  31  32
ATOM     32  N   UNL     1      26.623  35.666  16.434  0.00  0.00    +0.000 N 
ATOM     33  N   UNL     1      24.567  33.817  14.208  0.00  0.00    +0.000 N 
ATOM     34  C   UNL     1      26.878  34.444  15.623  0.00  0.00    +0.000 C 
ATOM     35  C   UNL     1      25.213  35.852  15.989  0.00  0.00    +0.000 C 
ATOM     36  C   UNL     1      25.980  33.639  14.640  0.00  0.00    +0.000 C 
ATOM     37  C   UNL     1      24.315  35.047  15.007  0.00  0.00    +0.000 C 
ATOM     38  C   UNL     1      24.597  34.217  12.808  0.00  0.00    +0.000 C 
ENDBRANCH  31  32
ENDBRANCH  25  31
ENDBRANCH  23  30
ENDBRANCH   1  22
TORSDOF 6
ENDMDL
