MODEL 1
REMARK VINA RESULT:      -6.1      0.000      0.000
REMARK  Name = 101808841_CandidaspongiolideA.pdbqt.pdb
REMARK  13 active torsions:
REMARK  status: ('A' for Active; 'I' for Inactive)
REMARK    1  A    between atoms: C_6  and  C_39
REMARK    2  A    between atoms: C_9  and  O_27
REMARK    3  A    between atoms: C_9  and  C_51
REMARK    4  A    between atoms: C_10  and  O_29
REMARK    5  A    between atoms: C_14  and  O_31
REMARK    6  A    between atoms: C_15  and  O_33
REMARK    7  A    between atoms: C_20  and  O_35
REMARK    8  A    between atoms: O_35  and  C_37
REMARK    9  A    between atoms: C_39  and  C_41
REMARK   10  A    between atoms: C_39  and  O_49
REMARK   11  A    between atoms: C_42  and  C_44
REMARK   12  A    between atoms: C_44  and  C_46
REMARK   13  A    between atoms: C_51  and  O_52
REMARK                            x       y       z     vdW  Elec       q    Type
REMARK                         _______ _______ _______ _____ _____    ______ ____
ROOT
ATOM      1  O   UNL     1      24.203  -5.964  13.583  0.00  0.00    +0.000 OA
ATOM      2  O   UNL     1      27.458  -4.341  11.570  0.00  0.00    +0.000 OA
ATOM      3  O   UNL     1      22.657  -5.089  12.111  0.00  0.00    +0.000 OA
ATOM      4  O   UNL     1      29.685  -5.086  17.733  0.00  0.00    +0.000 OA
ATOM      5  O   UNL     1      25.383  -7.937  15.258  0.00  0.00    +0.000 OA
ATOM      6  C   UNL     1      25.915  -3.831  13.274  0.00  0.00    +0.000 C 
ATOM      7  C   UNL     1      27.286  -4.170  12.778  0.00  0.00    +0.000 C 
ATOM      8  C   UNL     1      24.997  -4.905  13.444  0.00  0.00    +0.000 C 
ATOM      9  C   UNL     1      28.376  -4.374  13.865  0.00  0.00    +0.000 C 
ATOM     10  C   UNL     1      28.185  -5.706  14.569  0.00  0.00    +0.000 C 
ATOM     11  C   UNL     1      28.545  -5.917  15.933  0.00  0.00    +0.000 C 
ATOM     12  C   UNL     1      23.103  -6.001  12.794  0.00  0.00    +0.000 C 
ATOM     13  C   UNL     1      28.962  -5.988  17.324  0.00  0.00    +0.000 C 
ATOM     14  C   UNL     1      22.485  -7.347  12.800  0.00  0.00    +0.000 C 
ATOM     15  C   UNL     1      22.899  -8.442  13.654  0.00  0.00    +0.000 C 
ATOM     16  C   UNL     1      28.510  -7.127  18.187  0.00  0.00    +0.000 C 
ATOM     17  C   UNL     1      23.055  -8.400  15.103  0.00  0.00    +0.000 C 
ATOM     18  C   UNL     1      24.557  -9.571  16.802  0.00  0.00    +0.000 C 
ATOM     19  C   UNL     1      24.426  -8.596  15.669  0.00  0.00    +0.000 C 
ATOM     20  C   UNL     1      25.768  -9.544  17.626  0.00  0.00    +0.000 C 
ATOM     21  C   UNL     1      27.764  -8.216  17.669  0.00  0.00    +0.000 C 
ATOM     22  C   UNL     1      27.097  -9.208  17.170  0.00  0.00    +0.000 C 
ATOM     23  C   UNL     1      28.820  -7.218  19.666  0.00  0.00    +0.000 C 
ATOM     24  C   UNL     1      22.091  -7.540  15.921  0.00  0.00    +0.000 C 
ATOM     25  C   UNL     1      23.500 -10.644  17.035  0.00  0.00    +0.000 C 
ATOM     26  C   UNL     1      27.720  -9.876  15.970  0.00  0.00    +0.000 C 
ENDROOT
BRANCH   9  27
ATOM     27  O   UNL     1      28.269  -3.332  14.836  0.00  0.00    +0.000 OA
ATOM     28  H   UNL     1      29.176  -3.056  15.060  0.00  0.00    +0.000 HD
ENDBRANCH   9  27
BRANCH  10  29
ATOM     29  O   UNL     1      27.667  -6.761  13.844  0.00  0.00    +0.000 OA
ATOM     30  H   UNL     1      27.860  -7.637  14.227  0.00  0.00    +0.000 HD
ENDBRANCH  10  29
BRANCH  14  31
ATOM     31  O   UNL     1      21.472  -7.618  11.897  0.00  0.00    +0.000 OA
ATOM     32  H   UNL     1      20.758  -8.137  12.324  0.00  0.00    +0.000 HD
ENDBRANCH  14  31
BRANCH  15  33
ATOM     33  O   UNL     1      22.647  -9.696  13.124  0.00  0.00    +0.000 OA
ATOM     34  C   UNL     1      23.780 -10.176  12.449  0.00  0.00    +0.000 C 
ENDBRANCH  15  33
BRANCH  20  35
ATOM     35  O   UNL     1      25.758 -10.222  18.875  0.00  0.00    +0.000 OA
BRANCH  35  37
ATOM     36  O   UNL     1      24.509  -8.653  20.068  0.00  0.00    +0.000 OA
ATOM     37  C   UNL     1      25.429  -9.437  19.933  0.00  0.00    +0.000 C 
ATOM     38  C   UNL     1      26.371  -9.516  21.077  0.00  0.00    +0.000 C 
ENDBRANCH  35  37
ENDBRANCH  20  35
BRANCH   6  39
ATOM     39  C   UNL     1      25.522  -2.451  13.467  0.00  0.00    +0.000 C 
BRANCH  39  41
ATOM     40  O   UNL     1      23.545  -1.232  14.521  0.00  0.00    +0.000 OA
ATOM     41  C   UNL     1      24.754  -2.018  14.669  0.00  0.00    +0.000 C 
ATOM     42  C   UNL     1      23.404  -2.570  14.752  0.00  0.00    +0.000 C 
ATOM     43  C   UNL     1      25.560  -1.462  15.893  0.00  0.00    +0.000 C 
BRANCH  42  44
ATOM     44  C   UNL     1      22.830  -3.001  15.994  0.00  0.00    +0.000 C 
ATOM     45  C   UNL     1      21.351  -2.836  16.241  0.00  0.00    +0.000 C 
BRANCH  44  46
ATOM     46  C   UNL     1      23.472  -4.039  16.722  0.00  0.00    +0.000 C 
ATOM     47  C   UNL     1      24.100  -4.859  17.331  0.00  0.00    +0.000 C 
ATOM     48  C   UNL     1      25.025  -5.836  18.071  0.00  0.00    +0.000 C 
ENDBRANCH  44  46
ENDBRANCH  42  44
ENDBRANCH  39  41
BRANCH  39  49
ATOM     49  O   UNL     1      26.187  -1.535  12.664  0.00  0.00    +0.000 OA
ATOM     50  H   UNL     1      25.813  -0.635  12.733  0.00  0.00    +0.000 HD
ENDBRANCH  39  49
ENDBRANCH   6  39
BRANCH   9  51
ATOM     51  C   UNL     1      29.731  -4.336  13.264  0.00  0.00    +0.000 C 
BRANCH  51  52
ATOM     52  O   UNL     1      30.946  -4.327  12.715  0.00  0.00    +0.000 OA
ATOM     53  H   UNL     1      31.516  -3.668  13.152  0.00  0.00    +0.000 HD
ENDBRANCH  51  52
ENDBRANCH   9  51
TORSDOF 13
ENDMDL
MODEL 2
REMARK VINA RESULT:      -5.6     29.186     34.210
REMARK  Name = 101808841_CandidaspongiolideA.pdbqt.pdb
REMARK  13 active torsions:
REMARK  status: ('A' for Active; 'I' for Inactive)
REMARK    1  A    between atoms: C_6  and  C_39
REMARK    2  A    between atoms: C_9  and  O_27
REMARK    3  A    between atoms: C_9  and  C_51
REMARK    4  A    between atoms: C_10  and  O_29
REMARK    5  A    between atoms: C_14  and  O_31
REMARK    6  A    between atoms: C_15  and  O_33
REMARK    7  A    between atoms: C_20  and  O_35
REMARK    8  A    between atoms: O_35  and  C_37
REMARK    9  A    between atoms: C_39  and  C_41
REMARK   10  A    between atoms: C_39  and  O_49
REMARK   11  A    between atoms: C_42  and  C_44
REMARK   12  A    between atoms: C_44  and  C_46
REMARK   13  A    between atoms: C_51  and  O_52
REMARK                            x       y       z     vdW  Elec       q    Type
REMARK                         _______ _______ _______ _____ _____    ______ ____
ROOT
ATOM      1  O   UNL     1      23.128  22.948   1.350  0.00  0.00    +0.000 OA
ATOM      2  O   UNL     1      23.516  19.927  -1.481  0.00  0.00    +0.000 OA
ATOM      3  O   UNL     1      24.643  21.994   2.804  0.00  0.00    +0.000 OA
ATOM      4  O   UNL     1      17.508  22.376  -2.669  0.00  0.00    +0.000 OA
ATOM      5  O   UNL     1      21.870  25.048  -0.100  0.00  0.00    +0.000 OA
ATOM      6  C   UNL     1      22.261  20.504   0.427  0.00  0.00    +0.000 C 
ATOM      7  C   UNL     1      22.417  20.276  -1.044  0.00  0.00    +0.000 C 
ATOM      8  C   UNL     1      22.700  21.754   0.946  0.00  0.00    +0.000 C 
ATOM      9  C   UNL     1      21.179  20.599  -1.923  0.00  0.00    +0.000 C 
ATOM     10  C   UNL     1      21.002  22.101  -2.066  0.00  0.00    +0.000 C 
ATOM     11  C   UNL     1      19.725  22.717  -2.222  0.00  0.00    +0.000 C 
ATOM     12  C   UNL     1      24.173  22.955   2.210  0.00  0.00    +0.000 C 
ATOM     13  C   UNL     1      18.365  23.205  -2.378  0.00  0.00    +0.000 C 
ATOM     14  C   UNL     1      24.758  24.311   2.330  0.00  0.00    +0.000 C 
ATOM     15  C   UNL     1      24.198  25.507   1.735  0.00  0.00    +0.000 C 
ATOM     16  C   UNL     1      18.061  24.660  -2.186  0.00  0.00    +0.000 C 
ATOM     17  C   UNL     1      22.826  25.981   1.868  0.00  0.00    +0.000 C 
ATOM     18  C   UNL     1      21.208  27.296   0.395  0.00  0.00    +0.000 C 
ATOM     19  C   UNL     1      21.975  26.029   0.638  0.00  0.00    +0.000 C 
ATOM     20  C   UNL     1      20.101  27.283  -0.565  0.00  0.00    +0.000 C 
ATOM     21  C   UNL     1      19.079  25.619  -1.956  0.00  0.00    +0.000 C 
ATOM     22  C   UNL     1      20.028  26.479  -1.763  0.00  0.00    +0.000 C 
ATOM     23  C   UNL     1      16.657  25.225  -2.234  0.00  0.00    +0.000 C 
ATOM     24  C   UNL     1      22.100  25.766   3.197  0.00  0.00    +0.000 C 
ATOM     25  C   UNL     1      21.631  28.603   1.055  0.00  0.00    +0.000 C 
ATOM     26  C   UNL     1      21.141  26.464  -2.781  0.00  0.00    +0.000 C 
ENDROOT
BRANCH   9  27
ATOM     27  O   UNL     1      20.010  20.066  -1.298  0.00  0.00    +0.000 OA
ATOM     28  H   UNL     1      19.443  19.712  -2.007  0.00  0.00    +0.000 HD
ENDBRANCH   9  27
BRANCH  10  29
ATOM     29  O   UNL     1      22.132  22.894  -2.072  0.00  0.00    +0.000 OA
ATOM     30  H   UNL     1      22.411  23.193  -1.186  0.00  0.00    +0.000 HD
ENDBRANCH  10  29
BRANCH  14  31
ATOM     31  O   UNL     1      25.953  24.461   3.011  0.00  0.00    +0.000 OA
ATOM     32  H   UNL     1      25.948  23.935   3.839  0.00  0.00    +0.000 HD
ENDBRANCH  14  31
BRANCH  15  33
ATOM     33  O   UNL     1      25.135  26.486   1.450  0.00  0.00    +0.000 OA
ATOM     34  C   UNL     1      25.596  26.351   0.132  0.00  0.00    +0.000 C 
ENDBRANCH  15  33
BRANCH  20  35
ATOM     35  O   UNL     1      19.179  28.363  -0.556  0.00  0.00    +0.000 OA
BRANCH  35  37
ATOM     36  O   UNL     1      17.451  27.315   0.609  0.00  0.00    +0.000 OA
ATOM     37  C   UNL     1      18.193  28.248   0.371  0.00  0.00    +0.000 C 
ATOM     38  C   UNL     1      17.958  29.471   1.177  0.00  0.00    +0.000 C 
ENDBRANCH  35  37
ENDBRANCH  20  35
BRANCH   6  39
ATOM     39  C   UNL     1      21.778  19.445   1.289  0.00  0.00    +0.000 C 
BRANCH  39  41
ATOM     40  O   UNL     1      20.618  21.089   2.856  0.00  0.00    +0.000 OA
ATOM     41  C   UNL     1      21.058  19.740   2.561  0.00  0.00    +0.000 C 
ATOM     42  C   UNL     1      19.687  20.211   2.382  0.00  0.00    +0.000 C 
ATOM     43  C   UNL     1      21.609  19.099   3.881  0.00  0.00    +0.000 C 
BRANCH  42  44
ATOM     44  C   UNL     1      18.619  19.800   3.247  0.00  0.00    +0.000 C 
ATOM     45  C   UNL     1      18.240  20.648   4.435  0.00  0.00    +0.000 C 
BRANCH  44  46
ATOM     46  C   UNL     1      17.594  18.968   2.722  0.00  0.00    +0.000 C 
ATOM     47  C   UNL     1      16.672  18.292   2.361  0.00  0.00    +0.000 C 
ATOM     48  C   UNL     1      15.433  17.446   2.031  0.00  0.00    +0.000 C 
ENDBRANCH  44  46
ENDBRANCH  42  44
ENDBRANCH  39  41
BRANCH  39  49
ATOM     49  O   UNL     1      21.720  18.190   0.699  0.00  0.00    +0.000 OA
ATOM     50  H   UNL     1      20.808  17.922   0.476  0.00  0.00    +0.000 HD
ENDBRANCH  39  49
ENDBRANCH   6  39
BRANCH   9  51
ATOM     51  C   UNL     1      21.320  20.000  -3.271  0.00  0.00    +0.000 C 
BRANCH  51  52
ATOM     52  O   UNL     1      21.472  19.454  -4.478  0.00  0.00    +0.000 OA
ATOM     53  H   UNL     1      21.046  20.004  -5.161  0.00  0.00    +0.000 HD
ENDBRANCH  51  52
ENDBRANCH   9  51
TORSDOF 13
ENDMDL
MODEL 3
REMARK VINA RESULT:      -5.5     29.246     34.217
REMARK  Name = 101808841_CandidaspongiolideA.pdbqt.pdb
REMARK  13 active torsions:
REMARK  status: ('A' for Active; 'I' for Inactive)
REMARK    1  A    between atoms: C_6  and  C_39
REMARK    2  A    between atoms: C_9  and  O_27
REMARK    3  A    between atoms: C_9  and  C_51
REMARK    4  A    between atoms: C_10  and  O_29
REMARK    5  A    between atoms: C_14  and  O_31
REMARK    6  A    between atoms: C_15  and  O_33
REMARK    7  A    between atoms: C_20  and  O_35
REMARK    8  A    between atoms: O_35  and  C_37
REMARK    9  A    between atoms: C_39  and  C_41
REMARK   10  A    between atoms: C_39  and  O_49
REMARK   11  A    between atoms: C_42  and  C_44
REMARK   12  A    between atoms: C_44  and  C_46
REMARK   13  A    between atoms: C_51  and  O_52
REMARK                            x       y       z     vdW  Elec       q    Type
REMARK                         _______ _______ _______ _____ _____    ______ ____
ROOT
ATOM      1  O   UNL     1      24.639  23.179  -0.167  0.00  0.00    +0.000 OA
ATOM      2  O   UNL     1      23.894  20.016   2.426  0.00  0.00    +0.000 OA
ATOM      3  O   UNL     1      26.247  24.121   1.193  0.00  0.00    +0.000 OA
ATOM      4  O   UNL     1      18.276  20.554  -0.986  0.00  0.00    +0.000 OA
ATOM      5  O   UNL     1      23.475  22.311  -2.613  0.00  0.00    +0.000 OA
ATOM      6  C   UNL     1      23.193  22.217   1.968  0.00  0.00    +0.000 C 
ATOM      7  C   UNL     1      22.990  20.735   1.996  0.00  0.00    +0.000 C 
ATOM      8  C   UNL     1      23.939  22.755   0.882  0.00  0.00    +0.000 C 
ATOM      9  C   UNL     1      21.665  20.213   1.377  0.00  0.00    +0.000 C 
ATOM     10  C   UNL     1      21.719  20.285  -0.140  0.00  0.00    +0.000 C 
ATOM     11  C   UNL     1      20.562  20.504  -0.944  0.00  0.00    +0.000 C 
ATOM     12  C   UNL     1      25.830  23.765   0.099  0.00  0.00    +0.000 C 
ATOM     13  C   UNL     1      19.302  20.727  -1.634  0.00  0.00    +0.000 C 
ATOM     14  C   UNL     1      26.648  23.896  -1.129  0.00  0.00    +0.000 C 
ATOM     15  C   UNL     1      26.185  23.587  -2.466  0.00  0.00    +0.000 C 
ATOM     16  C   UNL     1      19.298  21.148  -3.073  0.00  0.00    +0.000 C 
ATOM     17  C   UNL     1      24.974  24.091  -3.103  0.00  0.00    +0.000 C 
ATOM     18  C   UNL     1      23.325  23.197  -4.833  0.00  0.00    +0.000 C 
ATOM     19  C   UNL     1      23.901  23.109  -3.450  0.00  0.00    +0.000 C 
ATOM     20  C   UNL     1      22.053  22.528  -5.117  0.00  0.00    +0.000 C 
ATOM     21  C   UNL     1      20.489  21.238  -3.836  0.00  0.00    +0.000 C 
ATOM     22  C   UNL     1      21.589  21.298  -4.518  0.00  0.00    +0.000 C 
ATOM     23  C   UNL     1      18.033  21.495  -3.830  0.00  0.00    +0.000 C 
ATOM     24  C   UNL     1      24.524  25.521  -2.797  0.00  0.00    +0.000 C 
ATOM     25  C   UNL     1      24.095  23.881  -5.957  0.00  0.00    +0.000 C 
ATOM     26  C   UNL     1      22.439  20.052  -4.498  0.00  0.00    +0.000 C 
ENDROOT
BRANCH   9  27
ATOM     27  O   UNL     1      20.585  21.031   1.827  0.00  0.00    +0.000 OA
ATOM     28  H   UNL     1      20.964  21.701   2.426  0.00  0.00    +0.000 HD
ENDBRANCH   9  27
BRANCH  10  29
ATOM     29  O   UNL     1      22.940  20.103  -0.759  0.00  0.00    +0.000 OA
ATOM     30  H   UNL     1      22.964  19.341  -1.369  0.00  0.00    +0.000 HD
ENDBRANCH  10  29
BRANCH  14  31
ATOM     31  O   UNL     1      27.969  24.290  -1.009  0.00  0.00    +0.000 OA
ATOM     32  H   UNL     1      28.475  23.645  -0.471  0.00  0.00    +0.000 HD
ENDBRANCH  14  31
BRANCH  15  33
ATOM     33  O   UNL     1      27.191  23.203  -3.337  0.00  0.00    +0.000 OA
ATOM     34  C   UNL     1      27.384  24.183  -4.322  0.00  0.00    +0.000 C 
ENDBRANCH  15  33
BRANCH  20  35
ATOM     35  O   UNL     1      21.350  22.875  -6.303  0.00  0.00    +0.000 OA
BRANCH  35  37
ATOM     36  O   UNL     1      22.367  21.458  -7.854  0.00  0.00    +0.000 OA
ATOM     37  C   UNL     1      21.405  21.932  -7.279  0.00  0.00    +0.000 C 
ATOM     38  C   UNL     1      20.082  21.450  -7.747  0.00  0.00    +0.000 C 
ENDBRANCH  35  37
ENDBRANCH  20  35
BRANCH   6  39
ATOM     39  C   UNL     1      22.734  23.044   3.065  0.00  0.00    +0.000 C 
BRANCH  39  41
ATOM     40  O   UNL     1      22.155  25.334   4.026  0.00  0.00    +0.000 OA
ATOM     41  C   UNL     1      22.437  24.493   2.880  0.00  0.00    +0.000 C 
ATOM     42  C   UNL     1      23.411  25.390   3.496  0.00  0.00    +0.000 C 
ATOM     43  C   UNL     1      21.471  24.901   1.715  0.00  0.00    +0.000 C 
BRANCH  42  44
ATOM     44  C   UNL     1      23.842  26.603   2.862  0.00  0.00    +0.000 C 
ATOM     45  C   UNL     1      22.922  27.797   2.809  0.00  0.00    +0.000 C 
BRANCH  44  46
ATOM     46  C   UNL     1      25.233  26.884   2.794  0.00  0.00    +0.000 C 
ATOM     47  C   UNL     1      26.404  27.137   2.840  0.00  0.00    +0.000 C 
ATOM     48  C   UNL     1      27.882  27.507   3.033  0.00  0.00    +0.000 C 
ENDBRANCH  44  46
ENDBRANCH  42  44
ENDBRANCH  39  41
BRANCH  39  49
ATOM     49  O   UNL     1      22.269  22.345   4.170  0.00  0.00    +0.000 OA
ATOM     50  H   UNL     1      22.268  22.887   4.982  0.00  0.00    +0.000 HD
ENDBRANCH  39  49
ENDBRANCH   6  39
BRANCH   9  51
ATOM     51  C   UNL     1      21.411  18.811   1.784  0.00  0.00    +0.000 C 
BRANCH  51  52
ATOM     52  O   UNL     1      21.208  17.545   2.148  0.00  0.00    +0.000 OA
ATOM     53  H   UNL     1      21.720  17.332   2.951  0.00  0.00    +0.000 HD
ENDBRANCH  51  52
ENDBRANCH   9  51
TORSDOF 13
ENDMDL
MODEL 4
REMARK VINA RESULT:      -5.3      1.896      2.623
REMARK  Name = 101808841_CandidaspongiolideA.pdbqt.pdb
REMARK  13 active torsions:
REMARK  status: ('A' for Active; 'I' for Inactive)
REMARK    1  A    between atoms: C_6  and  C_39
REMARK    2  A    between atoms: C_9  and  O_27
REMARK    3  A    between atoms: C_9  and  C_51
REMARK    4  A    between atoms: C_10  and  O_29
REMARK    5  A    between atoms: C_14  and  O_31
REMARK    6  A    between atoms: C_15  and  O_33
REMARK    7  A    between atoms: C_20  and  O_35
REMARK    8  A    between atoms: O_35  and  C_37
REMARK    9  A    between atoms: C_39  and  C_41
REMARK   10  A    between atoms: C_39  and  O_49
REMARK   11  A    between atoms: C_42  and  C_44
REMARK   12  A    between atoms: C_44  and  C_46
REMARK   13  A    between atoms: C_51  and  O_52
REMARK                            x       y       z     vdW  Elec       q    Type
REMARK                         _______ _______ _______ _____ _____    ______ ____
ROOT
ATOM      1  O   UNL     1      22.428  -6.499  15.681  0.00  0.00    +0.000 OA
ATOM      2  O   UNL     1      23.761  -4.274  12.431  0.00  0.00    +0.000 OA
ATOM      3  O   UNL     1      20.200  -6.087  15.248  0.00  0.00    +0.000 OA
ATOM      4  O   UNL     1      28.888  -4.151  16.577  0.00  0.00    +0.000 OA
ATOM      5  O   UNL     1      24.703  -8.051  16.391  0.00  0.00    +0.000 OA
ATOM      6  C   UNL     1      23.216  -4.047  14.711  0.00  0.00    +0.000 C 
ATOM      7  C   UNL     1      24.186  -4.083  13.572  0.00  0.00    +0.000 C 
ATOM      8  C   UNL     1      22.779  -5.294  15.240  0.00  0.00    +0.000 C 
ATOM      9  C   UNL     1      25.688  -3.970  13.948  0.00  0.00    +0.000 C 
ATOM     10  C   UNL     1      26.186  -5.271  14.555  0.00  0.00    +0.000 C 
ATOM     11  C   UNL     1      27.220  -5.319  15.535  0.00  0.00    +0.000 C 
ATOM     12  C   UNL     1      21.122  -6.832  15.548  0.00  0.00    +0.000 C 
ATOM     13  C   UNL     1      28.284  -5.217  16.521  0.00  0.00    +0.000 C 
ATOM     14  C   UNL     1      20.916  -8.283  15.765  0.00  0.00    +0.000 C 
ATOM     15  C   UNL     1      21.940  -9.204  16.215  0.00  0.00    +0.000 C 
ATOM     16  C   UNL     1      28.600  -6.382  17.410  0.00  0.00    +0.000 C 
ATOM     17  C   UNL     1      22.789  -9.050  17.390  0.00  0.00    +0.000 C 
ATOM     18  C   UNL     1      25.163  -9.748  18.018  0.00  0.00    +0.000 C 
ATOM     19  C   UNL     1      24.262  -8.891  17.177  0.00  0.00    +0.000 C 
ATOM     20  C   UNL     1      26.581  -9.396  18.125  0.00  0.00    +0.000 C 
ATOM     21  C   UNL     1      27.965  -7.640  17.258  0.00  0.00    +0.000 C 
ATOM     22  C   UNL     1      27.383  -8.785  17.090  0.00  0.00    +0.000 C 
ATOM     23  C   UNL     1      29.624  -6.319  18.524  0.00  0.00    +0.000 C 
ATOM     24  C   UNL     1      22.202  -8.395  18.641  0.00  0.00    +0.000 C 
ATOM     25  C   UNL     1      24.642 -11.023  18.671  0.00  0.00    +0.000 C 
ATOM     26  C   UNL     1      27.450  -9.354  15.695  0.00  0.00    +0.000 C 
ENDROOT
BRANCH   9  27
ATOM     27  O   UNL     1      25.851  -2.932  14.915  0.00  0.00    +0.000 OA
ATOM     28  H   UNL     1      25.967  -3.363  15.781  0.00  0.00    +0.000 HD
ENDBRANCH   9  27
BRANCH  10  29
ATOM     29  O   UNL     1      25.628  -6.454  14.113  0.00  0.00    +0.000 OA
ATOM     30  H   UNL     1      24.709  -6.593  14.409  0.00  0.00    +0.000 HD
ENDBRANCH  10  29
BRANCH  14  31
ATOM     31  O   UNL     1      19.679  -8.830  15.475  0.00  0.00    +0.000 OA
ATOM     32  H   UNL     1      19.038  -8.637  16.192  0.00  0.00    +0.000 HD
ENDBRANCH  14  31
BRANCH  15  33
ATOM     33  O   UNL     1      21.748 -10.509  15.794  0.00  0.00    +0.000 OA
ATOM     34  C   UNL     1      22.461 -10.749  14.610  0.00  0.00    +0.000 C 
ENDBRANCH  15  33
BRANCH  20  35
ATOM     35  O   UNL     1      27.355  -9.990  19.158  0.00  0.00    +0.000 OA
BRANCH  35  37
ATOM     36  O   UNL     1      26.347  -9.043  21.037  0.00  0.00    +0.000 OA
ATOM     37  C   UNL     1      27.304  -9.329  20.343  0.00  0.00    +0.000 C 
ATOM     38  C   UNL     1      28.616  -8.840  20.835  0.00  0.00    +0.000 C 
ENDBRANCH  35  37
ENDBRANCH  20  35
BRANCH   6  39
ATOM     39  C   UNL     1      22.671  -2.787  15.174  0.00  0.00    +0.000 C 
BRANCH  39  41
ATOM     40  O   UNL     1      21.367  -2.003  17.220  0.00  0.00    +0.000 OA
ATOM     41  C   UNL     1      22.610  -2.448  16.624  0.00  0.00    +0.000 C 
ATOM     42  C   UNL     1      21.724  -3.306  17.406  0.00  0.00    +0.000 C 
ATOM     43  C   UNL     1      23.781  -1.600  17.229  0.00  0.00    +0.000 C 
BRANCH  42  44
ATOM     44  C   UNL     1      22.060  -3.750  18.729  0.00  0.00    +0.000 C 
ATOM     45  C   UNL     1      21.019  -3.733  19.819  0.00  0.00    +0.000 C 
BRANCH  44  46
ATOM     46  C   UNL     1      23.116  -4.687  18.889  0.00  0.00    +0.000 C 
ATOM     47  C   UNL     1      24.066  -5.399  19.059  0.00  0.00    +0.000 C 
ATOM     48  C   UNL     1      25.360  -6.191  19.297  0.00  0.00    +0.000 C 
ENDBRANCH  44  46
ENDBRANCH  42  44
ENDBRANCH  39  41
BRANCH  39  49
ATOM     49  O   UNL     1      22.541  -1.811  14.196  0.00  0.00    +0.000 OA
ATOM     50  H   UNL     1      23.347  -1.716  13.652  0.00  0.00    +0.000 HD
ENDBRANCH  39  49
ENDBRANCH   6  39
BRANCH   9  51
ATOM     51  C   UNL     1      26.507  -3.651  12.754  0.00  0.00    +0.000 C 
BRANCH  51  52
ATOM     52  O   UNL     1      27.263  -3.378  11.691  0.00  0.00    +0.000 OA
ATOM     53  H   UNL     1      26.710  -3.106  10.936  0.00  0.00    +0.000 HD
ENDBRANCH  51  52
ENDBRANCH   9  51
TORSDOF 13
ENDMDL
MODEL 5
REMARK VINA RESULT:      -5.3     20.347     22.881
REMARK  Name = 101808841_CandidaspongiolideA.pdbqt.pdb
REMARK  13 active torsions:
REMARK  status: ('A' for Active; 'I' for Inactive)
REMARK    1  A    between atoms: C_6  and  C_39
REMARK    2  A    between atoms: C_9  and  O_27
REMARK    3  A    between atoms: C_9  and  C_51
REMARK    4  A    between atoms: C_10  and  O_29
REMARK    5  A    between atoms: C_14  and  O_31
REMARK    6  A    between atoms: C_15  and  O_33
REMARK    7  A    between atoms: C_20  and  O_35
REMARK    8  A    between atoms: O_35  and  C_37
REMARK    9  A    between atoms: C_39  and  C_41
REMARK   10  A    between atoms: C_39  and  O_49
REMARK   11  A    between atoms: C_42  and  C_44
REMARK   12  A    between atoms: C_44  and  C_46
REMARK   13  A    between atoms: C_51  and  O_52
REMARK                            x       y       z     vdW  Elec       q    Type
REMARK                         _______ _______ _______ _____ _____    ______ ____
ROOT
ATOM      1  O   UNL     1      43.514   6.796  17.679  0.00  0.00    +0.000 OA
ATOM      2  O   UNL     1      42.171   9.989  19.978  0.00  0.00    +0.000 OA
ATOM      3  O   UNL     1      42.662   7.649  15.713  0.00  0.00    +0.000 OA
ATOM      4  O   UNL     1      42.635   5.057  24.332  0.00  0.00    +0.000 OA
ATOM      5  O   UNL     1      45.432   5.537  19.361  0.00  0.00    +0.000 OA
ATOM      6  C   UNL     1      41.486   7.877  19.194  0.00  0.00    +0.000 C 
ATOM      7  C   UNL     1      41.917   8.820  20.273  0.00  0.00    +0.000 C 
ATOM      8  C   UNL     1      42.504   7.298  18.385  0.00  0.00    +0.000 C 
ATOM      9  C   UNL     1      42.104   8.204  21.686  0.00  0.00    +0.000 C 
ATOM     10  C   UNL     1      43.380   7.382  21.746  0.00  0.00    +0.000 C 
ATOM     11  C   UNL     1      43.523   6.238  22.586  0.00  0.00    +0.000 C 
ATOM     12  C   UNL     1      43.549   7.114  16.364  0.00  0.00    +0.000 C 
ATOM     13  C   UNL     1      43.526   5.100  23.491  0.00  0.00    +0.000 C 
ATOM     14  C   UNL     1      44.862   6.779  15.767  0.00  0.00    +0.000 C 
ATOM     15  C   UNL     1      45.920   6.061  16.448  0.00  0.00    +0.000 C 
ATOM     16  C   UNL     1      44.588   4.048  23.372  0.00  0.00    +0.000 C 
ATOM     17  C   UNL     1      45.796   4.781  17.136  0.00  0.00    +0.000 C 
ATOM     18  C   UNL     1      46.928   3.679  19.141  0.00  0.00    +0.000 C 
ATOM     19  C   UNL     1      46.019   4.752  18.615  0.00  0.00    +0.000 C 
ATOM     20  C   UNL     1      46.905   3.368  20.572  0.00  0.00    +0.000 C 
ATOM     21  C   UNL     1      45.671   4.169  22.465  0.00  0.00    +0.000 C 
ATOM     22  C   UNL     1      46.660   4.309  21.641  0.00  0.00    +0.000 C 
ATOM     23  C   UNL     1      44.601   2.788  24.210  0.00  0.00    +0.000 C 
ATOM     24  C   UNL     1      44.843   3.729  16.564  0.00  0.00    +0.000 C 
ATOM     25  C   UNL     1      47.934   2.991  18.226  0.00  0.00    +0.000 C 
ATOM     26  C   UNL     1      47.429   5.601  21.756  0.00  0.00    +0.000 C 
ENDROOT
BRANCH   9  27
ATOM     27  O   UNL     1      41.001   7.343  21.971  0.00  0.00    +0.000 OA
ATOM     28  H   UNL     1      40.656   7.599  22.846  0.00  0.00    +0.000 HD
ENDBRANCH   9  27
BRANCH  10  29
ATOM     29  O   UNL     1      44.452   7.782  20.973  0.00  0.00    +0.000 OA
ATOM     30  H   UNL     1      44.239   8.492  20.339  0.00  0.00    +0.000 HD
ENDBRANCH  10  29
BRANCH  14  31
ATOM     31  O   UNL     1      45.141   7.218  14.485  0.00  0.00    +0.000 OA
ATOM     32  H   UNL     1      44.397   7.750  14.132  0.00  0.00    +0.000 HD
ENDBRANCH  14  31
BRANCH  15  33
ATOM     33  O   UNL     1      47.192   6.363  15.992  0.00  0.00    +0.000 OA
ATOM     34  C   UNL     1      47.759   7.383  16.772  0.00  0.00    +0.000 C 
ENDBRANCH  15  33
BRANCH  20  35
ATOM     35  O   UNL     1      47.503   2.158  21.016  0.00  0.00    +0.000 OA
BRANCH  35  37
ATOM     36  O   UNL     1      45.501   0.970  20.859  0.00  0.00    +0.000 OA
ATOM     37  C   UNL     1      46.617   1.169  21.299  0.00  0.00    +0.000 C 
ATOM     38  C   UNL     1      47.067   0.218  22.346  0.00  0.00    +0.000 C 
ENDBRANCH  35  37
ENDBRANCH  20  35
BRANCH   6  39
ATOM     39  C   UNL     1      40.079   7.656  18.929  0.00  0.00    +0.000 C 
BRANCH  39  41
ATOM     40  O   UNL     1      37.752   8.541  18.378  0.00  0.00    +0.000 OA
ATOM     41  C   UNL     1      39.173   8.773  18.538  0.00  0.00    +0.000 C 
ATOM     42  C   UNL     1      38.170   9.114  19.543  0.00  0.00    +0.000 C 
ATOM     43  C   UNL     1      39.649   9.739  17.399  0.00  0.00    +0.000 C 
BRANCH  42  44
ATOM     44  C   UNL     1      37.795  10.471  19.821  0.00  0.00    +0.000 C 
ATOM     45  C   UNL     1      36.427  10.972  19.435  0.00  0.00    +0.000 C 
BRANCH  44  46
ATOM     46  C   UNL     1      38.427  11.150  20.898  0.00  0.00    +0.000 C 
ATOM     47  C   UNL     1      38.883  11.689  21.867  0.00  0.00    +0.000 C 
ATOM     48  C   UNL     1      39.340  12.354  23.173  0.00  0.00    +0.000 C 
ENDBRANCH  44  46
ENDBRANCH  42  44
ENDBRANCH  39  41
BRANCH  39  49
ATOM     49  O   UNL     1      39.723   6.330  18.727  0.00  0.00    +0.000 OA
ATOM     50  H   UNL     1      38.926   6.076  19.230  0.00  0.00    +0.000 HD
ENDBRANCH  39  49
ENDBRANCH   6  39
BRANCH   9  51
ATOM     51  C   UNL     1      42.166   9.266  22.719  0.00  0.00    +0.000 C 
BRANCH  51  52
ATOM     52  O   UNL     1      42.247  10.214  23.652  0.00  0.00    +0.000 OA
ATOM     53  H   UNL     1      43.068  10.730  23.548  0.00  0.00    +0.000 HD
ENDBRANCH  51  52
ENDBRANCH   9  51
TORSDOF 13
ENDMDL
MODEL 6
REMARK VINA RESULT:      -5.2     19.283     23.857
REMARK  Name = 101808841_CandidaspongiolideA.pdbqt.pdb
REMARK  13 active torsions:
REMARK  status: ('A' for Active; 'I' for Inactive)
REMARK    1  A    between atoms: C_6  and  C_39
REMARK    2  A    between atoms: C_9  and  O_27
REMARK    3  A    between atoms: C_9  and  C_51
REMARK    4  A    between atoms: C_10  and  O_29
REMARK    5  A    between atoms: C_14  and  O_31
REMARK    6  A    between atoms: C_15  and  O_33
REMARK    7  A    between atoms: C_20  and  O_35
REMARK    8  A    between atoms: O_35  and  C_37
REMARK    9  A    between atoms: C_39  and  C_41
REMARK   10  A    between atoms: C_39  and  O_49
REMARK   11  A    between atoms: C_42  and  C_44
REMARK   12  A    between atoms: C_44  and  C_46
REMARK   13  A    between atoms: C_51  and  O_52
REMARK                            x       y       z     vdW  Elec       q    Type
REMARK                         _______ _______ _______ _____ _____    ______ ____
ROOT
ATOM      1  O   UNL     1      43.180   9.677  18.596  0.00  0.00    +0.000 OA
ATOM      2  O   UNL     1      42.520   7.937  22.314  0.00  0.00    +0.000 OA
ATOM      3  O   UNL     1      41.887  11.530  19.059  0.00  0.00    +0.000 OA
ATOM      4  O   UNL     1      43.936   2.788  18.444  0.00  0.00    +0.000 OA
ATOM      5  O   UNL     1      45.426   8.248  17.592  0.00  0.00    +0.000 OA
ATOM      6  C   UNL     1      41.615   8.022  20.141  0.00  0.00    +0.000 C 
ATOM      7  C   UNL     1      42.321   7.326  21.262  0.00  0.00    +0.000 C 
ATOM      8  C   UNL     1      42.387   8.891  19.320  0.00  0.00    +0.000 C 
ATOM      9  C   UNL     1      42.838   5.893  20.961  0.00  0.00    +0.000 C 
ATOM     10  C   UNL     1      44.070   5.946  20.074  0.00  0.00    +0.000 C 
ATOM     11  C   UNL     1      44.390   4.920  19.137  0.00  0.00    +0.000 C 
ATOM     12  C   UNL     1      42.895  11.000  18.613  0.00  0.00    +0.000 C 
ATOM     13  C   UNL     1      44.592   3.802  18.230  0.00  0.00    +0.000 C 
ATOM     14  C   UNL     1      44.012  11.795  18.051  0.00  0.00    +0.000 C 
ATOM     15  C   UNL     1      45.189  11.234  17.420  0.00  0.00    +0.000 C 
ATOM     16  C   UNL     1      45.567   3.919  17.097  0.00  0.00    +0.000 C 
ATOM     17  C   UNL     1      45.211  10.258  16.337  0.00  0.00    +0.000 C 
ATOM     18  C   UNL     1      46.778   8.376  15.620  0.00  0.00    +0.000 C 
ATOM     19  C   UNL     1      45.792   8.908  16.618  0.00  0.00    +0.000 C 
ATOM     20  C   UNL     1      47.104   6.947  15.635  0.00  0.00    +0.000 C 
ATOM     21  C   UNL     1      46.395   5.057  16.929  0.00  0.00    +0.000 C 
ATOM     22  C   UNL     1      47.152   6.101  16.805  0.00  0.00    +0.000 C 
ATOM     23  C   UNL     1      45.760   2.837  16.056  0.00  0.00    +0.000 C 
ATOM     24  C   UNL     1      44.123  10.327  15.264  0.00  0.00    +0.000 C 
ATOM     25  C   UNL     1      47.511   9.315  14.669  0.00  0.00    +0.000 C 
ATOM     26  C   UNL     1      47.955   6.475  18.026  0.00  0.00    +0.000 C 
ENDROOT
BRANCH   9  27
ATOM     27  O   UNL     1      41.820   5.164  20.274  0.00  0.00    +0.000 OA
ATOM     28  H   UNL     1      41.043   5.133  20.862  0.00  0.00    +0.000 HD
ENDBRANCH   9  27
BRANCH  10  29
ATOM     29  O   UNL     1      44.926   7.021  20.208  0.00  0.00    +0.000 OA
ATOM     30  H   UNL     1      45.580   7.097  19.488  0.00  0.00    +0.000 HD
ENDBRANCH  10  29
BRANCH  14  31
ATOM     31  O   UNL     1      43.975  13.173  18.173  0.00  0.00    +0.000 OA
ATOM     32  H   UNL     1      43.550  13.434  19.017  0.00  0.00    +0.000 HD
ENDBRANCH  14  31
BRANCH  15  33
ATOM     33  O   UNL     1      46.315  12.035  17.514  0.00  0.00    +0.000 OA
ATOM     34  C   UNL     1      47.088  11.661  18.623  0.00  0.00    +0.000 C 
ENDBRANCH  15  33
BRANCH  20  35
ATOM     35  O   UNL     1      47.766   6.387  14.510  0.00  0.00    +0.000 OA
BRANCH  35  37
ATOM     36  O   UNL     1      46.186   6.712  12.824  0.00  0.00    +0.000 OA
ATOM     37  C   UNL     1      46.937   6.030  13.495  0.00  0.00    +0.000 C 
ATOM     38  C   UNL     1      46.913   4.576  13.200  0.00  0.00    +0.000 C 
ENDBRANCH  35  37
ENDBRANCH  20  35
BRANCH   6  39
ATOM     39  C   UNL     1      40.181   7.889  19.979  0.00  0.00    +0.000 C 
BRANCH  39  41
ATOM     40  O   UNL     1      39.602  10.081  21.148  0.00  0.00    +0.000 OA
ATOM     41  C   UNL     1      39.226   8.741  20.745  0.00  0.00    +0.000 C 
ATOM     42  C   UNL     1      38.807   9.953  20.046  0.00  0.00    +0.000 C 
ATOM     43  C   UNL     1      38.430   8.075  21.919  0.00  0.00    +0.000 C 
BRANCH  42  44
ATOM     44  C   UNL     1      37.459  10.442  20.105  0.00  0.00    +0.000 C 
ATOM     45  C   UNL     1      37.196  11.910  20.327  0.00  0.00    +0.000 C 
BRANCH  44  46
ATOM     46  C   UNL     1      36.439   9.720  19.428  0.00  0.00    +0.000 C 
ATOM     47  C   UNL     1      35.599   9.032  18.920  0.00  0.00    +0.000 C 
ATOM     48  C   UNL     1      34.580   8.039  18.342  0.00  0.00    +0.000 C 
ENDBRANCH  44  46
ENDBRANCH  42  44
ENDBRANCH  39  41
BRANCH  39  49
ATOM     49  O   UNL     1      39.783   7.190  18.848  0.00  0.00    +0.000 OA
ATOM     50  H   UNL     1      39.995   7.664  18.021  0.00  0.00    +0.000 HD
ENDBRANCH  39  49
ENDBRANCH   6  39
BRANCH   9  51
ATOM     51  C   UNL     1      43.177   5.182  22.216  0.00  0.00    +0.000 C 
BRANCH  51  52
ATOM     52  O   UNL     1      43.455   4.540  23.351  0.00  0.00    +0.000 OA
ATOM     53  H   UNL     1      44.323   4.098  23.292  0.00  0.00    +0.000 HD
ENDBRANCH  51  52
ENDBRANCH   9  51
TORSDOF 13
ENDMDL
MODEL 7
REMARK VINA RESULT:      -5.2     27.677     32.063
REMARK  Name = 101808841_CandidaspongiolideA.pdbqt.pdb
REMARK  13 active torsions:
REMARK  status: ('A' for Active; 'I' for Inactive)
REMARK    1  A    between atoms: C_6  and  C_39
REMARK    2  A    between atoms: C_9  and  O_27
REMARK    3  A    between atoms: C_9  and  C_51
REMARK    4  A    between atoms: C_10  and  O_29
REMARK    5  A    between atoms: C_14  and  O_31
REMARK    6  A    between atoms: C_15  and  O_33
REMARK    7  A    between atoms: C_20  and  O_35
REMARK    8  A    between atoms: O_35  and  C_37
REMARK    9  A    between atoms: C_39  and  C_41
REMARK   10  A    between atoms: C_39  and  O_49
REMARK   11  A    between atoms: C_42  and  C_44
REMARK   12  A    between atoms: C_44  and  C_46
REMARK   13  A    between atoms: C_51  and  O_52
REMARK                            x       y       z     vdW  Elec       q    Type
REMARK                         _______ _______ _______ _____ _____    ______ ____
ROOT
ATOM      1  O   UNL     1      18.018  20.701  33.608  0.00  0.00    +0.000 OA
ATOM      2  O   UNL     1      16.884  17.289  35.696  0.00  0.00    +0.000 OA
ATOM      3  O   UNL     1      16.184  21.920  34.292  0.00  0.00    +0.000 OA
ATOM      4  O   UNL     1      20.682  14.926  30.850  0.00  0.00    +0.000 OA
ATOM      5  O   UNL     1      20.759  20.225  33.013  0.00  0.00    +0.000 OA
ATOM      6  C   UNL     1      16.619  18.331  33.600  0.00  0.00    +0.000 C 
ATOM      7  C   UNL     1      17.158  17.259  34.495  0.00  0.00    +0.000 C 
ATOM      8  C   UNL     1      17.311  19.574  33.578  0.00  0.00    +0.000 C 
ATOM      9  C   UNL     1      18.117  16.232  33.833  0.00  0.00    +0.000 C 
ATOM     10  C   UNL     1      19.478  16.858  33.582  0.00  0.00    +0.000 C 
ATOM     11  C   UNL     1      20.315  16.474  32.493  0.00  0.00    +0.000 C 
ATOM     12  C   UNL     1      17.382  21.800  34.076  0.00  0.00    +0.000 C 
ATOM     13  C   UNL     1      21.061  15.981  31.346  0.00  0.00    +0.000 C 
ATOM     14  C   UNL     1      18.341  22.891  34.365  0.00  0.00    +0.000 C 
ATOM     15  C   UNL     1      19.754  22.855  34.046  0.00  0.00    +0.000 C 
ATOM     16  C   UNL     1      22.235  16.754  30.825  0.00  0.00    +0.000 C 
ATOM     17  C   UNL     1      20.342  22.551  32.747  0.00  0.00    +0.000 C 
ATOM     18  C   UNL     1      22.507  21.464  31.942  0.00  0.00    +0.000 C 
ATOM     19  C   UNL     1      21.178  21.316  32.624  0.00  0.00    +0.000 C 
ATOM     20  C   UNL     1      23.201  20.264  31.472  0.00  0.00    +0.000 C 
ATOM     21  C   UNL     1      22.724  17.914  31.477  0.00  0.00    +0.000 C 
ATOM     22  C   UNL     1      23.163  18.962  32.098  0.00  0.00    +0.000 C 
ATOM     23  C   UNL     1      22.998  16.358  29.579  0.00  0.00    +0.000 C 
ATOM     24  C   UNL     1      19.613  23.015  31.484  0.00  0.00    +0.000 C 
ATOM     25  C   UNL     1      23.178  22.828  31.829  0.00  0.00    +0.000 C 
ATOM     26  C   UNL     1      23.465  18.774  33.564  0.00  0.00    +0.000 C 
ENDROOT
BRANCH   9  27
ATOM     27  O   UNL     1      17.571  15.826  32.577  0.00  0.00    +0.000 OA
ATOM     28  H   UNL     1      18.305  15.813  31.936  0.00  0.00    +0.000 HD
ENDBRANCH   9  27
BRANCH  10  29
ATOM     29  O   UNL     1      19.929  17.817  34.467  0.00  0.00    +0.000 OA
ATOM     30  H   UNL     1      19.269  18.504  34.675  0.00  0.00    +0.000 HD
ENDBRANCH  10  29
BRANCH  14  31
ATOM     31  O   UNL     1      17.889  24.015  35.035  0.00  0.00    +0.000 OA
ATOM     32  H   UNL     1      17.205  23.772  35.695  0.00  0.00    +0.000 HD
ENDBRANCH  14  31
BRANCH  15  33
ATOM     33  O   UNL     1      20.541  23.629  34.881  0.00  0.00    +0.000 OA
ATOM     34  C   UNL     1      21.048  22.850  35.932  0.00  0.00    +0.000 C 
ENDBRANCH  15  33
BRANCH  20  35
ATOM     35  O   UNL     1      24.275  20.413  30.553  0.00  0.00    +0.000 OA
BRANCH  35  37
ATOM     36  O   UNL     1      26.111  20.874  31.917  0.00  0.00    +0.000 OA
ATOM     37  C   UNL     1      25.504  20.215  31.094  0.00  0.00    +0.000 C 
ATOM     38  C   UNL     1      26.234  19.041  30.555  0.00  0.00    +0.000 C 
ENDBRANCH  35  37
ENDBRANCH  20  35
BRANCH   6  39
ATOM     39  C   UNL     1      15.381  18.131  32.875  0.00  0.00    +0.000 C 
BRANCH  39  41
ATOM     40  O   UNL     1      13.153  16.916  32.618  0.00  0.00    +0.000 OA
ATOM     41  C   UNL     1      14.253  17.349  33.457  0.00  0.00    +0.000 C 
ATOM     42  C   UNL     1      14.117  15.998  32.919  0.00  0.00    +0.000 C 
ATOM     43  C   UNL     1      13.670  17.816  34.835  0.00  0.00    +0.000 C 
BRANCH  42  44
ATOM     44  C   UNL     1      13.770  14.877  33.746  0.00  0.00    +0.000 C 
ATOM     45  C   UNL     1      14.730  14.392  34.802  0.00  0.00    +0.000 C 
BRANCH  44  46
ATOM     46  C   UNL     1      12.397  14.591  33.971  0.00  0.00    +0.000 C 
ATOM     47  C   UNL     1      11.269  14.277  34.229  0.00  0.00    +0.000 C 
ATOM     48  C   UNL     1       9.879  13.758  34.625  0.00  0.00    +0.000 C 
ENDBRANCH  44  46
ENDBRANCH  42  44
ENDBRANCH  39  41
BRANCH  39  49
ATOM     49  O   UNL     1      15.192  18.980  31.794  0.00  0.00    +0.000 OA
ATOM     50  H   UNL     1      15.345  19.917  32.023  0.00  0.00    +0.000 HD
ENDBRANCH  39  49
ENDBRANCH   6  39
BRANCH   9  51
ATOM     51  C   UNL     1      18.285  15.038  34.694  0.00  0.00    +0.000 C 
BRANCH  51  52
ATOM     52  O   UNL     1      18.417  13.974  35.486  0.00  0.00    +0.000 OA
ATOM     53  H   UNL     1      18.746  14.238  36.365  0.00  0.00    +0.000 HD
ENDBRANCH  51  52
ENDBRANCH   9  51
TORSDOF 13
ENDMDL
MODEL 8
REMARK VINA RESULT:      -5.1     19.280     24.402
REMARK  Name = 101808841_CandidaspongiolideA.pdbqt.pdb
REMARK  13 active torsions:
REMARK  status: ('A' for Active; 'I' for Inactive)
REMARK    1  A    between atoms: C_6  and  C_39
REMARK    2  A    between atoms: C_9  and  O_27
REMARK    3  A    between atoms: C_9  and  C_51
REMARK    4  A    between atoms: C_10  and  O_29
REMARK    5  A    between atoms: C_14  and  O_31
REMARK    6  A    between atoms: C_15  and  O_33
REMARK    7  A    between atoms: C_20  and  O_35
REMARK    8  A    between atoms: O_35  and  C_37
REMARK    9  A    between atoms: C_39  and  C_41
REMARK   10  A    between atoms: C_39  and  O_49
REMARK   11  A    between atoms: C_42  and  C_44
REMARK   12  A    between atoms: C_44  and  C_46
REMARK   13  A    between atoms: C_51  and  O_52
REMARK                            x       y       z     vdW  Elec       q    Type
REMARK                         _______ _______ _______ _____ _____    ______ ____
ROOT
ATOM      1  O   UNL     1      49.996  -2.695  11.363  0.00  0.00    +0.000 OA
ATOM      2  O   UNL     1      52.458  -2.526  14.709  0.00  0.00    +0.000 OA
ATOM      3  O   UNL     1      51.607  -3.673  10.033  0.00  0.00    +0.000 OA
ATOM      4  O   UNL     1      48.096   2.306  15.771  0.00  0.00    +0.000 OA
ATOM      5  O   UNL     1      47.394  -2.296  12.441  0.00  0.00    +0.000 OA
ATOM      6  C   UNL     1      51.853  -1.270  12.810  0.00  0.00    +0.000 C 
ATOM      7  C   UNL     1      51.864  -1.533  14.284  0.00  0.00    +0.000 C 
ATOM      8  C   UNL     1      50.910  -1.990  12.024  0.00  0.00    +0.000 C 
ATOM      9  C   UNL     1      51.027  -0.561  15.159  0.00  0.00    +0.000 C 
ATOM     10  C   UNL     1      49.543  -0.852  15.009  0.00  0.00    +0.000 C 
ATOM     11  C   UNL     1      48.543   0.159  15.122  0.00  0.00    +0.000 C 
ATOM     12  C   UNL     1      50.461  -3.582  10.452  0.00  0.00    +0.000 C 
ATOM     13  C   UNL     1      47.637   1.287  15.265  0.00  0.00    +0.000 C 
ATOM     14  C   UNL     1      49.396  -4.520  10.026  0.00  0.00    +0.000 C 
ATOM     15  C   UNL     1      48.002  -4.413  10.405  0.00  0.00    +0.000 C 
ATOM     16  C   UNL     1      46.215   1.172  14.806  0.00  0.00    +0.000 C 
ATOM     17  C   UNL     1      47.154  -3.235  10.269  0.00  0.00    +0.000 C 
ATOM     18  C   UNL     1      45.170  -2.267  11.551  0.00  0.00    +0.000 C 
ATOM     19  C   UNL     1      46.635  -2.593  11.517  0.00  0.00    +0.000 C 
ATOM     20  C   UNL     1      44.674  -1.332  12.564  0.00  0.00    +0.000 C 
ATOM     21  C   UNL     1      45.675  -0.046  14.324  0.00  0.00    +0.000 C 
ATOM     22  C   UNL     1      45.199  -1.174  13.901  0.00  0.00    +0.000 C 
ATOM     23  C   UNL     1      45.241   2.331  14.831  0.00  0.00    +0.000 C 
ATOM     24  C   UNL     1      47.356  -2.320   9.060  0.00  0.00    +0.000 C 
ATOM     25  C   UNL     1      44.192  -2.970  10.617  0.00  0.00    +0.000 C 
ATOM     26  C   UNL     1      45.385  -2.350  14.827  0.00  0.00    +0.000 C 
ENDROOT
BRANCH   9  27
ATOM     27  O   UNL     1      51.268   0.780  14.730  0.00  0.00    +0.000 OA
ATOM     28  H   UNL     1      52.194   0.822  14.430  0.00  0.00    +0.000 HD
ENDBRANCH   9  27
BRANCH  10  29
ATOM     29  O   UNL     1      49.152  -2.157  14.784  0.00  0.00    +0.000 OA
ATOM     30  H   UNL     1      48.986  -2.666  15.599  0.00  0.00    +0.000 HD
ENDBRANCH  10  29
BRANCH  14  31
ATOM     31  O   UNL     1      49.743  -5.613   9.252  0.00  0.00    +0.000 OA
ATOM     32  H   UNL     1      49.723  -6.435   9.786  0.00  0.00    +0.000 HD
ENDBRANCH  14  31
BRANCH  15  33
ATOM     33  O   UNL     1      47.329  -5.623  10.426  0.00  0.00    +0.000 OA
ATOM     34  C   UNL     1      46.887  -5.911  11.726  0.00  0.00    +0.000 C 
ENDBRANCH  15  33
BRANCH  20  35
ATOM     35  O   UNL     1      43.379  -0.773  12.399  0.00  0.00    +0.000 OA
BRANCH  35  37
ATOM     36  O   UNL     1      42.112  -2.250  13.688  0.00  0.00    +0.000 OA
ATOM     37  C   UNL     1      42.486  -1.142  13.355  0.00  0.00    +0.000 C 
ATOM     38  C   UNL     1      41.835  -0.011  14.061  0.00  0.00    +0.000 C 
ENDBRANCH  35  37
ENDBRANCH  20  35
BRANCH   6  39
ATOM     39  C   UNL     1      52.840  -0.396  12.211  0.00  0.00    +0.000 C 
BRANCH  39  41
ATOM     40  O   UNL     1      53.102   0.907  10.034  0.00  0.00    +0.000 OA
ATOM     41  C   UNL     1      52.445   0.728  11.314  0.00  0.00    +0.000 C 
ATOM     42  C   UNL     1      51.877   0.307  10.036  0.00  0.00    +0.000 C 
ATOM     43  C   UNL     1      52.224   2.139  11.959  0.00  0.00    +0.000 C 
BRANCH  42  44
ATOM     44  C   UNL     1      50.770   0.990   9.430  0.00  0.00    +0.000 C 
ATOM     45  C   UNL     1      50.789   1.298   7.954  0.00  0.00    +0.000 C 
BRANCH  44  46
ATOM     46  C   UNL     1      49.486   0.879  10.027  0.00  0.00    +0.000 C 
ATOM     47  C   UNL     1      48.395   0.888  10.525  0.00  0.00    +0.000 C 
ATOM     48  C   UNL     1      47.012   1.043  11.175  0.00  0.00    +0.000 C 
ENDBRANCH  44  46
ENDBRANCH  42  44
ENDBRANCH  39  41
BRANCH  39  49
ATOM     49  O   UNL     1      54.101  -0.454  12.787  0.00  0.00    +0.000 OA
ATOM     50  H   UNL     1      54.161   0.069  13.610  0.00  0.00    +0.000 HD
ENDBRANCH  39  49
ENDBRANCH   6  39
BRANCH   9  51
ATOM     51  C   UNL     1      51.401  -0.685  16.588  0.00  0.00    +0.000 C 
BRANCH  51  52
ATOM     52  O   UNL     1      51.762  -0.804  17.865  0.00  0.00    +0.000 OA
ATOM     53  H   UNL     1      52.733  -0.774  17.952  0.00  0.00    +0.000 HD
ENDBRANCH  51  52
ENDBRANCH   9  51
TORSDOF 13
ENDMDL
MODEL 9
REMARK VINA RESULT:      -5.1     11.651     15.973
REMARK  Name = 101808841_CandidaspongiolideA.pdbqt.pdb
REMARK  13 active torsions:
REMARK  status: ('A' for Active; 'I' for Inactive)
REMARK    1  A    between atoms: C_6  and  C_39
REMARK    2  A    between atoms: C_9  and  O_27
REMARK    3  A    between atoms: C_9  and  C_51
REMARK    4  A    between atoms: C_10  and  O_29
REMARK    5  A    between atoms: C_14  and  O_31
REMARK    6  A    between atoms: C_15  and  O_33
REMARK    7  A    between atoms: C_20  and  O_35
REMARK    8  A    between atoms: O_35  and  C_37
REMARK    9  A    between atoms: C_39  and  C_41
REMARK   10  A    between atoms: C_39  and  O_49
REMARK   11  A    between atoms: C_42  and  C_44
REMARK   12  A    between atoms: C_44  and  C_46
REMARK   13  A    between atoms: C_51  and  O_52
REMARK                            x       y       z     vdW  Elec       q    Type
REMARK                         _______ _______ _______ _____ _____    ______ ____
ROOT
ATOM      1  O   UNL     1      24.323  -6.212  30.197  0.00  0.00    +0.000 OA
ATOM      2  O   UNL     1      27.913  -5.422  28.255  0.00  0.00    +0.000 OA
ATOM      3  O   UNL     1      24.100  -8.311  29.266  0.00  0.00    +0.000 OA
ATOM      4  O   UNL     1      25.461   0.584  29.445  0.00  0.00    +0.000 OA
ATOM      5  O   UNL     1      24.245  -4.251  32.256  0.00  0.00    +0.000 OA
ATOM      6  C   UNL     1      25.585  -5.202  27.970  0.00  0.00    +0.000 C 
ATOM      7  C   UNL     1      26.956  -4.647  28.200  0.00  0.00    +0.000 C 
ATOM      8  C   UNL     1      24.899  -5.739  29.095  0.00  0.00    +0.000 C 
ATOM      9  C   UNL     1      27.042  -3.117  28.450  0.00  0.00    +0.000 C 
ATOM     10  C   UNL     1      26.553  -2.776  29.848  0.00  0.00    +0.000 C 
ATOM     11  C   UNL     1      25.918  -1.539  30.163  0.00  0.00    +0.000 C 
ATOM     12  C   UNL     1      24.052  -7.539  30.213  0.00  0.00    +0.000 C 
ATOM     13  C   UNL     1      25.292  -0.239  30.339  0.00  0.00    +0.000 C 
ATOM     14  C   UNL     1      23.722  -8.001  31.582  0.00  0.00    +0.000 C 
ATOM     15  C   UNL     1      23.553  -7.131  32.728  0.00  0.00    +0.000 C 
ATOM     16  C   UNL     1      24.486   0.048  31.570  0.00  0.00    +0.000 C 
ATOM     17  C   UNL     1      22.687  -5.961  32.809  0.00  0.00    +0.000 C 
ATOM     18  C   UNL     1      22.753  -3.736  34.058  0.00  0.00    +0.000 C 
ATOM     19  C   UNL     1      23.328  -4.622  32.992  0.00  0.00    +0.000 C 
ATOM     20  C   UNL     1      23.082  -2.309  34.049  0.00  0.00    +0.000 C 
ATOM     21  C   UNL     1      24.391  -0.876  32.640  0.00  0.00    +0.000 C 
ATOM     22  C   UNL     1      24.332  -1.729  33.613  0.00  0.00    +0.000 C 
ATOM     23  C   UNL     1      23.725   1.340  31.778  0.00  0.00    +0.000 C 
ATOM     24  C   UNL     1      21.348  -5.986  32.071  0.00  0.00    +0.000 C 
ATOM     25  C   UNL     1      21.922  -4.321  35.194  0.00  0.00    +0.000 C 
ATOM     26  C   UNL     1      25.659  -2.210  34.143  0.00  0.00    +0.000 C 
ENDROOT
BRANCH   9  27
ATOM     27  O   UNL     1      26.211  -2.441  27.506  0.00  0.00    +0.000 OA
ATOM     28  H   UNL     1      25.459  -3.031  27.314  0.00  0.00    +0.000 HD
ENDBRANCH   9  27
BRANCH  10  29
ATOM     29  O   UNL     1      26.761  -3.697  30.855  0.00  0.00    +0.000 OA
ATOM     30  H   UNL     1      26.512  -4.610  30.615  0.00  0.00    +0.000 HD
ENDBRANCH  10  29
BRANCH  14  31
ATOM     31  O   UNL     1      23.614  -9.360  31.817  0.00  0.00    +0.000 OA
ATOM     32  H   UNL     1      22.908  -9.752  31.259  0.00  0.00    +0.000 HD
ENDBRANCH  14  31
BRANCH  15  33
ATOM     33  O   UNL     1      23.843  -7.734  33.941  0.00  0.00    +0.000 OA
ATOM     34  C   UNL     1      22.674  -7.886  34.701  0.00  0.00    +0.000 C 
ENDBRANCH  15  33
BRANCH  20  35
ATOM     35  O   UNL     1      22.297  -1.423  34.835  0.00  0.00    +0.000 OA
BRANCH  35  37
ATOM     36  O   UNL     1      20.966  -0.888  32.995  0.00  0.00    +0.000 OA
ATOM     37  C   UNL     1      21.232  -0.891  34.181  0.00  0.00    +0.000 C 
ATOM     38  C   UNL     1      20.278  -0.158  35.050  0.00  0.00    +0.000 C 
ENDBRANCH  35  37
ENDBRANCH  20  35
BRANCH   6  39
ATOM     39  C   UNL     1      25.038  -5.280  26.631  0.00  0.00    +0.000 C 
BRANCH  39  41
ATOM     40  O   UNL     1      25.318  -5.809  24.152  0.00  0.00    +0.000 OA
ATOM     41  C   UNL     1      25.786  -5.931  25.518  0.00  0.00    +0.000 C 
ATOM     42  C   UNL     1      26.345  -5.000  24.542  0.00  0.00    +0.000 C 
ATOM     43  C   UNL     1      26.297  -7.397  25.737  0.00  0.00    +0.000 C 
BRANCH  42  44
ATOM     44  C   UNL     1      27.640  -5.193  23.955  0.00  0.00    +0.000 C 
ATOM     45  C   UNL     1      27.771  -5.900  22.630  0.00  0.00    +0.000 C 
BRANCH  44  46
ATOM     46  C   UNL     1      28.684  -4.288  24.286  0.00  0.00    +0.000 C 
ATOM     47  C   UNL     1      29.620  -3.605  24.596  0.00  0.00    +0.000 C 
ATOM     48  C   UNL     1      30.873  -2.849  25.059  0.00  0.00    +0.000 C 
ENDBRANCH  44  46
ENDBRANCH  42  44
ENDBRANCH  39  41
BRANCH  39  49
ATOM     49  O   UNL     1      23.676  -5.031  26.540  0.00  0.00    +0.000 OA
ATOM     50  H   UNL     1      23.329  -5.169  25.638  0.00  0.00    +0.000 HD
ENDBRANCH  39  49
ENDBRANCH   6  39
BRANCH   9  51
ATOM     51  C   UNL     1      28.436  -2.637  28.297  0.00  0.00    +0.000 C 
BRANCH  51  52
ATOM     52  O   UNL     1      29.690  -2.215  28.134  0.00  0.00    +0.000 OA
ATOM     53  H   UNL     1      29.754  -1.612  27.371  0.00  0.00    +0.000 HD
ENDBRANCH  51  52
ENDBRANCH   9  51
TORSDOF 13
ENDMDL
