MODEL 1
REMARK VINA RESULT:      -8.3      0.000      0.000
REMARK  Name = 101808842_CandidaspongiolideB.pdbqt.pdb
REMARK  12 active torsions:
REMARK  status: ('A' for Active; 'I' for Inactive)
REMARK    1  A    between atoms: C_6  and  C_42
REMARK    2  A    between atoms: C_7  and  O_28
REMARK    3  A    between atoms: C_10  and  O_30
REMARK    4  A    between atoms: C_13  and  O_32
REMARK    5  A    between atoms: C_19  and  O_34
REMARK    6  A    between atoms: C_20  and  O_38
REMARK    7  A    between atoms: C_21  and  O_36
REMARK    8  A    between atoms: O_38  and  C_40
REMARK    9  A    between atoms: C_42  and  C_44
REMARK   10  A    between atoms: C_42  and  O_52
REMARK   11  A    between atoms: C_45  and  C_47
REMARK   12  A    between atoms: C_47  and  C_49
REMARK                            x       y       z     vdW  Elec       q    Type
REMARK                         _______ _______ _______ _____ _____    ______ ____
ROOT
ATOM      1  O   UNL     1      42.810  -3.309  13.164  0.00  0.00    +0.000 OA
ATOM      2  O   UNL     1      47.611   1.471  12.016  0.00  0.00    +0.000 OA
ATOM      3  O   UNL     1      45.271  -0.841  14.699  0.00  0.00    +0.000 OA
ATOM      4  O   UNL     1      48.025  -0.773  12.361  0.00  0.00    +0.000 OA
ATOM      5  O   UNL     1      47.499  -2.539  10.043  0.00  0.00    +0.000 OA
ATOM      6  C   UNL     1      45.311   1.172  13.505  0.00  0.00    +0.000 C 
ATOM      7  C   UNL     1      43.831  -0.791  12.702  0.00  0.00    +0.000 C 
ATOM      8  C   UNL     1      44.842  -0.225  13.723  0.00  0.00    +0.000 C 
ATOM      9  C   UNL     1      46.511   1.373  12.766  0.00  0.00    +0.000 C 
ATOM     10  C   UNL     1      44.565  -1.439  11.512  0.00  0.00    +0.000 C 
ATOM     11  C   UNL     1      44.267  -2.816  11.289  0.00  0.00    +0.000 C 
ATOM     12  C   UNL     1      43.119  -1.998  13.232  0.00  0.00    +0.000 C 
ATOM     13  C   UNL     1      43.447  -3.880  11.949  0.00  0.00    +0.000 C 
ATOM     14  C   UNL     1      44.316  -5.081  12.349  0.00  0.00    +0.000 C 
ATOM     15  C   UNL     1      45.740  -4.992  12.352  0.00  0.00    +0.000 C 
ATOM     16  C   UNL     1      43.816  -6.487  12.667  0.00  0.00    +0.000 C 
ATOM     17  C   UNL     1      48.252   0.289  11.799  0.00  0.00    +0.000 C 
ATOM     18  C   UNL     1      47.028  -4.847  12.305  0.00  0.00    +0.000 C 
ATOM     19  C   UNL     1      49.234   0.427  10.699  0.00  0.00    +0.000 C 
ATOM     20  C   UNL     1      47.795  -5.243  11.146  0.00  0.00    +0.000 C 
ATOM     21  C   UNL     1      49.747  -0.733   9.996  0.00  0.00    +0.000 C 
ATOM     22  C   UNL     1      48.837  -4.457  10.489  0.00  0.00    +0.000 C 
ATOM     23  C   UNL     1      49.814  -2.098  10.497  0.00  0.00    +0.000 C 
ATOM     24  C   UNL     1      48.618  -2.982  10.324  0.00  0.00    +0.000 C 
ATOM     25  C   UNL     1      47.657  -4.069  13.425  0.00  0.00    +0.000 C 
ATOM     26  C   UNL     1      49.846  -5.154   9.577  0.00  0.00    +0.000 C 
ATOM     27  C   UNL     1      50.985  -2.492  11.389  0.00  0.00    +0.000 C 
ENDROOT
BRANCH   7  28
ATOM     28  O   UNL     1      42.872   0.121  12.206  0.00  0.00    +0.000 OA
ATOM     29  H   UNL     1      42.020  -0.130  12.607  0.00  0.00    +0.000 HD
ENDBRANCH   7  28
BRANCH  10  30
ATOM     30  O   UNL     1      45.432  -0.744  10.708  0.00  0.00    +0.000 OA
ATOM     31  H   UNL     1      46.141  -1.326  10.364  0.00  0.00    +0.000 HD
ENDBRANCH  10  30
BRANCH  13  32
ATOM     32  O   UNL     1      42.422  -4.268  11.039  0.00  0.00    +0.000 OA
ATOM     33  H   UNL     1      42.856  -4.834  10.380  0.00  0.00    +0.000 HD
ENDBRANCH  13  32
BRANCH  19  34
ATOM     34  O   UNL     1      49.600   1.661  10.192  0.00  0.00    +0.000 OA
ATOM     35  H   UNL     1      50.193   2.162  10.790  0.00  0.00    +0.000 HD
ENDBRANCH  19  34
BRANCH  21  36
ATOM     36  O   UNL     1      50.561  -0.441   8.914  0.00  0.00    +0.000 OA
ATOM     37  C   UNL     1      51.909  -0.366   9.306  0.00  0.00    +0.000 C 
ENDBRANCH  21  36
BRANCH  20  38
ATOM     38  O   UNL     1      47.707  -6.616  10.816  0.00  0.00    +0.000 OA
BRANCH  38  40
ATOM     39  O   UNL     1      46.128  -6.113   9.178  0.00  0.00    +0.000 OA
ATOM     40  C   UNL     1      47.017  -6.791   9.659  0.00  0.00    +0.000 C 
ATOM     41  C   UNL     1      47.349  -8.027   8.909  0.00  0.00    +0.000 C 
ENDBRANCH  38  40
ENDBRANCH  20  38
BRANCH   6  42
ATOM     42  C   UNL     1      44.659   2.240  14.231  0.00  0.00    +0.000 C 
BRANCH  42  44
ATOM     43  O   UNL     1      45.830   4.420  14.749  0.00  0.00    +0.000 OA
ATOM     44  C   UNL     1      45.396   3.110  15.185  0.00  0.00    +0.000 C 
ATOM     45  C   UNL     1      44.685   4.346  15.493  0.00  0.00    +0.000 C 
ATOM     46  C   UNL     1      46.517   2.473  16.072  0.00  0.00    +0.000 C 
BRANCH  45  47
ATOM     47  C   UNL     1      44.694   4.990  16.772  0.00  0.00    +0.000 C 
ATOM     48  C   UNL     1      45.652   6.122  17.045  0.00  0.00    +0.000 C 
BRANCH  47  49
ATOM     49  C   UNL     1      43.561   4.912  17.620  0.00  0.00    +0.000 C 
ATOM     50  C   UNL     1      42.599   4.914  18.335  0.00  0.00    +0.000 C 
ATOM     51  C   UNL     1      41.380   5.039  19.253  0.00  0.00    +0.000 C 
ENDBRANCH  47  49
ENDBRANCH  45  47
ENDBRANCH  42  44
BRANCH  42  52
ATOM     52  O   UNL     1      43.310   2.414  13.949  0.00  0.00    +0.000 OA
ATOM     53  H   UNL     1      42.837   1.561  13.873  0.00  0.00    +0.000 HD
ENDBRANCH  42  52
ENDBRANCH   6  42
TORSDOF 12
ENDMDL
MODEL 2
REMARK VINA RESULT:      -8.0     33.243     36.851
REMARK  Name = 101808842_CandidaspongiolideB.pdbqt.pdb
REMARK  12 active torsions:
REMARK  status: ('A' for Active; 'I' for Inactive)
REMARK    1  A    between atoms: C_6  and  C_42
REMARK    2  A    between atoms: C_7  and  O_28
REMARK    3  A    between atoms: C_10  and  O_30
REMARK    4  A    between atoms: C_13  and  O_32
REMARK    5  A    between atoms: C_19  and  O_34
REMARK    6  A    between atoms: C_20  and  O_38
REMARK    7  A    between atoms: C_21  and  O_36
REMARK    8  A    between atoms: O_38  and  C_40
REMARK    9  A    between atoms: C_42  and  C_44
REMARK   10  A    between atoms: C_42  and  O_52
REMARK   11  A    between atoms: C_45  and  C_47
REMARK   12  A    between atoms: C_47  and  C_49
REMARK                            x       y       z     vdW  Elec       q    Type
REMARK                         _______ _______ _______ _____ _____    ______ ____
ROOT
ATOM      1  O   UNL     1      25.959  24.135   0.791  0.00  0.00    +0.000 OA
ATOM      2  O   UNL     1      21.114  19.614  -1.027  0.00  0.00    +0.000 OA
ATOM      3  O   UNL     1      22.465  22.775   1.463  0.00  0.00    +0.000 OA
ATOM      4  O   UNL     1      21.263  21.783  -1.798  0.00  0.00    +0.000 OA
ATOM      5  O   UNL     1      23.314  22.260  -3.879  0.00  0.00    +0.000 OA
ATOM      6  C   UNL     1      22.408  20.444   1.261  0.00  0.00    +0.000 C 
ATOM      7  C   UNL     1      24.592  21.741   0.777  0.00  0.00    +0.000 C 
ATOM      8  C   UNL     1      23.103  21.759   1.186  0.00  0.00    +0.000 C 
ATOM      9  C   UNL     1      21.702  19.988   0.111  0.00  0.00    +0.000 C 
ATOM     10  C   UNL     1      24.735  21.808  -0.757  0.00  0.00    +0.000 C 
ATOM     11  C   UNL     1      25.491  22.912  -1.250  0.00  0.00    +0.000 C 
ATOM     12  C   UNL     1      25.286  23.018   1.139  0.00  0.00    +0.000 C 
ATOM     13  C   UNL     1      26.171  24.116  -0.679  0.00  0.00    +0.000 C 
ATOM     14  C   UNL     1      25.612  25.410  -1.289  0.00  0.00    +0.000 C 
ATOM     15  C   UNL     1      24.401  25.406  -2.044  0.00  0.00    +0.000 C 
ATOM     16  C   UNL     1      26.288  26.777  -1.274  0.00  0.00    +0.000 C 
ATOM     17  C   UNL     1      21.030  20.595  -1.967  0.00  0.00    +0.000 C 
ATOM     18  C   UNL     1      23.311  25.321  -2.741  0.00  0.00    +0.000 C 
ATOM     19  C   UNL     1      20.694  20.018  -3.289  0.00  0.00    +0.000 C 
ATOM     20  C   UNL     1      23.338  25.180  -4.179  0.00  0.00    +0.000 C 
ATOM     21  C   UNL     1      20.940  20.752  -4.516  0.00  0.00    +0.000 C 
ATOM     22  C   UNL     1      22.553  24.234  -4.970  0.00  0.00    +0.000 C 
ATOM     23  C   UNL     1      21.047  22.195  -4.663  0.00  0.00    +0.000 C 
ATOM     24  C   UNL     1      22.381  22.839  -4.446  0.00  0.00    +0.000 C 
ATOM     25  C   UNL     1      22.030  25.176  -1.970  0.00  0.00    +0.000 C 
ATOM     26  C   UNL     1      22.350  24.487  -6.463  0.00  0.00    +0.000 C 
ATOM     27  C   UNL     1      19.767  23.015  -4.782  0.00  0.00    +0.000 C 
ENDROOT
BRANCH   7  28
ATOM     28  O   UNL     1      25.357  20.655   1.260  0.00  0.00    +0.000 OA
ATOM     29  H   UNL     1      24.758  20.122   1.815  0.00  0.00    +0.000 HD
ENDBRANCH   7  28
BRANCH  10  30
ATOM     30  O   UNL     1      24.192  20.867  -1.593  0.00  0.00    +0.000 OA
ATOM     31  H   UNL     1      23.680  20.198  -1.091  0.00  0.00    +0.000 HD
ENDBRANCH  10  30
BRANCH  13  32
ATOM     32  O   UNL     1      27.567  23.991  -0.935  0.00  0.00    +0.000 OA
ATOM     33  H   UNL     1      27.639  23.552  -1.798  0.00  0.00    +0.000 HD
ENDBRANCH  13  32
BRANCH  19  34
ATOM     34  O   UNL     1      20.269  18.711  -3.433  0.00  0.00    +0.000 OA
ATOM     35  H   UNL     1      19.842  18.537  -4.297  0.00  0.00    +0.000 HD
ENDBRANCH  19  34
BRANCH  21  36
ATOM     36  O   UNL     1      20.690  20.038  -5.676  0.00  0.00    +0.000 OA
ATOM     37  C   UNL     1      21.880  19.810  -6.391  0.00  0.00    +0.000 C 
ENDBRANCH  21  36
BRANCH  20  38
ATOM     38  O   UNL     1      23.969  26.242  -4.868  0.00  0.00    +0.000 OA
BRANCH  38  40
ATOM     39  O   UNL     1      22.139  27.683  -4.916  0.00  0.00    +0.000 OA
ATOM     40  C   UNL     1      23.299  27.408  -4.675  0.00  0.00    +0.000 C 
ATOM     41  C   UNL     1      24.123  28.529  -4.157  0.00  0.00    +0.000 C 
ENDBRANCH  38  40
ENDBRANCH  20  38
BRANCH   6  42
ATOM     42  C   UNL     1      22.293  19.796   2.549  0.00  0.00    +0.000 C 
BRANCH  42  44
ATOM     43  O   UNL     1      20.671  19.986   4.479  0.00  0.00    +0.000 OA
ATOM     44  C   UNL     1      20.975  19.477   3.158  0.00  0.00    +0.000 C 
ATOM     45  C   UNL     1      20.161  20.663   3.405  0.00  0.00    +0.000 C 
ATOM     46  C   UNL     1      20.423  18.018   3.038  0.00  0.00    +0.000 C 
BRANCH  45  47
ATOM     47  C   UNL     1      18.736  20.709   3.278  0.00  0.00    +0.000 C 
ATOM     48  C   UNL     1      17.869  20.854   4.502  0.00  0.00    +0.000 C 
BRANCH  47  49
ATOM     49  C   UNL     1      18.139  21.070   2.043  0.00  0.00    +0.000 C 
ATOM     50  C   UNL     1      17.615  21.311   0.993  0.00  0.00    +0.000 C 
ATOM     51  C   UNL     1      16.930  21.496  -0.364  0.00  0.00    +0.000 C 
ENDBRANCH  47  49
ENDBRANCH  45  47
ENDBRANCH  42  44
BRANCH  42  52
ATOM     52  O   UNL     1      23.497  19.466   3.158  0.00  0.00    +0.000 OA
ATOM     53  H   UNL     1      23.454  18.602   3.615  0.00  0.00    +0.000 HD
ENDBRANCH  42  52
ENDBRANCH   6  42
TORSDOF 12
ENDMDL
MODEL 3
REMARK VINA RESULT:      -7.8     32.953     35.967
REMARK  Name = 101808842_CandidaspongiolideB.pdbqt.pdb
REMARK  12 active torsions:
REMARK  status: ('A' for Active; 'I' for Inactive)
REMARK    1  A    between atoms: C_6  and  C_42
REMARK    2  A    between atoms: C_7  and  O_28
REMARK    3  A    between atoms: C_10  and  O_30
REMARK    4  A    between atoms: C_13  and  O_32
REMARK    5  A    between atoms: C_19  and  O_34
REMARK    6  A    between atoms: C_20  and  O_38
REMARK    7  A    between atoms: C_21  and  O_36
REMARK    8  A    between atoms: O_38  and  C_40
REMARK    9  A    between atoms: C_42  and  C_44
REMARK   10  A    between atoms: C_42  and  O_52
REMARK   11  A    between atoms: C_45  and  C_47
REMARK   12  A    between atoms: C_47  and  C_49
REMARK                            x       y       z     vdW  Elec       q    Type
REMARK                         _______ _______ _______ _____ _____    ______ ____
ROOT
ATOM      1  O   UNL     1      26.033  25.552  -4.374  0.00  0.00    +0.000 OA
ATOM      2  O   UNL     1      25.180  24.269   2.323  0.00  0.00    +0.000 OA
ATOM      3  O   UNL     1      24.506  26.712  -1.083  0.00  0.00    +0.000 OA
ATOM      4  O   UNL     1      23.716  23.642   0.653  0.00  0.00    +0.000 OA
ATOM      5  O   UNL     1      24.529  21.280  -0.937  0.00  0.00    +0.000 OA
ATOM      6  C   UNL     1      25.974  26.356   0.706  0.00  0.00    +0.000 C 
ATOM      7  C   UNL     1      26.620  25.599  -1.681  0.00  0.00    +0.000 C 
ATOM      8  C   UNL     1      25.596  26.258  -0.732  0.00  0.00    +0.000 C 
ATOM      9  C   UNL     1      25.560  25.314   1.584  0.00  0.00    +0.000 C 
ATOM     10  C   UNL     1      26.411  24.073  -1.732  0.00  0.00    +0.000 C 
ATOM     11  C   UNL     1      26.144  23.538  -3.028  0.00  0.00    +0.000 C 
ATOM     12  C   UNL     1      26.343  25.928  -3.116  0.00  0.00    +0.000 C 
ATOM     13  C   UNL     1      25.942  24.069  -4.412  0.00  0.00    +0.000 C 
ATOM     14  C   UNL     1      24.570  23.659  -4.968  0.00  0.00    +0.000 C 
ATOM     15  C   UNL     1      23.559  23.124  -4.115  0.00  0.00    +0.000 C 
ATOM     16  C   UNL     1      24.160  23.656  -6.437  0.00  0.00    +0.000 C 
ATOM     17  C   UNL     1      24.304  23.430   1.704  0.00  0.00    +0.000 C 
ATOM     18  C   UNL     1      22.699  22.620  -3.286  0.00  0.00    +0.000 C 
ATOM     19  C   UNL     1      24.209  22.147   2.437  0.00  0.00    +0.000 C 
ATOM     20  C   UNL     1      22.560  21.192  -3.112  0.00  0.00    +0.000 C 
ATOM     21  C   UNL     1      23.688  20.952   1.802  0.00  0.00    +0.000 C 
ATOM     22  C   UNL     1      22.476  20.481  -1.838  0.00  0.00    +0.000 C 
ATOM     23  C   UNL     1      22.784  20.893   0.663  0.00  0.00    +0.000 C 
ATOM     24  C   UNL     1      23.367  20.925  -0.715  0.00  0.00    +0.000 C 
ATOM     25  C   UNL     1      21.997  23.586  -2.376  0.00  0.00    +0.000 C 
ATOM     26  C   UNL     1      21.899  19.067  -1.800  0.00  0.00    +0.000 C 
ATOM     27  C   UNL     1      21.287  21.054   0.909  0.00  0.00    +0.000 C 
ENDROOT
BRANCH   7  28
ATOM     28  O   UNL     1      27.981  25.866  -1.408  0.00  0.00    +0.000 OA
ATOM     29  H   UNL     1      28.393  26.094  -2.262  0.00  0.00    +0.000 HD
ENDBRANCH   7  28
BRANCH  10  30
ATOM     30  O   UNL     1      26.492  23.276  -0.620  0.00  0.00    +0.000 OA
ATOM     31  H   UNL     1      25.643  22.818  -0.449  0.00  0.00    +0.000 HD
ENDBRANCH  10  30
BRANCH  13  32
ATOM     32  O   UNL     1      26.997  23.571  -5.229  0.00  0.00    +0.000 OA
ATOM     33  H   UNL     1      27.621  23.141  -4.620  0.00  0.00    +0.000 HD
ENDBRANCH  13  32
BRANCH  19  34
ATOM     34  O   UNL     1      24.741  21.984   3.703  0.00  0.00    +0.000 OA
ATOM     35  H   UNL     1      24.763  22.816   4.221  0.00  0.00    +0.000 HD
ENDBRANCH  19  34
BRANCH  21  36
ATOM     36  O   UNL     1      23.775  19.803   2.571  0.00  0.00    +0.000 OA
ATOM     37  C   UNL     1      22.531  19.488   3.145  0.00  0.00    +0.000 C 
ENDBRANCH  21  36
BRANCH  20  38
ATOM     38  O   UNL     1      22.195  20.483  -4.281  0.00  0.00    +0.000 OA
BRANCH  38  40
ATOM     39  O   UNL     1      19.896  20.837  -4.132  0.00  0.00    +0.000 OA
ATOM     40  C   UNL     1      20.966  20.866  -4.713  0.00  0.00    +0.000 C 
ATOM     41  C   UNL     1      20.909  21.324  -6.123  0.00  0.00    +0.000 C 
ENDBRANCH  38  40
ENDBRANCH  20  38
BRANCH   6  42
ATOM     42  C   UNL     1      26.545  27.594   1.187  0.00  0.00    +0.000 C 
BRANCH  42  44
ATOM     43  O   UNL     1      26.592  29.263   3.085  0.00  0.00    +0.000 OA
ATOM     44  C   UNL     1      26.682  27.889   2.637  0.00  0.00    +0.000 C 
ATOM     45  C   UNL     1      25.479  28.479   3.214  0.00  0.00    +0.000 C 
ATOM     46  C   UNL     1      27.806  27.164   3.450  0.00  0.00    +0.000 C 
BRANCH  45  47
ATOM     47  C   UNL     1      25.008  28.225   4.542  0.00  0.00    +0.000 C 
ATOM     48  C   UNL     1      24.597  29.370   5.433  0.00  0.00    +0.000 C 
BRANCH  47  49
ATOM     49  C   UNL     1      24.496  26.949   4.888  0.00  0.00    +0.000 C 
ATOM     50  C   UNL     1      24.016  25.879   5.132  0.00  0.00    +0.000 C 
ATOM     51  C   UNL     1      23.310  24.540   5.368  0.00  0.00    +0.000 C 
ENDBRANCH  47  49
ENDBRANCH  45  47
ENDBRANCH  42  44
BRANCH  42  52
ATOM     52  O   UNL     1      26.984  28.469   0.201  0.00  0.00    +0.000 OA
ATOM     53  H   UNL     1      27.820  28.913   0.448  0.00  0.00    +0.000 HD
ENDBRANCH  42  52
ENDBRANCH   6  42
TORSDOF 12
ENDMDL
MODEL 4
REMARK VINA RESULT:      -7.8     33.653     36.247
REMARK  Name = 101808842_CandidaspongiolideB.pdbqt.pdb
REMARK  12 active torsions:
REMARK  status: ('A' for Active; 'I' for Inactive)
REMARK    1  A    between atoms: C_6  and  C_42
REMARK    2  A    between atoms: C_7  and  O_28
REMARK    3  A    between atoms: C_10  and  O_30
REMARK    4  A    between atoms: C_13  and  O_32
REMARK    5  A    between atoms: C_19  and  O_34
REMARK    6  A    between atoms: C_20  and  O_38
REMARK    7  A    between atoms: C_21  and  O_36
REMARK    8  A    between atoms: O_38  and  C_40
REMARK    9  A    between atoms: C_42  and  C_44
REMARK   10  A    between atoms: C_42  and  O_52
REMARK   11  A    between atoms: C_45  and  C_47
REMARK   12  A    between atoms: C_47  and  C_49
REMARK                            x       y       z     vdW  Elec       q    Type
REMARK                         _______ _______ _______ _____ _____    ______ ____
ROOT
ATOM      1  O   UNL     1      26.213  24.958  -0.784  0.00  0.00    +0.000 OA
ATOM      2  O   UNL     1      21.729  22.668   3.892  0.00  0.00    +0.000 OA
ATOM      3  O   UNL     1      23.305  25.816   1.520  0.00  0.00    +0.000 OA
ATOM      4  O   UNL     1      21.336  22.787   1.621  0.00  0.00    +0.000 OA
ATOM      5  O   UNL     1      22.586  20.651  -0.004  0.00  0.00    +0.000 OA
ATOM      6  C   UNL     1      23.517  24.745   3.590  0.00  0.00    +0.000 C 
ATOM      7  C   UNL     1      25.253  24.324   1.721  0.00  0.00    +0.000 C 
ATOM      8  C   UNL     1      23.967  25.032   2.200  0.00  0.00    +0.000 C 
ATOM      9  C   UNL     1      22.571  23.699   3.790  0.00  0.00    +0.000 C 
ATOM     10  C   UNL     1      24.921  22.947   1.112  0.00  0.00    +0.000 C 
ATOM     11  C   UNL     1      25.334  22.764  -0.242  0.00  0.00    +0.000 C 
ATOM     12  C   UNL     1      25.838  24.987   0.511  0.00  0.00    +0.000 C 
ATOM     13  C   UNL     1      25.978  23.589  -1.311  0.00  0.00    +0.000 C 
ATOM     14  C   UNL     1      25.087  23.672  -2.559  0.00  0.00    +0.000 C 
ATOM     15  C   UNL     1      23.719  23.268  -2.517  0.00  0.00    +0.000 C 
ATOM     16  C   UNL     1      25.539  24.063  -3.963  0.00  0.00    +0.000 C 
ATOM     17  C   UNL     1      21.232  22.228   2.703  0.00  0.00    +0.000 C 
ATOM     18  C   UNL     1      22.494  22.857  -2.411  0.00  0.00    +0.000 C 
ATOM     19  C   UNL     1      20.601  20.897   2.866  0.00  0.00    +0.000 C 
ATOM     20  C   UNL     1      22.111  21.511  -2.770  0.00  0.00    +0.000 C 
ATOM     21  C   UNL     1      20.365  20.030   1.728  0.00  0.00    +0.000 C 
ATOM     22  C   UNL     1      21.266  20.613  -1.985  0.00  0.00    +0.000 C 
ATOM     23  C   UNL     1      20.221  20.435   0.338  0.00  0.00    +0.000 C 
ATOM     24  C   UNL     1      21.455  20.579  -0.497  0.00  0.00    +0.000 C 
ATOM     25  C   UNL     1      21.535  23.778  -1.712  0.00  0.00    +0.000 C 
ATOM     26  C   UNL     1      20.594  19.422  -2.666  0.00  0.00    +0.000 C 
ATOM     27  C   UNL     1      18.861  20.934  -0.140  0.00  0.00    +0.000 C 
ENDROOT
BRANCH   7  28
ATOM     28  O   UNL     1      26.271  24.163   2.687  0.00  0.00    +0.000 OA
ATOM     29  H   UNL     1      26.315  25.002   3.183  0.00  0.00    +0.000 HD
ENDBRANCH   7  28
BRANCH  10  30
ATOM     30  O   UNL     1      24.291  21.957   1.819  0.00  0.00    +0.000 OA
ATOM     31  H   UNL     1      23.399  21.774   1.457  0.00  0.00    +0.000 HD
ENDBRANCH  10  30
BRANCH  13  32
ATOM     32  O   UNL     1      27.238  22.998  -1.618  0.00  0.00    +0.000 OA
ATOM     33  H   UNL     1      27.058  22.339  -2.307  0.00  0.00    +0.000 HD
ENDBRANCH  13  32
BRANCH  19  34
ATOM     34  O   UNL     1      20.340  20.357   4.112  0.00  0.00    +0.000 OA
ATOM     35  H   UNL     1      20.961  19.641   4.359  0.00  0.00    +0.000 HD
ENDBRANCH  19  34
BRANCH  21  36
ATOM     36  O   UNL     1      19.883  18.772   2.050  0.00  0.00    +0.000 OA
ATOM     37  C   UNL     1      20.935  17.845   2.161  0.00  0.00    +0.000 C 
ENDBRANCH  21  36
BRANCH  20  38
ATOM     38  O   UNL     1      22.353  21.165  -4.121  0.00  0.00    +0.000 OA
BRANCH  38  40
ATOM     39  O   UNL     1      20.427  22.129  -5.012  0.00  0.00    +0.000 OA
ATOM     40  C   UNL     1      21.631  21.955  -4.958  0.00  0.00    +0.000 C 
ATOM     41  C   UNL     1      22.421  22.653  -6.001  0.00  0.00    +0.000 C 
ENDBRANCH  38  40
ENDBRANCH  20  38
BRANCH   6  42
ATOM     42  C   UNL     1      23.883  25.670   4.640  0.00  0.00    +0.000 C 
BRANCH  42  44
ATOM     43  O   UNL     1      24.498  28.014   5.360  0.00  0.00    +0.000 OA
ATOM     44  C   UNL     1      23.755  27.142   4.474  0.00  0.00    +0.000 C 
ATOM     45  C   UNL     1      25.015  27.785   4.114  0.00  0.00    +0.000 C 
ATOM     46  C   UNL     1      22.334  27.752   4.235  0.00  0.00    +0.000 C 
BRANCH  45  47
ATOM     47  C   UNL     1      25.129  28.910   3.236  0.00  0.00    +0.000 C 
ATOM     48  C   UNL     1      25.332  30.294   3.799  0.00  0.00    +0.000 C 
BRANCH  47  49
ATOM     49  C   UNL     1      25.504  28.725   1.881  0.00  0.00    +0.000 C 
ATOM     50  C   UNL     1      25.773  28.614   0.719  0.00  0.00    +0.000 C 
ATOM     51  C   UNL     1      26.016  28.539  -0.791  0.00  0.00    +0.000 C 
ENDBRANCH  47  49
ENDBRANCH  45  47
ENDBRANCH  42  44
BRANCH  42  52
ATOM     52  O   UNL     1      24.330  25.086   5.818  0.00  0.00    +0.000 OA
ATOM     53  H   UNL     1      23.822  25.392   6.596  0.00  0.00    +0.000 HD
ENDBRANCH  42  52
ENDBRANCH   6  42
TORSDOF 12
ENDMDL
MODEL 5
REMARK VINA RESULT:      -7.7      1.882      5.388
REMARK  Name = 101808842_CandidaspongiolideB.pdbqt.pdb
REMARK  12 active torsions:
REMARK  status: ('A' for Active; 'I' for Inactive)
REMARK    1  A    between atoms: C_6  and  C_42
REMARK    2  A    between atoms: C_7  and  O_28
REMARK    3  A    between atoms: C_10  and  O_30
REMARK    4  A    between atoms: C_13  and  O_32
REMARK    5  A    between atoms: C_19  and  O_34
REMARK    6  A    between atoms: C_20  and  O_38
REMARK    7  A    between atoms: C_21  and  O_36
REMARK    8  A    between atoms: O_38  and  C_40
REMARK    9  A    between atoms: C_42  and  C_44
REMARK   10  A    between atoms: C_42  and  O_52
REMARK   11  A    between atoms: C_45  and  C_47
REMARK   12  A    between atoms: C_47  and  C_49
REMARK                            x       y       z     vdW  Elec       q    Type
REMARK                         _______ _______ _______ _____ _____    ______ ____
ROOT
ATOM      1  O   UNL     1      50.255  -0.224  12.099  0.00  0.00    +0.000 OA
ATOM      2  O   UNL     1      43.662  -0.402  14.024  0.00  0.00    +0.000 OA
ATOM      3  O   UNL     1      46.787   1.300  11.710  0.00  0.00    +0.000 OA
ATOM      4  O   UNL     1      44.540  -1.489  12.188  0.00  0.00    +0.000 OA
ATOM      5  O   UNL     1      46.037  -3.976  12.772  0.00  0.00    +0.000 OA
ATOM      6  C   UNL     1      45.689   1.449  13.772  0.00  0.00    +0.000 C 
ATOM      7  C   UNL     1      48.034   0.369  13.619  0.00  0.00    +0.000 C 
ATOM      8  C   UNL     1      46.842   1.053  12.916  0.00  0.00    +0.000 C 
ATOM      9  C   UNL     1      44.605   0.535  13.908  0.00  0.00    +0.000 C 
ATOM     10  C   UNL     1      47.823  -1.156  13.687  0.00  0.00    +0.000 C 
ATOM     11  C   UNL     1      48.839  -1.940  13.063  0.00  0.00    +0.000 C 
ATOM     12  C   UNL     1      49.273   0.404  12.778  0.00  0.00    +0.000 C 
ATOM     13  C   UNL     1      50.084  -1.690  12.272  0.00  0.00    +0.000 C 
ATOM     14  C   UNL     1      50.007  -2.357  10.891  0.00  0.00    +0.000 C 
ATOM     15  C   UNL     1      48.770  -2.854  10.380  0.00  0.00    +0.000 C 
ATOM     16  C   UNL     1      51.186  -2.670   9.976  0.00  0.00    +0.000 C 
ATOM     17  C   UNL     1      43.786  -1.438  13.149  0.00  0.00    +0.000 C 
ATOM     18  C   UNL     1      47.618  -3.307   9.993  0.00  0.00    +0.000 C 
ATOM     19  C   UNL     1      42.932  -2.574  13.566  0.00  0.00    +0.000 C 
ATOM     20  C   UNL     1      47.240  -4.687  10.190  0.00  0.00    +0.000 C 
ATOM     21  C   UNL     1      43.170  -3.917  13.073  0.00  0.00    +0.000 C 
ATOM     22  C   UNL     1      45.962  -5.168  10.712  0.00  0.00    +0.000 C 
ATOM     23  C   UNL     1      43.848  -4.287  11.840  0.00  0.00    +0.000 C 
ATOM     24  C   UNL     1      45.338  -4.427  11.858  0.00  0.00    +0.000 C 
ATOM     25  C   UNL     1      46.623  -2.289   9.514  0.00  0.00    +0.000 C 
ATOM     26  C   UNL     1      45.539  -6.614  10.458  0.00  0.00    +0.000 C 
ATOM     27  C   UNL     1      43.055  -4.270  10.537  0.00  0.00    +0.000 C 
ENDROOT
BRANCH   7  28
ATOM     28  O   UNL     1      48.349   0.845  14.912  0.00  0.00    +0.000 OA
ATOM     29  H   UNL     1      47.541   1.269  15.254  0.00  0.00    +0.000 HD
ENDBRANCH   7  28
BRANCH  10  30
ATOM     30  O   UNL     1      46.747  -1.728  14.315  0.00  0.00    +0.000 OA
ATOM     31  H   UNL     1      46.688  -2.687  14.116  0.00  0.00    +0.000 HD
ENDBRANCH  10  30
BRANCH  13  32
ATOM     32  O   UNL     1      51.186  -2.191  13.023  0.00  0.00    +0.000 OA
ATOM     33  H   UNL     1      50.963  -3.111  13.236  0.00  0.00    +0.000 HD
ENDBRANCH  13  32
BRANCH  19  34
ATOM     34  O   UNL     1      41.966  -2.444  14.547  0.00  0.00    +0.000 OA
ATOM     35  H   UNL     1      41.139  -2.033  14.221  0.00  0.00    +0.000 HD
ENDBRANCH  19  34
BRANCH  21  36
ATOM     36  O   UNL     1      42.370  -4.893  13.645  0.00  0.00    +0.000 OA
ATOM     37  C   UNL     1      43.042  -6.127  13.692  0.00  0.00    +0.000 C 
ENDBRANCH  21  36
BRANCH  20  38
ATOM     38  O   UNL     1      48.083  -5.631   9.555  0.00  0.00    +0.000 OA
BRANCH  38  40
ATOM     39  O   UNL     1      49.057  -6.026  11.635  0.00  0.00    +0.000 OA
ATOM     40  C   UNL     1      48.836  -6.297  10.469  0.00  0.00    +0.000 C 
ATOM     41  C   UNL     1      49.546  -7.491   9.949  0.00  0.00    +0.000 C 
ENDBRANCH  38  40
ENDBRANCH  20  38
BRANCH   6  42
ATOM     42  C   UNL     1      45.617   2.813  14.246  0.00  0.00    +0.000 C 
BRANCH  42  44
ATOM     43  O   UNL     1      46.243   2.417  16.663  0.00  0.00    +0.000 OA
ATOM     44  C   UNL     1      45.456   3.141  15.687  0.00  0.00    +0.000 C 
ATOM     45  C   UNL     1      46.678   3.659  16.292  0.00  0.00    +0.000 C 
ATOM     46  C   UNL     1      44.013   3.351  16.255  0.00  0.00    +0.000 C 
BRANCH  45  47
ATOM     47  C   UNL     1      46.715   4.669  17.307  0.00  0.00    +0.000 C 
ATOM     48  C   UNL     1      47.080   4.307  18.724  0.00  0.00    +0.000 C 
BRANCH  47  49
ATOM     49  C   UNL     1      46.862   6.034  16.953  0.00  0.00    +0.000 C 
ATOM     50  C   UNL     1      46.919   7.190  16.644  0.00  0.00    +0.000 C 
ATOM     51  C   UNL     1      46.874   8.659  16.214  0.00  0.00    +0.000 C 
ENDBRANCH  47  49
ENDBRANCH  45  47
ENDBRANCH  42  44
BRANCH  42  52
ATOM     52  O   UNL     1      45.740   3.790  13.266  0.00  0.00    +0.000 OA
ATOM     53  H   UNL     1      45.867   3.405  12.376  0.00  0.00    +0.000 HD
ENDBRANCH  42  52
ENDBRANCH   6  42
TORSDOF 12
ENDMDL
MODEL 6
REMARK VINA RESULT:      -7.5     33.611     38.012
REMARK  Name = 101808842_CandidaspongiolideB.pdbqt.pdb
REMARK  12 active torsions:
REMARK  status: ('A' for Active; 'I' for Inactive)
REMARK    1  A    between atoms: C_6  and  C_42
REMARK    2  A    between atoms: C_7  and  O_28
REMARK    3  A    between atoms: C_10  and  O_30
REMARK    4  A    between atoms: C_13  and  O_32
REMARK    5  A    between atoms: C_19  and  O_34
REMARK    6  A    between atoms: C_20  and  O_38
REMARK    7  A    between atoms: C_21  and  O_36
REMARK    8  A    between atoms: O_38  and  C_40
REMARK    9  A    between atoms: C_42  and  C_44
REMARK   10  A    between atoms: C_42  and  O_52
REMARK   11  A    between atoms: C_45  and  C_47
REMARK   12  A    between atoms: C_47  and  C_49
REMARK                            x       y       z     vdW  Elec       q    Type
REMARK                         _______ _______ _______ _____ _____    ______ ____
ROOT
ATOM      1  O   UNL     1      21.979  27.263   6.242  0.00  0.00    +0.000 OA
ATOM      2  O   UNL     1      26.162  25.586   1.055  0.00  0.00    +0.000 OA
ATOM      3  O   UNL     1      22.291  25.676   2.794  0.00  0.00    +0.000 OA
ATOM      4  O   UNL     1      24.946  27.540   1.202  0.00  0.00    +0.000 OA
ATOM      5  O   UNL     1      26.047  29.595   3.027  0.00  0.00    +0.000 OA
ATOM      6  C   UNL     1      24.238  24.388   2.625  0.00  0.00    +0.000 C 
ATOM      7  C   UNL     1      23.732  25.708   4.790  0.00  0.00    +0.000 C 
ATOM      8  C   UNL     1      23.321  25.304   3.358  0.00  0.00    +0.000 C 
ATOM      9  C   UNL     1      25.230  24.963   1.779  0.00  0.00    +0.000 C 
ATOM     10  C   UNL     1      24.632  26.959   4.765  0.00  0.00    +0.000 C 
ATOM     11  C   UNL     1      24.141  28.077   5.505  0.00  0.00    +0.000 C 
ATOM     12  C   UNL     1      22.577  26.258   5.569  0.00  0.00    +0.000 C 
ATOM     13  C   UNL     1      22.914  28.417   6.289  0.00  0.00    +0.000 C 
ATOM     14  C   UNL     1      22.216  29.659   5.716  0.00  0.00    +0.000 C 
ATOM     15  C   UNL     1      22.562  30.172   4.430  0.00  0.00    +0.000 C 
ATOM     16  C   UNL     1      21.201  30.536   6.443  0.00  0.00    +0.000 C 
ATOM     17  C   UNL     1      25.958  26.923   0.905  0.00  0.00    +0.000 C 
ATOM     18  C   UNL     1      22.947  30.596   3.267  0.00  0.00    +0.000 C 
ATOM     19  C   UNL     1      27.187  27.582   0.403  0.00  0.00    +0.000 C 
ATOM     20  C   UNL     1      23.940  31.637   3.130  0.00  0.00    +0.000 C 
ATOM     21  C   UNL     1      27.386  29.011   0.540  0.00  0.00    +0.000 C 
ATOM     22  C   UNL     1      25.089  31.623   2.226  0.00  0.00    +0.000 C 
ATOM     23  C   UNL     1      26.353  30.026   0.686  0.00  0.00    +0.000 C 
ATOM     24  C   UNL     1      25.847  30.338   2.060  0.00  0.00    +0.000 C 
ATOM     25  C   UNL     1      22.463  29.822   2.075  0.00  0.00    +0.000 C 
ATOM     26  C   UNL     1      25.784  32.935   1.870  0.00  0.00    +0.000 C 
ATOM     27  C   UNL     1      25.657  30.545  -0.567  0.00  0.00    +0.000 C 
ENDROOT
BRANCH   7  28
ATOM     28  O   UNL     1      24.364  24.706   5.562  0.00  0.00    +0.000 OA
ATOM     29  H   UNL     1      23.771  23.933   5.547  0.00  0.00    +0.000 HD
ENDBRANCH   7  28
BRANCH  10  30
ATOM     30  O   UNL     1      25.828  26.999   4.097  0.00  0.00    +0.000 OA
ATOM     31  H   UNL     1      25.805  26.437   3.294  0.00  0.00    +0.000 HD
ENDBRANCH  10  30
BRANCH  13  32
ATOM     32  O   UNL     1      23.306  28.628   7.643  0.00  0.00    +0.000 OA
ATOM     33  H   UNL     1      24.138  28.139   7.755  0.00  0.00    +0.000 HD
ENDBRANCH  13  32
BRANCH  19  34
ATOM     34  O   UNL     1      28.259  26.858  -0.085  0.00  0.00    +0.000 OA
ATOM     35  H   UNL     1      28.071  25.901  -0.171  0.00  0.00    +0.000 HD
ENDBRANCH  19  34
BRANCH  21  36
ATOM     36  O   UNL     1      28.632  29.463   0.137  0.00  0.00    +0.000 OA
ATOM     37  C   UNL     1      29.154  30.385   1.060  0.00  0.00    +0.000 C 
ENDBRANCH  21  36
BRANCH  20  38
ATOM     38  O   UNL     1      23.590  32.874   3.722  0.00  0.00    +0.000 OA
BRANCH  38  40
ATOM     39  O   UNL     1      22.310  33.689   1.953  0.00  0.00    +0.000 OA
ATOM     40  C   UNL     1      22.492  33.402   3.122  0.00  0.00    +0.000 C 
ATOM     41  C   UNL     1      21.376  33.740   4.039  0.00  0.00    +0.000 C 
ENDBRANCH  38  40
ENDBRANCH  20  38
BRANCH   6  42
ATOM     42  C   UNL     1      23.948  22.971   2.628  0.00  0.00    +0.000 C 
BRANCH  42  44
ATOM     43  O   UNL     1      24.011  21.489   0.581  0.00  0.00    +0.000 OA
ATOM     44  C   UNL     1      23.246  22.307   1.499  0.00  0.00    +0.000 C 
ATOM     45  C   UNL     1      23.310  20.851   1.568  0.00  0.00    +0.000 C 
ATOM     46  C   UNL     1      22.185  23.123   0.688  0.00  0.00    +0.000 C 
BRANCH  45  47
ATOM     47  C   UNL     1      22.256  19.973   1.157  0.00  0.00    +0.000 C 
ATOM     48  C   UNL     1      22.248  19.395  -0.235  0.00  0.00    +0.000 C 
BRANCH  47  49
ATOM     49  C   UNL     1      21.482  19.282   2.125  0.00  0.00    +0.000 C 
ATOM     50  C   UNL     1      20.872  18.720   2.989  0.00  0.00    +0.000 C 
ATOM     51  C   UNL     1      20.186  18.029   4.171  0.00  0.00    +0.000 C 
ENDBRANCH  47  49
ENDBRANCH  45  47
ENDBRANCH  42  44
BRANCH  42  52
ATOM     52  O   UNL     1      24.399  22.275   3.742  0.00  0.00    +0.000 OA
ATOM     53  H   UNL     1      23.990  21.389   3.813  0.00  0.00    +0.000 HD
ENDBRANCH  42  52
ENDBRANCH   6  42
TORSDOF 12
ENDMDL
MODEL 7
REMARK VINA RESULT:      -7.1     34.074     36.764
REMARK  Name = 101808842_CandidaspongiolideB.pdbqt.pdb
REMARK  12 active torsions:
REMARK  status: ('A' for Active; 'I' for Inactive)
REMARK    1  A    between atoms: C_6  and  C_42
REMARK    2  A    between atoms: C_7  and  O_28
REMARK    3  A    between atoms: C_10  and  O_30
REMARK    4  A    between atoms: C_13  and  O_32
REMARK    5  A    between atoms: C_19  and  O_34
REMARK    6  A    between atoms: C_20  and  O_38
REMARK    7  A    between atoms: C_21  and  O_36
REMARK    8  A    between atoms: O_38  and  C_40
REMARK    9  A    between atoms: C_42  and  C_44
REMARK   10  A    between atoms: C_42  and  O_52
REMARK   11  A    between atoms: C_45  and  C_47
REMARK   12  A    between atoms: C_47  and  C_49
REMARK                            x       y       z     vdW  Elec       q    Type
REMARK                         _______ _______ _______ _____ _____    ______ ____
ROOT
ATOM      1  O   UNL     1      22.022  23.599   4.289  0.00  0.00    +0.000 OA
ATOM      2  O   UNL     1      25.425  22.826  -1.630  0.00  0.00    +0.000 OA
ATOM      3  O   UNL     1      21.776  23.096   0.522  0.00  0.00    +0.000 OA
ATOM      4  O   UNL     1      24.660  24.834  -0.789  0.00  0.00    +0.000 OA
ATOM      5  O   UNL     1      26.282  26.005   1.394  0.00  0.00    +0.000 OA
ATOM      6  C   UNL     1      23.393  21.585  -0.240  0.00  0.00    +0.000 C 
ATOM      7  C   UNL     1      23.313  22.260   2.255  0.00  0.00    +0.000 C 
ATOM      8  C   UNL     1      22.737  22.389   0.828  0.00  0.00    +0.000 C 
ATOM      9  C   UNL     1      24.429  22.196  -1.003  0.00  0.00    +0.000 C 
ATOM     10  C   UNL     1      24.453  23.273   2.475  0.00  0.00    +0.000 C 
ATOM     11  C   UNL     1      24.257  24.186   3.554  0.00  0.00    +0.000 C 
ATOM     12  C   UNL     1      22.350  22.751   3.292  0.00  0.00    +0.000 C 
ATOM     13  C   UNL     1      23.180  24.493   4.547  0.00  0.00    +0.000 C 
ATOM     14  C   UNL     1      22.726  25.956   4.438  0.00  0.00    +0.000 C 
ATOM     15  C   UNL     1      23.092  26.759   3.317  0.00  0.00    +0.000 C 
ATOM     16  C   UNL     1      21.966  26.743   5.501  0.00  0.00    +0.000 C 
ATOM     17  C   UNL     1      25.499  24.160  -1.369  0.00  0.00    +0.000 C 
ATOM     18  C   UNL     1      23.485  27.437   2.284  0.00  0.00    +0.000 C 
ATOM     19  C   UNL     1      26.805  24.702  -1.811  0.00  0.00    +0.000 C 
ATOM     20  C   UNL     1      24.665  28.270   2.326  0.00  0.00    +0.000 C 
ATOM     21  C   UNL     1      27.310  25.962  -1.301  0.00  0.00    +0.000 C 
ATOM     22  C   UNL     1      25.726  28.318   1.322  0.00  0.00    +0.000 C 
ATOM     23  C   UNL     1      26.526  27.057  -0.749  0.00  0.00    +0.000 C 
ATOM     24  C   UNL     1      26.183  27.028   0.708  0.00  0.00    +0.000 C 
ATOM     25  C   UNL     1      22.774  27.161   0.989  0.00  0.00    +0.000 C 
ATOM     26  C   UNL     1      26.659  29.527   1.269  0.00  0.00    +0.000 C 
ATOM     27  C   UNL     1      25.878  28.049  -1.709  0.00  0.00    +0.000 C 
ENDROOT
BRANCH   7  28
ATOM     28  O   UNL     1      23.765  20.974   2.628  0.00  0.00    +0.000 OA
ATOM     29  H   UNL     1      24.512  21.112   3.240  0.00  0.00    +0.000 HD
ENDBRANCH   7  28
BRANCH  10  30
ATOM     30  O   UNL     1      25.587  23.292   1.705  0.00  0.00    +0.000 OA
ATOM     31  H   UNL     1      25.463  22.781   0.878  0.00  0.00    +0.000 HD
ENDBRANCH  10  30
BRANCH  13  32
ATOM     32  O   UNL     1      23.692  24.209   5.846  0.00  0.00    +0.000 OA
ATOM     33  H   UNL     1      24.538  23.755   5.703  0.00  0.00    +0.000 HD
ENDBRANCH  13  32
BRANCH  19  34
ATOM     34  O   UNL     1      27.668  23.976  -2.611  0.00  0.00    +0.000 OA
ATOM     35  H   UNL     1      27.702  23.026  -2.377  0.00  0.00    +0.000 HD
ENDBRANCH  19  34
BRANCH  21  36
ATOM     36  O   UNL     1      28.595  26.279  -1.709  0.00  0.00    +0.000 OA
ATOM     37  C   UNL     1      28.576  26.989  -2.922  0.00  0.00    +0.000 C 
ENDBRANCH  21  36
BRANCH  20  38
ATOM     38  O   UNL     1      24.621  29.313   3.282  0.00  0.00    +0.000 OA
BRANCH  38  40
ATOM     39  O   UNL     1      25.902  27.966   4.687  0.00  0.00    +0.000 OA
ATOM     40  C   UNL     1      25.175  28.915   4.456  0.00  0.00    +0.000 C 
ATOM     41  C   UNL     1      24.780  29.714   5.641  0.00  0.00    +0.000 C 
ENDBRANCH  38  40
ENDBRANCH  20  38
BRANCH   6  42
ATOM     42  C   UNL     1      22.811  20.312  -0.602  0.00  0.00    +0.000 C 
BRANCH  42  44
ATOM     43  O   UNL     1      20.956  19.092  -1.813  0.00  0.00    +0.000 OA
ATOM     44  C   UNL     1      21.944  20.152  -1.799  0.00  0.00    +0.000 C 
ATOM     45  C   UNL     1      20.528  20.355  -1.506  0.00  0.00    +0.000 C 
ATOM     46  C   UNL     1      22.592  20.260  -3.219  0.00  0.00    +0.000 C 
BRANCH  45  47
ATOM     47  C   UNL     1      19.594  20.964  -2.404  0.00  0.00    +0.000 C 
ATOM     48  C   UNL     1      18.577  20.121  -3.129  0.00  0.00    +0.000 C 
BRANCH  47  49
ATOM     49  C   UNL     1      19.298  22.347  -2.299  0.00  0.00    +0.000 C 
ATOM     50  C   UNL     1      18.985  23.499  -2.191  0.00  0.00    +0.000 C 
ATOM     51  C   UNL     1      18.467  24.932  -2.042  0.00  0.00    +0.000 C 
ENDBRANCH  47  49
ENDBRANCH  45  47
ENDBRANCH  42  44
BRANCH  42  52
ATOM     52  O   UNL     1      23.145  19.248   0.227  0.00  0.00    +0.000 OA
ATOM     53  H   UNL     1      22.805  18.396  -0.113  0.00  0.00    +0.000 HD
ENDBRANCH  42  52
ENDBRANCH   6  42
TORSDOF 12
ENDMDL
MODEL 8
REMARK VINA RESULT:      -7.0      2.139      5.570
REMARK  Name = 101808842_CandidaspongiolideB.pdbqt.pdb
REMARK  12 active torsions:
REMARK  status: ('A' for Active; 'I' for Inactive)
REMARK    1  A    between atoms: C_6  and  C_42
REMARK    2  A    between atoms: C_7  and  O_28
REMARK    3  A    between atoms: C_10  and  O_30
REMARK    4  A    between atoms: C_13  and  O_32
REMARK    5  A    between atoms: C_19  and  O_34
REMARK    6  A    between atoms: C_20  and  O_38
REMARK    7  A    between atoms: C_21  and  O_36
REMARK    8  A    between atoms: O_38  and  C_40
REMARK    9  A    between atoms: C_42  and  C_44
REMARK   10  A    between atoms: C_42  and  O_52
REMARK   11  A    between atoms: C_45  and  C_47
REMARK   12  A    between atoms: C_47  and  C_49
REMARK                            x       y       z     vdW  Elec       q    Type
REMARK                         _______ _______ _______ _____ _____    ______ ____
ROOT
ATOM      1  O   UNL     1      50.681   0.715  13.508  0.00  0.00    +0.000 OA
ATOM      2  O   UNL     1      43.869   1.468  14.005  0.00  0.00    +0.000 OA
ATOM      3  O   UNL     1      47.552   2.363  12.094  0.00  0.00    +0.000 OA
ATOM      4  O   UNL     1      44.941  -0.070  12.661  0.00  0.00    +0.000 OA
ATOM      5  O   UNL     1      45.997  -2.462  14.050  0.00  0.00    +0.000 OA
ATOM      6  C   UNL     1      46.112   3.058  13.803  0.00  0.00    +0.000 C 
ATOM      7  C   UNL     1      48.299   1.802  14.372  0.00  0.00    +0.000 C 
ATOM      8  C   UNL     1      47.350   2.394  13.309  0.00  0.00    +0.000 C 
ATOM      9  C   UNL     1      44.921   2.282  13.897  0.00  0.00    +0.000 C 
ATOM     10  C   UNL     1      47.900   0.352  14.710  0.00  0.00    +0.000 C 
ATOM     11  C   UNL     1      48.915  -0.627  14.489  0.00  0.00    +0.000 C 
ATOM     12  C   UNL     1      49.669   1.552  13.820  0.00  0.00    +0.000 C 
ATOM     13  C   UNL     1      50.307  -0.656  13.942  0.00  0.00    +0.000 C 
ATOM     14  C   UNL     1      50.412  -1.613  12.745  0.00  0.00    +0.000 C 
ATOM     15  C   UNL     1      49.244  -2.120  12.103  0.00  0.00    +0.000 C 
ATOM     16  C   UNL     1      51.697  -2.212  12.183  0.00  0.00    +0.000 C 
ATOM     17  C   UNL     1      44.032   0.254  13.411  0.00  0.00    +0.000 C 
ATOM     18  C   UNL     1      48.139  -2.563  11.586  0.00  0.00    +0.000 C 
ATOM     19  C   UNL     1      42.986  -0.691  13.868  0.00  0.00    +0.000 C 
ATOM     20  C   UNL     1      47.570  -3.830  11.983  0.00  0.00    +0.000 C 
ATOM     21  C   UNL     1      43.151  -2.124  13.726  0.00  0.00    +0.000 C 
ATOM     22  C   UNL     1      46.169  -4.083  12.315  0.00  0.00    +0.000 C 
ATOM     23  C   UNL     1      44.000  -2.814  12.767  0.00  0.00    +0.000 C 
ATOM     24  C   UNL     1      45.434  -3.057  13.124  0.00  0.00    +0.000 C 
ATOM     25  C   UNL     1      47.380  -1.610  10.708  0.00  0.00    +0.000 C 
ATOM     26  C   UNL     1      45.634  -5.514  12.284  0.00  0.00    +0.000 C 
ATOM     27  C   UNL     1      43.474  -3.036  11.353  0.00  0.00    +0.000 C 
ENDROOT
BRANCH   7  28
ATOM     28  O   UNL     1      48.421   2.535  15.574  0.00  0.00    +0.000 OA
ATOM     29  H   UNL     1      49.336   2.406  15.884  0.00  0.00    +0.000 HD
ENDBRANCH   7  28
BRANCH  10  30
ATOM     30  O   UNL     1      46.666   0.019  15.205  0.00  0.00    +0.000 OA
ATOM     31  H   UNL     1      46.647   0.081  16.183  0.00  0.00    +0.000 HD
ENDBRANCH  10  30
BRANCH  13  32
ATOM     32  O   UNL     1      51.181  -1.053  14.995  0.00  0.00    +0.000 OA
ATOM     33  H   UNL     1      52.034  -0.629  14.803  0.00  0.00    +0.000 HD
ENDBRANCH  13  32
BRANCH  19  34
ATOM     34  O   UNL     1      41.876  -0.269  14.576  0.00  0.00    +0.000 OA
ATOM     35  H   UNL     1      41.327  -1.009  14.907  0.00  0.00    +0.000 HD
ENDBRANCH  19  34
BRANCH  21  36
ATOM     36  O   UNL     1      42.149  -2.882  14.309  0.00  0.00    +0.000 OA
ATOM     37  C   UNL     1      42.658  -4.100  14.794  0.00  0.00    +0.000 C 
ENDBRANCH  21  36
BRANCH  20  38
ATOM     38  O   UNL     1      48.399  -4.953  11.749  0.00  0.00    +0.000 OA
BRANCH  38  40
ATOM     39  O   UNL     1      47.817  -5.342   9.526  0.00  0.00    +0.000 OA
ATOM     40  C   UNL     1      48.615  -5.124  10.419  0.00  0.00    +0.000 C 
ATOM     41  C   UNL     1      50.040  -5.110  10.006  0.00  0.00    +0.000 C 
ENDBRANCH  38  40
ENDBRANCH  20  38
BRANCH   6  42
ATOM     42  C   UNL     1      46.114   4.496  13.957  0.00  0.00    +0.000 C 
BRANCH  42  44
ATOM     43  O   UNL     1      46.630   4.648  16.427  0.00  0.00    +0.000 OA
ATOM     44  C   UNL     1      45.908   5.149  15.276  0.00  0.00    +0.000 C 
ATOM     45  C   UNL     1      47.123   5.762  15.804  0.00  0.00    +0.000 C 
ATOM     46  C   UNL     1      44.452   5.521  15.713  0.00  0.00    +0.000 C 
BRANCH  45  47
ATOM     47  C   UNL     1      47.155   6.975  16.563  0.00  0.00    +0.000 C 
ATOM     48  C   UNL     1      46.990   8.306  15.873  0.00  0.00    +0.000 C 
BRANCH  47  49
ATOM     49  C   UNL     1      46.891   6.956  17.955  0.00  0.00    +0.000 C 
ATOM     50  C   UNL     1      46.607   6.912  19.119  0.00  0.00    +0.000 C 
ATOM     51  C   UNL     1      46.129   6.824  20.571  0.00  0.00    +0.000 C 
ENDBRANCH  47  49
ENDBRANCH  45  47
ENDBRANCH  42  44
BRANCH  42  52
ATOM     52  O   UNL     1      46.353   5.218  12.794  0.00  0.00    +0.000 OA
ATOM     53  H   UNL     1      45.588   5.774  12.542  0.00  0.00    +0.000 HD
ENDBRANCH  42  52
ENDBRANCH   6  42
TORSDOF 12
ENDMDL
MODEL 9
REMARK VINA RESULT:      -6.9     33.809     36.096
REMARK  Name = 101808842_CandidaspongiolideB.pdbqt.pdb
REMARK  12 active torsions:
REMARK  status: ('A' for Active; 'I' for Inactive)
REMARK    1  A    between atoms: C_6  and  C_42
REMARK    2  A    between atoms: C_7  and  O_28
REMARK    3  A    between atoms: C_10  and  O_30
REMARK    4  A    between atoms: C_13  and  O_32
REMARK    5  A    between atoms: C_19  and  O_34
REMARK    6  A    between atoms: C_20  and  O_38
REMARK    7  A    between atoms: C_21  and  O_36
REMARK    8  A    between atoms: O_38  and  C_40
REMARK    9  A    between atoms: C_42  and  C_44
REMARK   10  A    between atoms: C_42  and  O_52
REMARK   11  A    between atoms: C_45  and  C_47
REMARK   12  A    between atoms: C_47  and  C_49
REMARK                            x       y       z     vdW  Elec       q    Type
REMARK                         _______ _______ _______ _____ _____    ______ ____
ROOT
ATOM      1  O   UNL     1      29.202  16.805  36.591  0.00  0.00    +0.000 OA
ATOM      2  O   UNL     1      28.515  23.130  33.995  0.00  0.00    +0.000 OA
ATOM      3  O   UNL     1      27.081  19.965  36.433  0.00  0.00    +0.000 OA
ATOM      4  O   UNL     1      29.492  22.625  36.023  0.00  0.00    +0.000 OA
ATOM      5  O   UNL     1      32.248  21.553  35.880  0.00  0.00    +0.000 OA
ATOM      6  C   UNL     1      27.013  20.834  34.260  0.00  0.00    +0.000 C 
ATOM      7  C   UNL     1      28.442  18.743  34.784  0.00  0.00    +0.000 C 
ATOM      8  C   UNL     1      27.484  19.850  35.275  0.00  0.00    +0.000 C 
ATOM      9  C   UNL     1      27.742  22.048  34.109  0.00  0.00    +0.000 C 
ATOM     10  C   UNL     1      29.907  19.217  34.861  0.00  0.00    +0.000 C 
ATOM     11  C   UNL     1      30.764  18.417  35.674  0.00  0.00    +0.000 C 
ATOM     12  C   UNL     1      28.509  17.596  35.746  0.00  0.00    +0.000 C 
ATOM     13  C   UNL     1      30.628  17.221  36.563  0.00  0.00    +0.000 C 
ATOM     14  C   UNL     1      31.093  17.538  37.992  0.00  0.00    +0.000 C 
ATOM     15  C   UNL     1      31.307  18.883  38.417  0.00  0.00    +0.000 C 
ATOM     16  C   UNL     1      31.480  16.518  39.058  0.00  0.00    +0.000 C 
ATOM     17  C   UNL     1      29.438  23.270  34.986  0.00  0.00    +0.000 C 
ATOM     18  C   UNL     1      31.507  20.127  38.724  0.00  0.00    +0.000 C 
ATOM     19  C   UNL     1      30.459  24.275  34.605  0.00  0.00    +0.000 C 
ATOM     20  C   UNL     1      32.818  20.727  38.639  0.00  0.00    +0.000 C 
ATOM     21  C   UNL     1      31.749  24.325  35.265  0.00  0.00    +0.000 C 
ATOM     22  C   UNL     1      33.141  22.020  38.038  0.00  0.00    +0.000 C 
ATOM     23  C   UNL     1      32.068  23.835  36.598  0.00  0.00    +0.000 C 
ATOM     24  C   UNL     1      32.457  22.398  36.757  0.00  0.00    +0.000 C 
ATOM     25  C   UNL     1      30.284  20.961  38.979  0.00  0.00    +0.000 C 
ATOM     26  C   UNL     1      34.451  22.716  38.402  0.00  0.00    +0.000 C 
ATOM     27  C   UNL     1      31.754  24.723  37.797  0.00  0.00    +0.000 C 
ENDROOT
BRANCH   7  28
ATOM     28  O   UNL     1      28.194  18.235  33.489  0.00  0.00    +0.000 OA
ATOM     29  H   UNL     1      28.345  17.274  33.536  0.00  0.00    +0.000 HD
ENDBRANCH   7  28
BRANCH  10  30
ATOM     30  O   UNL     1      30.366  20.319  34.186  0.00  0.00    +0.000 OA
ATOM     31  H   UNL     1      30.984  20.064  33.470  0.00  0.00    +0.000 HD
ENDBRANCH  10  30
BRANCH  13  32
ATOM     32  O   UNL     1      31.397  16.166  35.995  0.00  0.00    +0.000 OA
ATOM     33  H   UNL     1      32.310  16.494  35.961  0.00  0.00    +0.000 HD
ENDBRANCH  13  32
BRANCH  19  34
ATOM     34  O   UNL     1      30.294  25.112  33.517  0.00  0.00    +0.000 OA
ATOM     35  H   UNL     1      30.972  25.817  33.468  0.00  0.00    +0.000 HD
ENDBRANCH  19  34
BRANCH  21  36
ATOM     36  O   UNL     1      32.641  25.234  34.720  0.00  0.00    +0.000 OA
ATOM     37  C   UNL     1      33.857  24.608  34.394  0.00  0.00    +0.000 C 
ENDBRANCH  21  36
BRANCH  20  38
ATOM     38  O   UNL     1      33.802  20.127  39.461  0.00  0.00    +0.000 OA
BRANCH  38  40
ATOM     39  O   UNL     1      34.578  18.904  37.636  0.00  0.00    +0.000 OA
ATOM     40  C   UNL     1      34.715  19.459  38.711  0.00  0.00    +0.000 C 
ATOM     41  C   UNL     1      36.060  19.329  39.324  0.00  0.00    +0.000 C 
ENDBRANCH  38  40
ENDBRANCH  20  38
BRANCH   6  42
ATOM     42  C   UNL     1      25.727  20.619  33.635  0.00  0.00    +0.000 C 
BRANCH  42  44
ATOM     43  O   UNL     1      26.546  20.682  31.244  0.00  0.00    +0.000 OA
ATOM     44  C   UNL     1      25.486  20.924  32.201  0.00  0.00    +0.000 C 
ATOM     45  C   UNL     1      25.557  19.743  31.347  0.00  0.00    +0.000 C 
ATOM     46  C   UNL     1      24.761  22.260  31.827  0.00  0.00    +0.000 C 
BRANCH  45  47
ATOM     47  C   UNL     1      24.738  19.526  30.193  0.00  0.00    +0.000 C 
ATOM     48  C   UNL     1      24.970  20.326  28.937  0.00  0.00    +0.000 C 
BRANCH  47  49
ATOM     49  C   UNL     1      24.032  18.306  30.035  0.00  0.00    +0.000 C 
ATOM     50  C   UNL     1      23.378  17.309  29.917  0.00  0.00    +0.000 C 
ATOM     51  C   UNL     1      22.447  16.098  29.814  0.00  0.00    +0.000 C 
ENDBRANCH  47  49
ENDBRANCH  45  47
ENDBRANCH  42  44
BRANCH  42  52
ATOM     52  O   UNL     1      24.748  20.079  34.459  0.00  0.00    +0.000 OA
ATOM     53  H   UNL     1      23.845  20.270  34.134  0.00  0.00    +0.000 HD
ENDBRANCH  42  52
ENDBRANCH   6  42
TORSDOF 12
ENDMDL
