REMARK  Name = 102471178_CandidaspongiolideCore.pdbqt.pdb
REMARK  13 active torsions:
REMARK  status: ('A' for Active; 'I' for Inactive)
REMARK    1  A    between atoms: C_6  and  C_39
REMARK    2  A    between atoms: C_8  and  O_27
REMARK    3  A    between atoms: C_8  and  C_51
REMARK    4  A    between atoms: C_10  and  O_29
REMARK    5  A    between atoms: C_15  and  O_31
REMARK    6  A    between atoms: C_16  and  O_33
REMARK    7  A    between atoms: C_21  and  O_35
REMARK    8  A    between atoms: O_35  and  C_37
REMARK    9  A    between atoms: C_39  and  C_41
REMARK   10  A    between atoms: C_39  and  O_49
REMARK   11  A    between atoms: C_42  and  C_44
REMARK   12  A    between atoms: C_44  and  C_46
REMARK   13  A    between atoms: C_51  and  O_52
REMARK                            x       y       z     vdW  Elec       q    Type
REMARK                         _______ _______ _______ _____ _____    ______ ____
ROOT
ATOM      1  O   UNL     1       0.343  -1.948  -1.546  0.00  0.00    +0.000 OA
ATOM      2  O   UNL     1      -0.832  -0.415  -0.303  0.00  0.00    +0.000 OA
ATOM      3  O   UNL     1      -1.728   3.949   1.840  0.00  0.00    +0.000 OA
ATOM      4  O   UNL     1      -1.283  -2.758  -2.887  0.00  0.00    +0.000 OA
ATOM      5  O   UNL     1      -3.841  -2.020  -0.585  0.00  0.00    +0.000 OA
ATOM      6  C   UNL     1       1.479  -0.057  -0.834  0.00  0.00    +0.000 C 
ATOM      7  C   UNL     1       1.833   0.791   0.252  0.00  0.00    +0.000 C 
ATOM      8  C   UNL     1       2.351   1.602   1.357  0.00  0.00    +0.000 C 
ATOM      9  C   UNL     1       0.191  -0.799  -0.856  0.00  0.00    +0.000 C 
ATOM     10  C   UNL     1       1.727   2.980   1.396  0.00  0.00    +0.000 C 
ATOM     11  C   UNL     1       0.349   3.245   1.174  0.00  0.00    +0.000 C 
ATOM     12  C   UNL     1      -1.070   3.423   0.949  0.00  0.00    +0.000 C 
ATOM     13  C   UNL     1      -0.788  -2.642  -1.772  0.00  0.00    +0.000 C 
ATOM     14  C   UNL     1      -1.704   2.934  -0.313  0.00  0.00    +0.000 C 
ATOM     15  C   UNL     1      -1.240  -3.526  -0.669  0.00  0.00    +0.000 C 
ATOM     16  C   UNL     1      -1.346  -3.122   0.718  0.00  0.00    +0.000 C 
ATOM     17  C   UNL     1      -2.515  -2.510   1.336  0.00  0.00    +0.000 C 
ATOM     18  C   UNL     1      -3.047   2.485  -0.292  0.00  0.00    +0.000 C 
ATOM     19  C   UNL     1      -3.683  -0.254   0.993  0.00  0.00    +0.000 C 
ATOM     20  C   UNL     1      -0.894   2.620  -1.563  0.00  0.00    +0.000 C 
ATOM     21  C   UNL     1      -4.497   0.611   0.146  0.00  0.00    +0.000 C 
ATOM     22  C   UNL     1      -3.402  -1.642   0.503  0.00  0.00    +0.000 C 
ATOM     23  C   UNL     1      -4.249   2.007  -0.186  0.00  0.00    +0.000 C 
ATOM     24  C   UNL     1      -3.023  -2.971   2.699  0.00  0.00    +0.000 C 
ATOM     25  C   UNL     1      -2.922   0.358   2.161  0.00  0.00    +0.000 C 
ATOM     26  C   UNL     1      -5.370   2.971  -0.477  0.00  0.00    +0.000 C 
ENDROOT
BRANCH   8  27
ATOM     27  O   UNL     1       3.752   1.743   1.110  0.00  0.00    +0.000 OA
ATOM     28  H   UNL     1       3.994   2.577   1.561  0.00  0.00    +0.000 HD
ENDBRANCH   8  27
BRANCH  10  29
ATOM     29  O   UNL     1       2.561   4.038   1.722  0.00  0.00    +0.000 OA
ATOM     30  H   UNL     1       2.069   4.871   1.846  0.00  0.00    +0.000 HD
ENDBRANCH  10  29
BRANCH  15  31
ATOM     31  O   UNL     1      -2.046  -4.605  -0.997  0.00  0.00    +0.000 OA
ATOM     32  H   UNL     1      -2.155  -4.668  -1.970  0.00  0.00    +0.000 HD
ENDBRANCH  15  31
BRANCH  16  33
ATOM     33  O   UNL     1      -0.508  -3.791   1.592  0.00  0.00    +0.000 OA
ATOM     34  C   UNL     1       0.769  -3.203   1.553  0.00  0.00    +0.000 C 
ENDBRANCH  16  33
BRANCH  21  35
ATOM     35  O   UNL     1      -5.741   0.050  -0.240  0.00  0.00    +0.000 OA
BRANCH  35  37
ATOM     36  O   UNL     1      -5.123   0.275  -2.485  0.00  0.00    +0.000 OA
ATOM     37  C   UNL     1      -5.897  -0.017  -1.591  0.00  0.00    +0.000 C 
ATOM     38  C   UNL     1      -7.204  -0.567  -2.035  0.00  0.00    +0.000 C 
ENDBRANCH  35  37
ENDBRANCH  21  35
BRANCH   6  39
ATOM     39  C   UNL     1       2.380  -0.104  -1.963  0.00  0.00    +0.000 C 
BRANCH  39  41
ATOM     40  O   UNL     1       4.748  -0.574  -2.784  0.00  0.00    +0.000 OA
ATOM     41  C   UNL     1       3.665  -0.851  -1.866  0.00  0.00    +0.000 C 
ATOM     42  C   UNL     1       4.791   0.026  -1.557  0.00  0.00    +0.000 C 
ATOM     43  C   UNL     1       3.633  -2.388  -1.545  0.00  0.00    +0.000 C 
BRANCH  42  44
ATOM     44  C   UNL     1       5.876  -0.323  -0.691  0.00  0.00    +0.000 C 
ATOM     45  C   UNL     1       7.269   0.190  -0.974  0.00  0.00    +0.000 C 
BRANCH  44  46
ATOM     46  C   UNL     1       5.629  -0.735   0.643  0.00  0.00    +0.000 C 
ATOM     47  C   UNL     1       5.384  -1.050   1.774  0.00  0.00    +0.000 C 
ATOM     48  C   UNL     1       5.011  -1.413   3.217  0.00  0.00    +0.000 C 
ENDBRANCH  44  46
ENDBRANCH  42  44
ENDBRANCH  39  41
BRANCH  39  49
ATOM     49  O   UNL     1       2.019   0.625  -3.084  0.00  0.00    +0.000 OA
ATOM     50  H   UNL     1       1.199   1.145  -2.981  0.00  0.00    +0.000 HD
ENDBRANCH  39  49
ENDBRANCH   6  39
BRANCH   8  51
ATOM     51  C   UNL     1       2.191   0.930   2.657  0.00  0.00    +0.000 C 
BRANCH  51  52
ATOM     52  O   UNL     1       2.081   0.296   3.825  0.00  0.00    +0.000 OA
ATOM     53  H   UNL     1       2.832  -0.316   3.963  0.00  0.00    +0.000 HD
ENDBRANCH  51  52
ENDBRANCH   8  51
TORSDOF 13
