MODEL 1
REMARK VINA RESULT:      -6.1      0.000      0.000
REMARK  Name = 102471178_CandidaspongiolideCore.pdbqt.pdb
REMARK  13 active torsions:
REMARK  status: ('A' for Active; 'I' for Inactive)
REMARK    1  A    between atoms: C_6  and  C_39
REMARK    2  A    between atoms: C_8  and  O_27
REMARK    3  A    between atoms: C_8  and  C_51
REMARK    4  A    between atoms: C_10  and  O_29
REMARK    5  A    between atoms: C_15  and  O_31
REMARK    6  A    between atoms: C_16  and  O_33
REMARK    7  A    between atoms: C_21  and  O_35
REMARK    8  A    between atoms: O_35  and  C_37
REMARK    9  A    between atoms: C_39  and  C_41
REMARK   10  A    between atoms: C_39  and  O_49
REMARK   11  A    between atoms: C_42  and  C_44
REMARK   12  A    between atoms: C_44  and  C_46
REMARK   13  A    between atoms: C_51  and  O_52
REMARK                            x       y       z     vdW  Elec       q    Type
REMARK                         _______ _______ _______ _____ _____    ______ ____
ROOT
ATOM      1  O   UNL     1      45.889  -2.329   9.764  0.00  0.00    +0.000 OA
ATOM      2  O   UNL     1      46.801  -2.457  11.868  0.00  0.00    +0.000 OA
ATOM      3  O   UNL     1      47.329  -4.153  16.482  0.00  0.00    +0.000 OA
ATOM      4  O   UNL     1      47.749  -2.312   8.484  0.00  0.00    +0.000 OA
ATOM      5  O   UNL     1      49.743  -0.924  11.030  0.00  0.00    +0.000 OA
ATOM      6  C   UNL     1      44.682  -3.469  11.382  0.00  0.00    +0.000 C 
ATOM      7  C   UNL     1      44.120  -3.458  12.688  0.00  0.00    +0.000 C 
ATOM      8  C   UNL     1      43.392  -3.435  13.960  0.00  0.00    +0.000 C 
ATOM      9  C   UNL     1      45.918  -2.708  11.058  0.00  0.00    +0.000 C 
ATOM     10  C   UNL     1      44.034  -4.324  15.002  0.00  0.00    +0.000 C 
ATOM     11  C   UNL     1      45.435  -4.424  15.220  0.00  0.00    +0.000 C 
ATOM     12  C   UNL     1      46.873  -4.454  15.384  0.00  0.00    +0.000 C 
ATOM     13  C   UNL     1      47.019  -1.763   9.301  0.00  0.00    +0.000 C 
ATOM     14  C   UNL     1      47.759  -4.797  14.231  0.00  0.00    +0.000 C 
ATOM     15  C   UNL     1      47.182  -0.314   9.579  0.00  0.00    +0.000 C 
ATOM     16  C   UNL     1      46.985   0.302  10.875  0.00  0.00    +0.000 C 
ATOM     17  C   UNL     1      48.003   0.452  11.907  0.00  0.00    +0.000 C 
ATOM     18  C   UNL     1      49.048  -4.216  14.143  0.00  0.00    +0.000 C 
ATOM     19  C   UNL     1      49.290  -1.241  13.338  0.00  0.00    +0.000 C 
ATOM     20  C   UNL     1      47.243  -5.514  12.991  0.00  0.00    +0.000 C 
ATOM     21  C   UNL     1      50.301  -2.289  13.420  0.00  0.00    +0.000 C 
ATOM     22  C   UNL     1      49.082  -0.577  12.011  0.00  0.00    +0.000 C 
ATOM     23  C   UNL     1      50.179  -3.584  14.076  0.00  0.00    +0.000 C 
ATOM     24  C   UNL     1      48.175   1.764  12.665  0.00  0.00    +0.000 C 
ATOM     25  C   UNL     1      48.305  -1.072  14.487  0.00  0.00    +0.000 C 
ATOM     26  C   UNL     1      51.367  -4.292  14.674  0.00  0.00    +0.000 C 
ENDROOT
BRANCH   8  27
ATOM     27  O   UNL     1      42.088  -3.944  13.669  0.00  0.00    +0.000 OA
ATOM     28  H   UNL     1      42.138  -4.214  12.730  0.00  0.00    +0.000 HD
ENDBRANCH   8  27
BRANCH  10  29
ATOM     29  O   UNL     1      43.183  -5.043  15.825  0.00  0.00    +0.000 OA
ATOM     30  H   UNL     1      42.297  -5.156  15.432  0.00  0.00    +0.000 HD
ENDBRANCH  10  29
BRANCH  15  31
ATOM     31  O   UNL     1      48.006   0.415   8.736  0.00  0.00    +0.000 OA
ATOM     32  H   UNL     1      48.468  -0.181   8.109  0.00  0.00    +0.000 HD
ENDBRANCH  15  31
BRANCH  16  33
ATOM     33  O   UNL     1      45.950   1.218  10.941  0.00  0.00    +0.000 OA
ATOM     34  C   UNL     1      44.871   0.651  11.642  0.00  0.00    +0.000 C 
ENDBRANCH  16  33
BRANCH  21  35
ATOM     35  O   UNL     1      51.582  -1.906  12.946  0.00  0.00    +0.000 OA
BRANCH  35  37
ATOM     36  O   UNL     1      52.382  -0.912  14.907  0.00  0.00    +0.000 OA
ATOM     37  C   UNL     1      52.163  -0.939  13.709  0.00  0.00    +0.000 C 
ATOM     38  C   UNL     1      52.632   0.248  12.949  0.00  0.00    +0.000 C 
ENDBRANCH  35  37
ENDBRANCH  21  35
BRANCH   6  39
ATOM     39  C   UNL     1      44.058  -4.322  10.396  0.00  0.00    +0.000 C 
BRANCH  39  41
ATOM     40  O   UNL     1      44.498  -6.317   8.869  0.00  0.00    +0.000 OA
ATOM     41  C   UNL     1      44.557  -5.709  10.180  0.00  0.00    +0.000 C 
ATOM     42  C   UNL     1      45.683  -5.752   9.251  0.00  0.00    +0.000 C 
ATOM     43  C   UNL     1      44.278  -6.800  11.275  0.00  0.00    +0.000 C 
BRANCH  42  44
ATOM     44  C   UNL     1      46.813  -6.620   9.386  0.00  0.00    +0.000 C 
ATOM     45  C   UNL     1      46.819  -7.970   8.707  0.00  0.00    +0.000 C 
BRANCH  44  46
ATOM     46  C   UNL     1      48.084  -6.099   9.735  0.00  0.00    +0.000 C 
ATOM     47  C   UNL     1      49.144  -5.653  10.076  0.00  0.00    +0.000 C 
ATOM     48  C   UNL     1      50.478  -5.090  10.581  0.00  0.00    +0.000 C 
ENDBRANCH  44  46
ENDBRANCH  42  44
ENDBRANCH  39  41
BRANCH  39  49
ATOM     49  O   UNL     1      43.043  -3.764   9.636  0.00  0.00    +0.000 OA
ATOM     50  H   UNL     1      43.264  -2.899   9.241  0.00  0.00    +0.000 HD
ENDBRANCH  39  49
ENDBRANCH   6  39
BRANCH   8  51
ATOM     51  C   UNL     1      43.233  -2.067  14.480  0.00  0.00    +0.000 C 
BRANCH  51  52
ATOM     52  O   UNL     1      43.082  -0.814  14.910  0.00  0.00    +0.000 OA
ATOM     53  H   UNL     1      43.530  -0.182  14.311  0.00  0.00    +0.000 HD
ENDBRANCH  51  52
ENDBRANCH   8  51
TORSDOF 13
ENDMDL
MODEL 2
REMARK VINA RESULT:      -6.0     12.626     16.318
REMARK  Name = 102471178_CandidaspongiolideCore.pdbqt.pdb
REMARK  13 active torsions:
REMARK  status: ('A' for Active; 'I' for Inactive)
REMARK    1  A    between atoms: C_6  and  C_39
REMARK    2  A    between atoms: C_8  and  O_27
REMARK    3  A    between atoms: C_8  and  C_51
REMARK    4  A    between atoms: C_10  and  O_29
REMARK    5  A    between atoms: C_15  and  O_31
REMARK    6  A    between atoms: C_16  and  O_33
REMARK    7  A    between atoms: C_21  and  O_35
REMARK    8  A    between atoms: O_35  and  C_37
REMARK    9  A    between atoms: C_39  and  C_41
REMARK   10  A    between atoms: C_39  and  O_49
REMARK   11  A    between atoms: C_42  and  C_44
REMARK   12  A    between atoms: C_44  and  C_46
REMARK   13  A    between atoms: C_51  and  O_52
REMARK                            x       y       z     vdW  Elec       q    Type
REMARK                         _______ _______ _______ _____ _____    ______ ____
ROOT
ATOM      1  O   UNL     1      40.360   7.800  18.899  0.00  0.00    +0.000 OA
ATOM      2  O   UNL     1      41.469   9.319  20.218  0.00  0.00    +0.000 OA
ATOM      3  O   UNL     1      44.955  10.915  23.338  0.00  0.00    +0.000 OA
ATOM      4  O   UNL     1      40.102   8.985  16.995  0.00  0.00    +0.000 OA
ATOM      5  O   UNL     1      40.186  12.083  18.662  0.00  0.00    +0.000 OA
ATOM      6  C   UNL     1      41.866   6.965  20.451  0.00  0.00    +0.000 C 
ATOM      7  C   UNL     1      42.304   6.941  21.804  0.00  0.00    +0.000 C 
ATOM      8  C   UNL     1      42.692   6.763  23.206  0.00  0.00    +0.000 C 
ATOM      9  C   UNL     1      41.233   8.172  19.857  0.00  0.00    +0.000 C 
ATOM     10  C   UNL     1      44.013   7.429  23.522  0.00  0.00    +0.000 C 
ATOM     11  C   UNL     1      44.402   8.710  23.046  0.00  0.00    +0.000 C 
ATOM     12  C   UNL     1      44.711  10.027  22.529  0.00  0.00    +0.000 C 
ATOM     13  C   UNL     1      39.830   8.804  18.176  0.00  0.00    +0.000 C 
ATOM     14  C   UNL     1      44.683  10.289  21.058  0.00  0.00    +0.000 C 
ATOM     15  C   UNL     1      38.663   9.494  18.778  0.00  0.00    +0.000 C 
ATOM     16  C   UNL     1      38.606   9.975  20.143  0.00  0.00    +0.000 C 
ATOM     17  C   UNL     1      39.043  11.288  20.599  0.00  0.00    +0.000 C 
ATOM     18  C   UNL     1      44.316  11.571  20.583  0.00  0.00    +0.000 C 
ATOM     19  C   UNL     1      41.344  12.413  20.707  0.00  0.00    +0.000 C 
ATOM     20  C   UNL     1      44.747   9.168  20.030  0.00  0.00    +0.000 C 
ATOM     21  C   UNL     1      42.473  13.011  20.002  0.00  0.00    +0.000 C 
ATOM     22  C   UNL     1      40.174  11.960  19.888  0.00  0.00    +0.000 C 
ATOM     23  C   UNL     1      43.888  12.740  20.213  0.00  0.00    +0.000 C 
ATOM     24  C   UNL     1      38.195  12.117  21.559  0.00  0.00    +0.000 C 
ATOM     25  C   UNL     1      41.512  12.009  22.166  0.00  0.00    +0.000 C 
ATOM     26  C   UNL     1      44.948  13.782  19.967  0.00  0.00    +0.000 C 
ENDROOT
BRANCH   8  27
ATOM     27  O   UNL     1      42.837   5.353  23.391  0.00  0.00    +0.000 OA
ATOM     28  H   UNL     1      43.681   5.136  22.947  0.00  0.00    +0.000 HD
ENDBRANCH   8  27
BRANCH  10  29
ATOM     29  O   UNL     1      44.870   6.752  24.376  0.00  0.00    +0.000 OA
ATOM     30  H   UNL     1      45.025   7.240  25.206  0.00  0.00    +0.000 HD
ENDBRANCH  10  29
BRANCH  15  31
ATOM     31  O   UNL     1      37.786  10.143  17.923  0.00  0.00    +0.000 OA
ATOM     32  H   UNL     1      36.988   9.593  17.768  0.00  0.00    +0.000 HD
ENDBRANCH  15  31
BRANCH  16  33
ATOM     33  O   UNL     1      37.653   9.369  20.942  0.00  0.00    +0.000 OA
ATOM     34  C   UNL     1      38.274   8.407  21.758  0.00  0.00    +0.000 C 
ENDBRANCH  16  33
BRANCH  21  35
ATOM     35  O   UNL     1      42.126  14.087  19.147  0.00  0.00    +0.000 OA
BRANCH  35  37
ATOM     36  O   UNL     1      42.218  15.909  20.612  0.00  0.00    +0.000 OA
ATOM     37  C   UNL     1      41.655  15.172  19.822  0.00  0.00    +0.000 C 
ATOM     38  C   UNL     1      40.245  15.525  19.515  0.00  0.00    +0.000 C 
ENDBRANCH  35  37
ENDBRANCH  21  35
BRANCH   6  39
ATOM     39  C   UNL     1      42.140   5.799  19.642  0.00  0.00    +0.000 C 
BRANCH  39  41
ATOM     40  O   UNL     1      43.191   5.096  17.428  0.00  0.00    +0.000 OA
ATOM     41  C   UNL     1      43.284   5.799  18.688  0.00  0.00    +0.000 C 
ATOM     42  C   UNL     1      42.944   6.440  17.421  0.00  0.00    +0.000 C 
ATOM     43  C   UNL     1      44.746   5.677  19.249  0.00  0.00    +0.000 C 
BRANCH  42  44
ATOM     44  C   UNL     1      43.836   7.268  16.667  0.00  0.00    +0.000 C 
ATOM     45  C   UNL     1      44.621   6.688  15.514  0.00  0.00    +0.000 C 
BRANCH  44  46
ATOM     46  C   UNL     1      43.674   8.677  16.657  0.00  0.00    +0.000 C 
ATOM     47  C   UNL     1      43.492   9.862  16.666  0.00  0.00    +0.000 C 
ATOM     48  C   UNL     1      43.198  11.367  16.715  0.00  0.00    +0.000 C 
ENDBRANCH  44  46
ENDBRANCH  42  44
ENDBRANCH  39  41
BRANCH  39  49
ATOM     49  O   UNL     1      41.257   4.737  19.754  0.00  0.00    +0.000 OA
ATOM     50  H   UNL     1      41.679   3.880  19.957  0.00  0.00    +0.000 HD
ENDBRANCH  39  49
ENDBRANCH   6  39
BRANCH   8  51
ATOM     51  C   UNL     1      41.648   7.231  24.132  0.00  0.00    +0.000 C 
BRANCH  51  52
ATOM     52  O   UNL     1      40.672   7.652  24.938  0.00  0.00    +0.000 OA
ATOM     53  H   UNL     1      40.228   8.441  24.567  0.00  0.00    +0.000 HD
ENDBRANCH  51  52
ENDBRANCH   8  51
TORSDOF 13
ENDMDL
MODEL 3
REMARK VINA RESULT:      -5.6     13.523     17.703
REMARK  Name = 102471178_CandidaspongiolideCore.pdbqt.pdb
REMARK  13 active torsions:
REMARK  status: ('A' for Active; 'I' for Inactive)
REMARK    1  A    between atoms: C_6  and  C_39
REMARK    2  A    between atoms: C_8  and  O_27
REMARK    3  A    between atoms: C_8  and  C_51
REMARK    4  A    between atoms: C_10  and  O_29
REMARK    5  A    between atoms: C_15  and  O_31
REMARK    6  A    between atoms: C_16  and  O_33
REMARK    7  A    between atoms: C_21  and  O_35
REMARK    8  A    between atoms: O_35  and  C_37
REMARK    9  A    between atoms: C_39  and  C_41
REMARK   10  A    between atoms: C_39  and  O_49
REMARK   11  A    between atoms: C_42  and  C_44
REMARK   12  A    between atoms: C_44  and  C_46
REMARK   13  A    between atoms: C_51  and  O_52
REMARK                            x       y       z     vdW  Elec       q    Type
REMARK                         _______ _______ _______ _____ _____    ______ ____
ROOT
ATOM      1  O   UNL     1      40.310   7.915  21.271  0.00  0.00    +0.000 OA
ATOM      2  O   UNL     1      41.839   9.601  20.960  0.00  0.00    +0.000 OA
ATOM      3  O   UNL     1      44.481  12.907  18.403  0.00  0.00    +0.000 OA
ATOM      4  O   UNL     1      39.133   8.714  23.024  0.00  0.00    +0.000 OA
ATOM      5  O   UNL     1      41.820  10.649  24.217  0.00  0.00    +0.000 OA
ATOM      6  C   UNL     1      41.034   8.312  19.105  0.00  0.00    +0.000 C 
ATOM      7  C   UNL     1      42.136   8.475  18.220  0.00  0.00    +0.000 C 
ATOM      8  C   UNL     1      43.231   8.493  17.246  0.00  0.00    +0.000 C 
ATOM      9  C   UNL     1      41.118   8.706  20.536  0.00  0.00    +0.000 C 
ATOM     10  C   UNL     1      43.483   9.880  16.696  0.00  0.00    +0.000 C 
ATOM     11  C   UNL     1      43.476  11.068  17.475  0.00  0.00    +0.000 C 
ATOM     12  C   UNL     1      43.463  12.225  18.346  0.00  0.00    +0.000 C 
ATOM     13  C   UNL     1      40.176   8.266  22.564  0.00  0.00    +0.000 C 
ATOM     14  C   UNL     1      42.259  12.536  19.174  0.00  0.00    +0.000 C 
ATOM     15  C   UNL     1      41.243   7.792  23.480  0.00  0.00    +0.000 C 
ATOM     16  C   UNL     1      42.663   7.921  23.225  0.00  0.00    +0.000 C 
ATOM     17  C   UNL     1      43.489   9.066  23.586  0.00  0.00    +0.000 C 
ATOM     18  C   UNL     1      42.421  13.165  20.433  0.00  0.00    +0.000 C 
ATOM     19  C   UNL     1      43.520  11.506  22.799  0.00  0.00    +0.000 C 
ATOM     20  C   UNL     1      40.887  11.952  18.869  0.00  0.00    +0.000 C 
ATOM     21  C   UNL     1      42.875  12.814  22.773  0.00  0.00    +0.000 C 
ATOM     22  C   UNL     1      42.869  10.426  23.609  0.00  0.00    +0.000 C 
ATOM     23  C   UNL     1      42.644  13.661  21.611  0.00  0.00    +0.000 C 
ATOM     24  C   UNL     1      44.859   8.883  24.231  0.00  0.00    +0.000 C 
ATOM     25  C   UNL     1      44.625  11.206  21.796  0.00  0.00    +0.000 C 
ATOM     26  C   UNL     1      42.599  15.164  21.713  0.00  0.00    +0.000 C 
ENDROOT
BRANCH   8  27
ATOM     27  O   UNL     1      42.810   7.647  16.174  0.00  0.00    +0.000 OA
ATOM     28  H   UNL     1      43.615   7.527  15.630  0.00  0.00    +0.000 HD
ENDBRANCH   8  27
BRANCH  10  29
ATOM     29  O   UNL     1      43.789   9.974  15.347  0.00  0.00    +0.000 OA
ATOM     30  H   UNL     1      43.007   9.838  14.781  0.00  0.00    +0.000 HD
ENDBRANCH  10  29
BRANCH  15  31
ATOM     31  O   UNL     1      40.929   7.664  24.824  0.00  0.00    +0.000 OA
ATOM     32  H   UNL     1      41.140   6.760  25.140  0.00  0.00    +0.000 HD
ENDBRANCH  15  31
BRANCH  16  33
ATOM     33  O   UNL     1      43.349   6.727  23.093  0.00  0.00    +0.000 OA
ATOM     34  C   UNL     1      43.546   6.453  21.728  0.00  0.00    +0.000 C 
ENDBRANCH  16  33
BRANCH  21  35
ATOM     35  O   UNL     1      42.612  13.362  24.054  0.00  0.00    +0.000 OA
BRANCH  35  37
ATOM     36  O   UNL     1      44.712  14.320  24.435  0.00  0.00    +0.000 OA
ATOM     37  C   UNL     1      43.745  13.650  24.752  0.00  0.00    +0.000 C 
ATOM     38  C   UNL     1      43.783  13.087  26.127  0.00  0.00    +0.000 C 
ENDBRANCH  35  37
ENDBRANCH  21  35
BRANCH   6  39
ATOM     39  C   UNL     1      39.794   7.830  18.541  0.00  0.00    +0.000 C 
BRANCH  39  41
ATOM     40  O   UNL     1      37.321   8.394  18.281  0.00  0.00    +0.000 OA
ATOM     41  C   UNL     1      38.709   8.787  18.186  0.00  0.00    +0.000 C 
ATOM     42  C   UNL     1      37.851   9.097  19.326  0.00  0.00    +0.000 C 
ATOM     43  C   UNL     1      38.901   9.732  16.946  0.00  0.00    +0.000 C 
BRANCH  42  44
ATOM     44  C   UNL     1      37.300  10.390  19.597  0.00  0.00    +0.000 C 
ATOM     45  C   UNL     1      35.877  10.708  19.199  0.00  0.00    +0.000 C 
BRANCH  44  46
ATOM     46  C   UNL     1      37.856  11.212  20.610  0.00  0.00    +0.000 C 
ATOM     47  C   UNL     1      38.366  11.878  21.466  0.00  0.00    +0.000 C 
ATOM     48  C   UNL     1      39.080  12.695  22.551  0.00  0.00    +0.000 C 
ENDBRANCH  44  46
ENDBRANCH  42  44
ENDBRANCH  39  41
BRANCH  39  49
ATOM     49  O   UNL     1      39.651   6.457  18.422  0.00  0.00    +0.000 OA
ATOM     50  H   UNL     1      40.180   6.057  17.705  0.00  0.00    +0.000 HD
ENDBRANCH  39  49
ENDBRANCH   6  39
BRANCH   8  51
ATOM     51  C   UNL     1      44.473   7.929  17.801  0.00  0.00    +0.000 C 
BRANCH  51  52
ATOM     52  O   UNL     1      45.620   7.445  18.277  0.00  0.00    +0.000 OA
ATOM     53  H   UNL     1      45.605   7.406  19.255  0.00  0.00    +0.000 HD
ENDBRANCH  51  52
ENDBRANCH   8  51
TORSDOF 13
ENDMDL
MODEL 4
REMARK VINA RESULT:      -5.6      2.209      4.518
REMARK  Name = 102471178_CandidaspongiolideCore.pdbqt.pdb
REMARK  13 active torsions:
REMARK  status: ('A' for Active; 'I' for Inactive)
REMARK    1  A    between atoms: C_6  and  C_39
REMARK    2  A    between atoms: C_8  and  O_27
REMARK    3  A    between atoms: C_8  and  C_51
REMARK    4  A    between atoms: C_10  and  O_29
REMARK    5  A    between atoms: C_15  and  O_31
REMARK    6  A    between atoms: C_16  and  O_33
REMARK    7  A    between atoms: C_21  and  O_35
REMARK    8  A    between atoms: O_35  and  C_37
REMARK    9  A    between atoms: C_39  and  C_41
REMARK   10  A    between atoms: C_39  and  O_49
REMARK   11  A    between atoms: C_42  and  C_44
REMARK   12  A    between atoms: C_44  and  C_46
REMARK   13  A    between atoms: C_51  and  O_52
REMARK                            x       y       z     vdW  Elec       q    Type
REMARK                         _______ _______ _______ _____ _____    ______ ____
ROOT
ATOM      1  O   UNL     1      46.428  -4.547  10.748  0.00  0.00    +0.000 OA
ATOM      2  O   UNL     1      47.797  -3.592  12.326  0.00  0.00    +0.000 OA
ATOM      3  O   UNL     1      48.984  -0.610  16.086  0.00  0.00    +0.000 OA
ATOM      4  O   UNL     1      46.924  -6.734  11.009  0.00  0.00    +0.000 OA
ATOM      5  O   UNL     1      50.153  -6.072  12.242  0.00  0.00    +0.000 OA
ATOM      6  C   UNL     1      45.676  -2.613  11.782  0.00  0.00    +0.000 C 
ATOM      7  C   UNL     1      45.949  -1.265  12.146  0.00  0.00    +0.000 C 
ATOM      8  C   UNL     1      46.119   0.167  12.404  0.00  0.00    +0.000 C 
ATOM      9  C   UNL     1      46.760  -3.626  11.676  0.00  0.00    +0.000 C 
ATOM     10  C   UNL     1      46.335   0.462  13.872  0.00  0.00    +0.000 C 
ATOM     11  C   UNL     1      47.158  -0.311  14.734  0.00  0.00    +0.000 C 
ATOM     12  C   UNL     1      48.027  -1.145  15.538  0.00  0.00    +0.000 C 
ATOM     13  C   UNL     1      47.254  -5.606  10.663  0.00  0.00    +0.000 C 
ATOM     14  C   UNL     1      47.778  -2.615  15.646  0.00  0.00    +0.000 C 
ATOM     15  C   UNL     1      48.472  -5.416   9.837  0.00  0.00    +0.000 C 
ATOM     16  C   UNL     1      49.366  -4.280   9.939  0.00  0.00    +0.000 C 
ATOM     17  C   UNL     1      50.508  -4.177  10.838  0.00  0.00    +0.000 C 
ATOM     18  C   UNL     1      48.872  -3.498  15.812  0.00  0.00    +0.000 C 
ATOM     19  C   UNL     1      50.707  -4.070  13.391  0.00  0.00    +0.000 C 
ATOM     20  C   UNL     1      46.435  -3.241  15.297  0.00  0.00    +0.000 C 
ATOM     21  C   UNL     1      50.593  -4.747  14.679  0.00  0.00    +0.000 C 
ATOM     22  C   UNL     1      50.456  -4.880  12.156  0.00  0.00    +0.000 C 
ATOM     23  C   UNL     1      49.922  -4.258  15.875  0.00  0.00    +0.000 C 
ATOM     24  C   UNL     1      51.852  -3.643  10.352  0.00  0.00    +0.000 C 
ATOM     25  C   UNL     1      50.778  -2.550  13.358  0.00  0.00    +0.000 C 
ATOM     26  C   UNL     1      50.374  -4.645  17.260  0.00  0.00    +0.000 C 
ENDROOT
BRANCH   8  27
ATOM     27  O   UNL     1      44.897   0.783  11.990  0.00  0.00    +0.000 OA
ATOM     28  H   UNL     1      44.919   0.733  11.013  0.00  0.00    +0.000 HD
ENDBRANCH   8  27
BRANCH  10  29
ATOM     29  O   UNL     1      45.721   1.595  14.382  0.00  0.00    +0.000 OA
ATOM     30  H   UNL     1      44.835   1.405  14.742  0.00  0.00    +0.000 HD
ENDBRANCH  10  29
BRANCH  15  31
ATOM     31  O   UNL     1      49.068  -6.545   9.297  0.00  0.00    +0.000 OA
ATOM     32  H   UNL     1      48.997  -7.301   9.919  0.00  0.00    +0.000 HD
ENDBRANCH  15  31
BRANCH  16  33
ATOM     33  O   UNL     1      49.441  -3.487   8.808  0.00  0.00    +0.000 OA
ATOM     34  C   UNL     1      48.712  -2.303   9.021  0.00  0.00    +0.000 C 
ENDBRANCH  16  33
BRANCH  21  35
ATOM     35  O   UNL     1      51.374  -5.925  14.792  0.00  0.00    +0.000 OA
BRANCH  35  37
ATOM     36  O   UNL     1      53.395  -4.957  15.465  0.00  0.00    +0.000 OA
ATOM     37  C   UNL     1      52.713  -5.680  14.760  0.00  0.00    +0.000 C 
ATOM     38  C   UNL     1      53.456  -6.446  13.726  0.00  0.00    +0.000 C 
ENDBRANCH  35  37
ENDBRANCH  21  35
BRANCH   6  39
ATOM     39  C   UNL     1      44.292  -2.988  11.604  0.00  0.00    +0.000 C 
BRANCH  39  41
ATOM     40  O   UNL     1      42.402  -4.644  12.038  0.00  0.00    +0.000 OA
ATOM     41  C   UNL     1      43.813  -4.323  12.059  0.00  0.00    +0.000 C 
ATOM     42  C   UNL     1      43.163  -5.071  10.986  0.00  0.00    +0.000 C 
ATOM     43  C   UNL     1      44.481  -4.987  13.315  0.00  0.00    +0.000 C 
BRANCH  42  44
ATOM     44  C   UNL     1      43.286  -6.484  10.794  0.00  0.00    +0.000 C 
ATOM     45  C   UNL     1      42.369  -7.434  11.529  0.00  0.00    +0.000 C 
BRANCH  44  46
ATOM     46  C   UNL     1      43.903  -7.000   9.626  0.00  0.00    +0.000 C 
ATOM     47  C   UNL     1      44.449  -7.470   8.667  0.00  0.00    +0.000 C 
ATOM     48  C   UNL     1      45.170  -8.124   7.482  0.00  0.00    +0.000 C 
ENDBRANCH  44  46
ENDBRANCH  42  44
ENDBRANCH  39  41
BRANCH  39  49
ATOM     49  O   UNL     1      43.478  -2.085  10.940  0.00  0.00    +0.000 OA
ATOM     50  H   UNL     1      43.836  -1.770  10.088  0.00  0.00    +0.000 HD
ENDBRANCH  39  49
ENDBRANCH   6  39
BRANCH   8  51
ATOM     51  C   UNL     1      47.207   0.747  11.599  0.00  0.00    +0.000 C 
BRANCH  51  52
ATOM     52  O   UNL     1      48.221   1.258  10.900  0.00  0.00    +0.000 OA
ATOM     53  H   UNL     1      47.894   1.794  10.149  0.00  0.00    +0.000 HD
ENDBRANCH  51  52
ENDBRANCH   8  51
TORSDOF 13
ENDMDL
MODEL 5
REMARK VINA RESULT:      -5.6      2.296      6.696
REMARK  Name = 102471178_CandidaspongiolideCore.pdbqt.pdb
REMARK  13 active torsions:
REMARK  status: ('A' for Active; 'I' for Inactive)
REMARK    1  A    between atoms: C_6  and  C_39
REMARK    2  A    between atoms: C_8  and  O_27
REMARK    3  A    between atoms: C_8  and  C_51
REMARK    4  A    between atoms: C_10  and  O_29
REMARK    5  A    between atoms: C_15  and  O_31
REMARK    6  A    between atoms: C_16  and  O_33
REMARK    7  A    between atoms: C_21  and  O_35
REMARK    8  A    between atoms: O_35  and  C_37
REMARK    9  A    between atoms: C_39  and  C_41
REMARK   10  A    between atoms: C_39  and  O_49
REMARK   11  A    between atoms: C_42  and  C_44
REMARK   12  A    between atoms: C_44  and  C_46
REMARK   13  A    between atoms: C_51  and  O_52
REMARK                            x       y       z     vdW  Elec       q    Type
REMARK                         _______ _______ _______ _____ _____    ______ ____
ROOT
ATOM      1  O   UNL     1      49.213  -0.987  13.979  0.00  0.00    +0.000 OA
ATOM      2  O   UNL     1      47.295  -1.922  13.129  0.00  0.00    +0.000 OA
ATOM      3  O   UNL     1      44.511  -5.415  11.010  0.00  0.00    +0.000 OA
ATOM      4  O   UNL     1      48.462  -0.161  15.942  0.00  0.00    +0.000 OA
ATOM      5  O   UNL     1      45.161   0.189  14.772  0.00  0.00    +0.000 OA
ATOM      6  C   UNL     1      49.444  -2.875  12.653  0.00  0.00    +0.000 C 
ATOM      7  C   UNL     1      49.139  -3.520  11.423  0.00  0.00    +0.000 C 
ATOM      8  C   UNL     1      48.984  -4.161  10.114  0.00  0.00    +0.000 C 
ATOM      9  C   UNL     1      48.511  -1.897  13.273  0.00  0.00    +0.000 C 
ATOM     10  C   UNL     1      48.025  -5.330  10.161  0.00  0.00    +0.000 C 
ATOM     11  C   UNL     1      46.798  -5.336  10.877  0.00  0.00    +0.000 C 
ATOM     12  C   UNL     1      45.560  -5.250  11.623  0.00  0.00    +0.000 C 
ATOM     13  C   UNL     1      48.479  -0.134  14.716  0.00  0.00    +0.000 C 
ATOM     14  C   UNL     1      45.576  -4.925  13.082  0.00  0.00    +0.000 C 
ATOM     15  C   UNL     1      47.937   1.046  13.998  0.00  0.00    +0.000 C 
ATOM     16  C   UNL     1      47.240   0.988  12.729  0.00  0.00    +0.000 C 
ATOM     17  C   UNL     1      45.807   0.792  12.557  0.00  0.00    +0.000 C 
ATOM     18  C   UNL     1      44.496  -4.205  13.649  0.00  0.00    +0.000 C 
ATOM     19  C   UNL     1      44.249  -1.180  13.061  0.00  0.00    +0.000 C 
ATOM     20  C   UNL     1      46.827  -5.074  13.936  0.00  0.00    +0.000 C 
ATOM     21  C   UNL     1      43.576  -2.015  14.050  0.00  0.00    +0.000 C 
ATOM     22  C   UNL     1      45.063  -0.027  13.562  0.00  0.00    +0.000 C 
ATOM     23  C   UNL     1      43.521  -3.470  14.087  0.00  0.00    +0.000 C 
ATOM     24  C   UNL     1      45.004   1.638  11.573  0.00  0.00    +0.000 C 
ATOM     25  C   UNL     1      44.345  -1.670  11.622  0.00  0.00    +0.000 C 
ATOM     26  C   UNL     1      42.351  -4.211  14.680  0.00  0.00    +0.000 C 
ENDROOT
BRANCH   8  27
ATOM     27  O   UNL     1      50.282  -4.649   9.767  0.00  0.00    +0.000 OA
ATOM     28  H   UNL     1      50.103  -5.430   9.205  0.00  0.00    +0.000 HD
ENDBRANCH   8  27
BRANCH  10  29
ATOM     29  O   UNL     1      48.356  -6.445   9.406  0.00  0.00    +0.000 OA
ATOM     30  H   UNL     1      48.660  -6.207   8.510  0.00  0.00    +0.000 HD
ENDBRANCH  10  29
BRANCH  15  31
ATOM     31  O   UNL     1      47.637   2.174  14.746  0.00  0.00    +0.000 OA
ATOM     32  H   UNL     1      47.983   2.980  14.305  0.00  0.00    +0.000 HD
ENDBRANCH  15  31
BRANCH  16  33
ATOM     33  O   UNL     1      47.870   1.637  11.682  0.00  0.00    +0.000 OA
ATOM     34  C   UNL     1      48.457   0.684  10.831  0.00  0.00    +0.000 C 
ENDBRANCH  16  33
BRANCH  21  35
ATOM     35  O   UNL     1      42.760  -1.299  14.962  0.00  0.00    +0.000 OA
BRANCH  35  37
ATOM     36  O   UNL     1      41.161  -0.802  13.329  0.00  0.00    +0.000 OA
ATOM     37  C   UNL     1      41.788  -0.570  14.346  0.00  0.00    +0.000 C 
ATOM     38  C   UNL     1      41.417   0.684  15.051  0.00  0.00    +0.000 C 
ENDBRANCH  35  37
ENDBRANCH  21  35
BRANCH   6  39
ATOM     39  C   UNL     1      50.658  -3.270  13.329  0.00  0.00    +0.000 C 
BRANCH  39  41
ATOM     40  O   UNL     1      50.418  -5.809  13.297  0.00  0.00    +0.000 OA
ATOM     41  C   UNL     1      50.741  -4.592  14.011  0.00  0.00    +0.000 C 
ATOM     42  C   UNL     1      51.737  -5.467  13.399  0.00  0.00    +0.000 C 
ATOM     43  C   UNL     1      50.257  -4.716  15.499  0.00  0.00    +0.000 C 
BRANCH  42  44
ATOM     44  C   UNL     1      52.593  -6.354  14.127  0.00  0.00    +0.000 C 
ATOM     45  C   UNL     1      52.541  -7.842  13.868  0.00  0.00    +0.000 C 
BRANCH  44  46
ATOM     46  C   UNL     1      53.782  -5.874  14.731  0.00  0.00    +0.000 C 
ATOM     47  C   UNL     1      54.785  -5.505  15.274  0.00  0.00    +0.000 C 
ATOM     48  C   UNL     1      56.071  -5.095  16.005  0.00  0.00    +0.000 C 
ENDBRANCH  44  46
ENDBRANCH  42  44
ENDBRANCH  39  41
BRANCH  39  49
ATOM     49  O   UNL     1      51.687  -2.343  13.364  0.00  0.00    +0.000 OA
ATOM     50  H   UNL     1      51.952  -2.001  12.489  0.00  0.00    +0.000 HD
ENDBRANCH  39  49
ENDBRANCH   6  39
BRANCH   8  51
ATOM     51  C   UNL     1      48.574  -3.202   9.075  0.00  0.00    +0.000 C 
BRANCH  51  52
ATOM     52  O   UNL     1      48.160  -2.338   8.148  0.00  0.00    +0.000 OA
ATOM     53  H   UNL     1      48.722  -1.537   8.140  0.00  0.00    +0.000 HD
ENDBRANCH  51  52
ENDBRANCH   8  51
TORSDOF 13
ENDMDL
MODEL 6
REMARK VINA RESULT:      -5.6     18.626     22.632
REMARK  Name = 102471178_CandidaspongiolideCore.pdbqt.pdb
REMARK  13 active torsions:
REMARK  status: ('A' for Active; 'I' for Inactive)
REMARK    1  A    between atoms: C_6  and  C_39
REMARK    2  A    between atoms: C_8  and  O_27
REMARK    3  A    between atoms: C_8  and  C_51
REMARK    4  A    between atoms: C_10  and  O_29
REMARK    5  A    between atoms: C_15  and  O_31
REMARK    6  A    between atoms: C_16  and  O_33
REMARK    7  A    between atoms: C_21  and  O_35
REMARK    8  A    between atoms: O_35  and  C_37
REMARK    9  A    between atoms: C_39  and  C_41
REMARK   10  A    between atoms: C_39  and  O_49
REMARK   11  A    between atoms: C_42  and  C_44
REMARK   12  A    between atoms: C_44  and  C_46
REMARK   13  A    between atoms: C_51  and  O_52
REMARK                            x       y       z     vdW  Elec       q    Type
REMARK                         _______ _______ _______ _____ _____    ______ ____
ROOT
ATOM      1  O   UNL     1      25.071  -6.440  12.077  0.00  0.00    +0.000 OA
ATOM      2  O   UNL     1      25.262  -5.625  14.216  0.00  0.00    +0.000 OA
ATOM      3  O   UNL     1      23.679  -3.761  18.512  0.00  0.00    +0.000 OA
ATOM      4  O   UNL     1      26.355  -8.293  12.202  0.00  0.00    +0.000 OA
ATOM      5  O   UNL     1      28.341  -6.998  14.803  0.00  0.00    +0.000 OA
ATOM      6  C   UNL     1      23.250  -5.305  12.952  0.00  0.00    +0.000 C 
ATOM      7  C   UNL     1      22.763  -4.131  13.593  0.00  0.00    +0.000 C 
ATOM      8  C   UNL     1      22.191  -2.885  14.108  0.00  0.00    +0.000 C 
ATOM      9  C   UNL     1      24.632  -5.802  13.181  0.00  0.00    +0.000 C 
ATOM     10  C   UNL     1      21.747  -3.012  15.549  0.00  0.00    +0.000 C 
ATOM     11  C   UNL     1      22.482  -3.689  16.560  0.00  0.00    +0.000 C 
ATOM     12  C   UNL     1      23.300  -4.387  17.528  0.00  0.00    +0.000 C 
ATOM     13  C   UNL     1      26.253  -7.072  12.205  0.00  0.00    +0.000 C 
ATOM     14  C   UNL     1      23.700  -5.809  17.299  0.00  0.00    +0.000 C 
ATOM     15  C   UNL     1      27.463  -6.230  12.032  0.00  0.00    +0.000 C 
ATOM     16  C   UNL     1      27.675  -4.952  12.680  0.00  0.00    +0.000 C 
ATOM     17  C   UNL     1      28.279  -4.756  13.991  0.00  0.00    +0.000 C 
ATOM     18  C   UNL     1      24.943  -6.274  17.793  0.00  0.00    +0.000 C 
ATOM     19  C   UNL     1      27.539  -5.397  16.360  0.00  0.00    +0.000 C 
ATOM     20  C   UNL     1      22.973  -6.710  16.310  0.00  0.00    +0.000 C 
ATOM     21  C   UNL     1      27.307  -6.440  17.353  0.00  0.00    +0.000 C 
ATOM     22  C   UNL     1      28.100  -5.812  15.034  0.00  0.00    +0.000 C 
ATOM     23  C   UNL     1      26.130  -6.611  18.195  0.00  0.00    +0.000 C 
ATOM     24  C   UNL     1      29.329  -3.674  14.226  0.00  0.00    +0.000 C 
ATOM     25  C   UNL     1      26.943  -4.015  16.586  0.00  0.00    +0.000 C 
ATOM     26  C   UNL     1      26.210  -7.236  19.563  0.00  0.00    +0.000 C 
ENDROOT
BRANCH   8  27
ATOM     27  O   UNL     1      21.042  -2.623  13.299  0.00  0.00    +0.000 OA
ATOM     28  H   UNL     1      21.382  -2.647  12.382  0.00  0.00    +0.000 HD
ENDBRANCH   8  27
BRANCH  10  29
ATOM     29  O   UNL     1      20.567  -2.376  15.902  0.00  0.00    +0.000 OA
ATOM     30  H   UNL     1      20.209  -2.705  16.747  0.00  0.00    +0.000 HD
ENDBRANCH  10  29
BRANCH  15  31
ATOM     31  O   UNL     1      28.636  -6.860  11.646  0.00  0.00    +0.000 OA
ATOM     32  H   UNL     1      29.326  -6.749  12.334  0.00  0.00    +0.000 HD
ENDBRANCH  15  31
BRANCH  16  33
ATOM     33  O   UNL     1      27.771  -3.868  11.826  0.00  0.00    +0.000 OA
ATOM     34  C   UNL     1      26.893  -2.857  12.258  0.00  0.00    +0.000 C 
ENDBRANCH  16  33
BRANCH  21  35
ATOM     35  O   UNL     1      28.435  -7.256  17.620  0.00  0.00    +0.000 OA
BRANCH  35  37
ATOM     36  O   UNL     1      30.042  -5.587  17.941  0.00  0.00    +0.000 OA
ATOM     37  C   UNL     1      29.432  -6.590  18.266  0.00  0.00    +0.000 C 
ATOM     38  C   UNL     1      29.801  -7.160  19.587  0.00  0.00    +0.000 C 
ENDBRANCH  35  37
ENDBRANCH  21  35
BRANCH   6  39
ATOM     39  C   UNL     1      22.320  -6.050  12.134  0.00  0.00    +0.000 C 
BRANCH  39  41
ATOM     40  O   UNL     1      21.332  -8.373  11.774  0.00  0.00    +0.000 OA
ATOM     41  C   UNL     1      21.682  -7.288  12.664  0.00  0.00    +0.000 C 
ATOM     42  C   UNL     1      22.513  -8.470  12.455  0.00  0.00    +0.000 C 
ATOM     43  C   UNL     1      20.594  -7.164  13.790  0.00  0.00    +0.000 C 
BRANCH  42  44
ATOM     44  C   UNL     1      22.646  -9.543  13.393  0.00  0.00    +0.000 C 
ATOM     45  C   UNL     1      21.969 -10.869  13.133  0.00  0.00    +0.000 C 
BRANCH  44  46
ATOM     46  C   UNL     1      23.733  -9.573  14.303  0.00  0.00    +0.000 C 
ATOM     47  C   UNL     1      24.681  -9.616  15.037  0.00  0.00    +0.000 C 
ATOM     48  C   UNL     1      25.935  -9.683  15.918  0.00  0.00    +0.000 C 
ENDBRANCH  44  46
ENDBRANCH  42  44
ENDBRANCH  39  41
BRANCH  39  49
ATOM     49  O   UNL     1      22.119  -5.597  10.841  0.00  0.00    +0.000 OA
ATOM     50  H   UNL     1      22.596  -6.104  10.157  0.00  0.00    +0.000 HD
ENDBRANCH  39  49
ENDBRANCH   6  39
BRANCH   8  51
ATOM     51  C   UNL     1      23.114  -1.749  13.955  0.00  0.00    +0.000 C 
BRANCH  51  52
ATOM     52  O   UNL     1      23.918  -0.692  13.828  0.00  0.00    +0.000 OA
ATOM     53  H   UNL     1      24.761  -0.835  14.304  0.00  0.00    +0.000 HD
ENDBRANCH  51  52
ENDBRANCH   8  51
TORSDOF 13
ENDMDL
MODEL 7
REMARK VINA RESULT:      -5.4     10.397     14.120
REMARK  Name = 102471178_CandidaspongiolideCore.pdbqt.pdb
REMARK  13 active torsions:
REMARK  status: ('A' for Active; 'I' for Inactive)
REMARK    1  A    between atoms: C_6  and  C_39
REMARK    2  A    between atoms: C_8  and  O_27
REMARK    3  A    between atoms: C_8  and  C_51
REMARK    4  A    between atoms: C_10  and  O_29
REMARK    5  A    between atoms: C_15  and  O_31
REMARK    6  A    between atoms: C_16  and  O_33
REMARK    7  A    between atoms: C_21  and  O_35
REMARK    8  A    between atoms: O_35  and  C_37
REMARK    9  A    between atoms: C_39  and  C_41
REMARK   10  A    between atoms: C_39  and  O_49
REMARK   11  A    between atoms: C_42  and  C_44
REMARK   12  A    between atoms: C_44  and  C_46
REMARK   13  A    between atoms: C_51  and  O_52
REMARK                            x       y       z     vdW  Elec       q    Type
REMARK                         _______ _______ _______ _____ _____    ______ ____
ROOT
ATOM      1  O   UNL     1      41.911   9.062  18.043  0.00  0.00    +0.000 OA
ATOM      2  O   UNL     1      43.538   7.458  18.282  0.00  0.00    +0.000 OA
ATOM      3  O   UNL     1      45.571   3.284  19.981  0.00  0.00    +0.000 OA
ATOM      4  O   UNL     1      41.882   9.321  15.800  0.00  0.00    +0.000 OA
ATOM      5  O   UNL     1      45.229   8.297  15.427  0.00  0.00    +0.000 OA
ATOM      6  C   UNL     1      41.690   7.573  19.806  0.00  0.00    +0.000 C 
ATOM      7  C   UNL     1      42.292   6.959  20.939  0.00  0.00    +0.000 C 
ATOM      8  C   UNL     1      42.811   6.420  22.200  0.00  0.00    +0.000 C 
ATOM      9  C   UNL     1      42.494   7.996  18.630  0.00  0.00    +0.000 C 
ATOM     10  C   UNL     1      43.157   4.951  22.094  0.00  0.00    +0.000 C 
ATOM     11  C   UNL     1      43.810   4.357  20.981  0.00  0.00    +0.000 C 
ATOM     12  C   UNL     1      44.490   3.838  19.813  0.00  0.00    +0.000 C 
ATOM     13  C   UNL     1      42.456   9.451  16.875  0.00  0.00    +0.000 C 
ATOM     14  C   UNL     1      43.903   4.021  18.451  0.00  0.00    +0.000 C 
ATOM     15  C   UNL     1      43.646  10.332  16.975  0.00  0.00    +0.000 C 
ATOM     16  C   UNL     1      44.788  10.078  17.829  0.00  0.00    +0.000 C 
ATOM     17  C   UNL     1      45.961   9.294  17.466  0.00  0.00    +0.000 C 
ATOM     18  C   UNL     1      44.761   4.153  17.332  0.00  0.00    +0.000 C 
ATOM     19  C   UNL     1      46.295   6.808  16.937  0.00  0.00    +0.000 C 
ATOM     20  C   UNL     1      42.435   4.362  18.235  0.00  0.00    +0.000 C 
ATOM     21  C   UNL     1      46.082   5.689  16.026  0.00  0.00    +0.000 C 
ATOM     22  C   UNL     1      45.803   8.157  16.509  0.00  0.00    +0.000 C 
ATOM     23  C   UNL     1      45.601   4.356  16.364  0.00  0.00    +0.000 C 
ATOM     24  C   UNL     1      47.371   9.783  17.785  0.00  0.00    +0.000 C 
ATOM     25  C   UNL     1      46.725   6.524  18.370  0.00  0.00    +0.000 C 
ATOM     26  C   UNL     1      46.010   3.136  15.579  0.00  0.00    +0.000 C 
ENDROOT
BRANCH   8  27
ATOM     27  O   UNL     1      41.753   6.572  23.150  0.00  0.00    +0.000 OA
ATOM     28  H   UNL     1      40.953   6.703  22.602  0.00  0.00    +0.000 HD
ENDBRANCH   8  27
BRANCH  10  29
ATOM     29  O   UNL     1      42.855   4.154  23.187  0.00  0.00    +0.000 OA
ATOM     30  H   UNL     1      42.030   3.650  23.060  0.00  0.00    +0.000 HD
ENDBRANCH  10  29
BRANCH  15  31
ATOM     31  O   UNL     1      43.930  11.155  15.896  0.00  0.00    +0.000 OA
ATOM     32  H   UNL     1      44.893  11.153  15.708  0.00  0.00    +0.000 HD
ENDBRANCH  15  31
BRANCH  16  33
ATOM     33  O   UNL     1      44.999  11.017  18.823  0.00  0.00    +0.000 OA
ATOM     34  C   UNL     1      44.554  10.499  20.053  0.00  0.00    +0.000 C 
ENDBRANCH  16  33
BRANCH  21  35
ATOM     35  O   UNL     1      46.563   5.905  14.710  0.00  0.00    +0.000 OA
BRANCH  35  37
ATOM     36  O   UNL     1      48.804   5.344  15.074  0.00  0.00    +0.000 OA
ATOM     37  C   UNL     1      47.914   6.063  14.658  0.00  0.00    +0.000 C 
ATOM     38  C   UNL     1      48.365   7.289  13.949  0.00  0.00    +0.000 C 
ENDBRANCH  35  37
ENDBRANCH  21  35
BRANCH   6  39
ATOM     39  C   UNL     1      40.250   7.690  19.799  0.00  0.00    +0.000 C 
BRANCH  39  41
ATOM     40  O   UNL     1      40.134   9.920  21.031  0.00  0.00    +0.000 OA
ATOM     41  C   UNL     1      39.569   8.620  20.744  0.00  0.00    +0.000 C 
ATOM     42  C   UNL     1      39.144   9.855  20.091  0.00  0.00    +0.000 C 
ATOM     43  C   UNL     1      38.908   8.039  22.044  0.00  0.00    +0.000 C 
BRANCH  42  44
ATOM     44  C   UNL     1      37.920  10.542  20.375  0.00  0.00    +0.000 C 
ATOM     45  C   UNL     1      37.935  12.018  20.699  0.00  0.00    +0.000 C 
BRANCH  44  46
ATOM     46  C   UNL     1      36.681  10.021  19.926  0.00  0.00    +0.000 C 
ATOM     47  C   UNL     1      35.609   9.612  19.574  0.00  0.00    +0.000 C 
ATOM     48  C   UNL     1      34.208   9.147  19.157  0.00  0.00    +0.000 C 
ENDBRANCH  44  46
ENDBRANCH  42  44
ENDBRANCH  39  41
BRANCH  39  49
ATOM     49  O   UNL     1      39.557   6.859  18.935  0.00  0.00    +0.000 OA
ATOM     50  H   UNL     1      39.749   7.009  17.989  0.00  0.00    +0.000 HD
ENDBRANCH  39  49
ENDBRANCH   6  39
BRANCH   8  51
ATOM     51  C   UNL     1      43.968   7.185  22.692  0.00  0.00    +0.000 C 
BRANCH  51  52
ATOM     52  O   UNL     1      45.002   7.913  23.116  0.00  0.00    +0.000 OA
ATOM     53  H   UNL     1      44.830   8.869  22.993  0.00  0.00    +0.000 HD
ENDBRANCH  51  52
ENDBRANCH   8  51
TORSDOF 13
ENDMDL
MODEL 8
REMARK VINA RESULT:      -5.4      2.380      5.788
REMARK  Name = 102471178_CandidaspongiolideCore.pdbqt.pdb
REMARK  13 active torsions:
REMARK  status: ('A' for Active; 'I' for Inactive)
REMARK    1  A    between atoms: C_6  and  C_39
REMARK    2  A    between atoms: C_8  and  O_27
REMARK    3  A    between atoms: C_8  and  C_51
REMARK    4  A    between atoms: C_10  and  O_29
REMARK    5  A    between atoms: C_15  and  O_31
REMARK    6  A    between atoms: C_16  and  O_33
REMARK    7  A    between atoms: C_21  and  O_35
REMARK    8  A    between atoms: O_35  and  C_37
REMARK    9  A    between atoms: C_39  and  C_41
REMARK   10  A    between atoms: C_39  and  O_49
REMARK   11  A    between atoms: C_42  and  C_44
REMARK   12  A    between atoms: C_44  and  C_46
REMARK   13  A    between atoms: C_51  and  O_52
REMARK                            x       y       z     vdW  Elec       q    Type
REMARK                         _______ _______ _______ _____ _____    ______ ____
ROOT
ATOM      1  O   UNL     1      46.962  -2.949  10.970  0.00  0.00    +0.000 OA
ATOM      2  O   UNL     1      48.680  -2.492  12.424  0.00  0.00    +0.000 OA
ATOM      3  O   UNL     1      51.174   0.090  15.823  0.00  0.00    +0.000 OA
ATOM      4  O   UNL     1      46.534  -5.109  11.468  0.00  0.00    +0.000 OA
ATOM      5  O   UNL     1      49.811  -5.717  12.599  0.00  0.00    +0.000 OA
ATOM      6  C   UNL     1      47.120  -0.785  11.788  0.00  0.00    +0.000 C 
ATOM      7  C   UNL     1      47.937   0.360  11.999  0.00  0.00    +0.000 C 
ATOM      8  C   UNL     1      48.691   1.613  12.095  0.00  0.00    +0.000 C 
ATOM      9  C   UNL     1      47.688  -2.159  11.788  0.00  0.00    +0.000 C 
ATOM     10  C   UNL     1      49.083   1.935  13.521  0.00  0.00    +0.000 C 
ATOM     11  C   UNL     1      49.562   0.981  14.458  0.00  0.00    +0.000 C 
ATOM     12  C   UNL     1      50.055  -0.054  15.343  0.00  0.00    +0.000 C 
ATOM     13  C   UNL     1      47.278  -4.257  10.997  0.00  0.00    +0.000 C 
ATOM     14  C   UNL     1      49.233  -1.272  15.615  0.00  0.00    +0.000 C 
ATOM     15  C   UNL     1      48.424  -4.666  10.147  0.00  0.00    +0.000 C 
ATOM     16  C   UNL     1      49.707  -3.995  10.117  0.00  0.00    +0.000 C 
ATOM     17  C   UNL     1      50.836  -4.283  10.991  0.00  0.00    +0.000 C 
ATOM     18  C   UNL     1      49.878  -2.507  15.871  0.00  0.00    +0.000 C 
ATOM     19  C   UNL     1      51.193  -4.018  13.516  0.00  0.00    +0.000 C 
ATOM     20  C   UNL     1      47.736  -1.322  15.346  0.00  0.00    +0.000 C 
ATOM     21  C   UNL     1      50.879  -4.458  14.871  0.00  0.00    +0.000 C 
ATOM     22  C   UNL     1      50.569  -4.770  12.379  0.00  0.00    +0.000 C 
ATOM     23  C   UNL     1      50.528  -3.622  16.011  0.00  0.00    +0.000 C 
ATOM     24  C   UNL     1      52.254  -4.400  10.441  0.00  0.00    +0.000 C 
ATOM     25  C   UNL     1      51.876  -2.673  13.314  0.00  0.00    +0.000 C 
ATOM     26  C   UNL     1      50.853  -4.023  17.426  0.00  0.00    +0.000 C 
ENDROOT
BRANCH   8  27
ATOM     27  O   UNL     1      47.807   2.633  11.625  0.00  0.00    +0.000 OA
ATOM     28  H   UNL     1      48.109   3.444  12.081  0.00  0.00    +0.000 HD
ENDBRANCH   8  27
BRANCH  10  29
ATOM     29  O   UNL     1      49.013   3.264  13.906  0.00  0.00    +0.000 OA
ATOM     30  H   UNL     1      49.049   3.370  14.875  0.00  0.00    +0.000 HD
ENDBRANCH  10  29
BRANCH  15  31
ATOM     31  O   UNL     1      48.478  -5.988   9.731  0.00  0.00    +0.000 OA
ATOM     32  H   UNL     1      47.573  -6.353   9.633  0.00  0.00    +0.000 HD
ENDBRANCH  15  31
BRANCH  16  33
ATOM     33  O   UNL     1      50.041  -3.418   8.905  0.00  0.00    +0.000 OA
ATOM     34  C   UNL     1      49.990  -2.018   9.027  0.00  0.00    +0.000 C 
ENDBRANCH  16  33
BRANCH  21  35
ATOM     35  O   UNL     1      51.115  -5.836  15.109  0.00  0.00    +0.000 OA
BRANCH  35  37
ATOM     36  O   UNL     1      53.397  -5.698  15.602  0.00  0.00    +0.000 OA
ATOM     37  C   UNL     1      52.432  -6.171  15.029  0.00  0.00    +0.000 C 
ATOM     38  C   UNL     1      52.724  -7.315  14.127  0.00  0.00    +0.000 C 
ENDBRANCH  35  37
ENDBRANCH  21  35
BRANCH   6  39
ATOM     39  C   UNL     1      45.696  -0.573  11.661  0.00  0.00    +0.000 C 
BRANCH  39  41
ATOM     40  O   UNL     1      43.406  -1.148  12.624  0.00  0.00    +0.000 OA
ATOM     41  C   UNL     1      44.797  -0.807  12.826  0.00  0.00    +0.000 C 
ATOM     42  C   UNL     1      44.279  -2.172  12.857  0.00  0.00    +0.000 C 
ATOM     43  C   UNL     1      44.931   0.113  14.092  0.00  0.00    +0.000 C 
BRANCH  42  44
ATOM     44  C   UNL     1      44.090  -2.939  14.051  0.00  0.00    +0.000 C 
ATOM     45  C   UNL     1      42.705  -3.388  14.454  0.00  0.00    +0.000 C 
BRANCH  44  46
ATOM     46  C   UNL     1      45.165  -3.674  14.613  0.00  0.00    +0.000 C 
ATOM     47  C   UNL     1      46.071  -4.327  15.050  0.00  0.00    +0.000 C 
ATOM     48  C   UNL     1      47.233  -5.198  15.546  0.00  0.00    +0.000 C 
ENDBRANCH  44  46
ENDBRANCH  42  44
ENDBRANCH  39  41
BRANCH  39  49
ATOM     49  O   UNL     1      45.224  -0.217  10.409  0.00  0.00    +0.000 OA
ATOM     50  H   UNL     1      44.486  -0.767  10.084  0.00  0.00    +0.000 HD
ENDBRANCH  39  49
ENDBRANCH   6  39
BRANCH   8  51
ATOM     51  C   UNL     1      49.878   1.612  11.225  0.00  0.00    +0.000 C 
BRANCH  51  52
ATOM     52  O   UNL     1      50.927   1.598  10.402  0.00  0.00    +0.000 OA
ATOM     53  H   UNL     1      50.872   0.847   9.777  0.00  0.00    +0.000 HD
ENDBRANCH  51  52
ENDBRANCH   8  51
TORSDOF 13
ENDMDL
MODEL 9
REMARK VINA RESULT:      -5.3      2.395      5.727
REMARK  Name = 102471178_CandidaspongiolideCore.pdbqt.pdb
REMARK  13 active torsions:
REMARK  status: ('A' for Active; 'I' for Inactive)
REMARK    1  A    between atoms: C_6  and  C_39
REMARK    2  A    between atoms: C_8  and  O_27
REMARK    3  A    between atoms: C_8  and  C_51
REMARK    4  A    between atoms: C_10  and  O_29
REMARK    5  A    between atoms: C_15  and  O_31
REMARK    6  A    between atoms: C_16  and  O_33
REMARK    7  A    between atoms: C_21  and  O_35
REMARK    8  A    between atoms: O_35  and  C_37
REMARK    9  A    between atoms: C_39  and  C_41
REMARK   10  A    between atoms: C_39  and  O_49
REMARK   11  A    between atoms: C_42  and  C_44
REMARK   12  A    between atoms: C_44  and  C_46
REMARK   13  A    between atoms: C_51  and  O_52
REMARK                            x       y       z     vdW  Elec       q    Type
REMARK                         _______ _______ _______ _____ _____    ______ ____
ROOT
ATOM      1  O   UNL     1      49.901   0.453  12.710  0.00  0.00    +0.000 OA
ATOM      2  O   UNL     1      49.256  -1.750  12.631  0.00  0.00    +0.000 OA
ATOM      3  O   UNL     1      46.595  -5.641  11.142  0.00  0.00    +0.000 OA
ATOM      4  O   UNL     1      52.144   0.256  12.543  0.00  0.00    +0.000 OA
ATOM      5  O   UNL     1      52.174  -2.979  13.929  0.00  0.00    +0.000 OA
ATOM      6  C   UNL     1      47.854  -0.024  11.733  0.00  0.00    +0.000 C 
ATOM      7  C   UNL     1      46.593  -0.673  11.847  0.00  0.00    +0.000 C 
ATOM      8  C   UNL     1      45.229  -1.190  11.981  0.00  0.00    +0.000 C 
ATOM      9  C   UNL     1      49.071  -0.562  12.396  0.00  0.00    +0.000 C 
ATOM     10  C   UNL     1      44.988  -2.402  11.107  0.00  0.00    +0.000 C 
ATOM     11  C   UNL     1      45.918  -3.462  10.929  0.00  0.00    +0.000 C 
ATOM     12  C   UNL     1      46.917  -4.504  10.816  0.00  0.00    +0.000 C 
ATOM     13  C   UNL     1      51.109   0.090  13.179  0.00  0.00    +0.000 C 
ATOM     14  C   UNL     1      48.302  -4.179  10.358  0.00  0.00    +0.000 C 
ATOM     15  C   UNL     1      51.176  -0.230  14.626  0.00  0.00    +0.000 C 
ATOM     16  C   UNL     1      50.253  -1.104  15.319  0.00  0.00    +0.000 C 
ATOM     17  C   UNL     1      50.393  -2.548  15.456  0.00  0.00    +0.000 C 
ATOM     18  C   UNL     1      49.395  -4.932  10.851  0.00  0.00    +0.000 C 
ATOM     19  C   UNL     1      50.334  -4.470  13.759  0.00  0.00    +0.000 C 
ATOM     20  C   UNL     1      48.633  -2.893   9.613  0.00  0.00    +0.000 C 
ATOM     21  C   UNL     1      50.974  -5.175  12.654  0.00  0.00    +0.000 C 
ATOM     22  C   UNL     1      51.072  -3.315  14.367  0.00  0.00    +0.000 C 
ATOM     23  C   UNL     1      50.358  -5.602  11.406  0.00  0.00    +0.000 C 
ATOM     24  C   UNL     1      50.151  -3.245  16.792  0.00  0.00    +0.000 C 
ATOM     25  C   UNL     1      48.862  -4.728  14.049  0.00  0.00    +0.000 C 
ATOM     26  C   UNL     1      50.834  -6.818  10.655  0.00  0.00    +0.000 C 
ENDROOT
BRANCH   8  27
ATOM     27  O   UNL     1      44.370  -0.135  11.542  0.00  0.00    +0.000 OA
ATOM     28  H   UNL     1      44.923   0.386  10.926  0.00  0.00    +0.000 HD
ENDBRANCH   8  27
BRANCH  10  29
ATOM     29  O   UNL     1      43.753  -2.494  10.486  0.00  0.00    +0.000 OA
ATOM     30  H   UNL     1      43.391  -3.399  10.516  0.00  0.00    +0.000 HD
ENDBRANCH  10  29
BRANCH  15  31
ATOM     31  O   UNL     1      52.404  -0.106  15.257  0.00  0.00    +0.000 OA
ATOM     32  H   UNL     1      52.566   0.828  15.511  0.00  0.00    +0.000 HD
ENDBRANCH  15  31
BRANCH  16  33
ATOM     33  O   UNL     1      49.491  -0.497  16.301  0.00  0.00    +0.000 OA
ATOM     34  C   UNL     1      48.224  -0.183  15.778  0.00  0.00    +0.000 C 
ENDBRANCH  16  33
BRANCH  21  35
ATOM     35  O   UNL     1      52.290  -5.625  12.931  0.00  0.00    +0.000 OA
BRANCH  35  37
ATOM     36  O   UNL     1      51.830  -7.724  13.857  0.00  0.00    +0.000 OA
ATOM     37  C   UNL     1      52.328  -6.612  13.868  0.00  0.00    +0.000 C 
ATOM     38  C   UNL     1      53.134  -6.289  15.073  0.00  0.00    +0.000 C 
ENDBRANCH  35  37
ENDBRANCH  21  35
BRANCH   6  39
ATOM     39  C   UNL     1      47.930   1.135  10.872  0.00  0.00    +0.000 C 
BRANCH  39  41
ATOM     40  O   UNL     1      49.071   2.175   8.843  0.00  0.00    +0.000 OA
ATOM     41  C   UNL     1      48.514   1.017   9.507  0.00  0.00    +0.000 C 
ATOM     42  C   UNL     1      49.939   1.339   9.487  0.00  0.00    +0.000 C 
ATOM     43  C   UNL     1      47.804   0.100   8.448  0.00  0.00    +0.000 C 
BRANCH  42  44
ATOM     44  C   UNL     1      50.912   0.657   8.688  0.00  0.00    +0.000 C 
ATOM     45  C   UNL     1      51.696   1.412   7.638  0.00  0.00    +0.000 C 
BRANCH  44  46
ATOM     46  C   UNL     1      51.490  -0.557   9.137  0.00  0.00    +0.000 C 
ATOM     47  C   UNL     1      51.983  -1.564   9.562  0.00  0.00    +0.000 C 
ATOM     48  C   UNL     1      52.604  -2.827  10.172  0.00  0.00    +0.000 C 
ENDBRANCH  44  46
ENDBRANCH  42  44
ENDBRANCH  39  41
BRANCH  39  49
ATOM     49  O   UNL     1      47.505   2.340  11.405  0.00  0.00    +0.000 OA
ATOM     50  H   UNL     1      48.036   3.112  11.132  0.00  0.00    +0.000 HD
ENDBRANCH  39  49
ENDBRANCH   6  39
BRANCH   8  51
ATOM     51  C   UNL     1      44.888  -1.492  13.381  0.00  0.00    +0.000 C 
BRANCH  51  52
ATOM     52  O   UNL     1      44.546  -1.791  14.635  0.00  0.00    +0.000 OA
ATOM     53  H   UNL     1      43.609  -2.069  14.685  0.00  0.00    +0.000 HD
ENDBRANCH  51  52
ENDBRANCH   8  51
TORSDOF 13
ENDMDL
