MODEL 1
REMARK VINA RESULT:      -7.2      0.000      0.000
REMARK  Name = 10288191_Binimetinib.pdbqt.pdb
REMARK  6 active torsions:
REMARK  status: ('A' for Active; 'I' for Inactive)
REMARK    1  A    between atoms: C_6  and  N_21
REMARK    2  A    between atoms: C_7  and  C_14
REMARK    3  A    between atoms: N_13  and  O_16
REMARK    4  A    between atoms: O_16  and  C_17
REMARK    5  A    between atoms: C_18  and  O_19
REMARK    6  A    between atoms: N_21  and  C_25
REMARK                            x       y       z     vdW  Elec       q    Type
REMARK                         _______ _______ _______ _____ _____    ______ ____
ROOT
ATOM      1  F   UNL     1      22.569  19.238   1.062  0.00  0.00    +0.000 F 
ATOM      2  N   UNL     1      24.312  22.678  -1.296  0.00  0.00    +0.000 N 
ATOM      3  N   UNL     1      23.608  20.587  -1.342  0.00  0.00    +0.000 NA
ATOM      4  C   UNL     1      23.890  22.433  -0.022  0.00  0.00    +0.000 A 
ATOM      5  C   UNL     1      23.447  21.114  -0.073  0.00  0.00    +0.000 A 
ATOM      6  C   UNL     1      22.858  21.261   2.309  0.00  0.00    +0.000 A 
ATOM      7  C   UNL     1      23.337  22.598   2.311  0.00  0.00    +0.000 A 
ATOM      8  C   UNL     1      23.856  23.195   1.148  0.00  0.00    +0.000 A 
ATOM      9  C   UNL     1      22.933  20.530   1.100  0.00  0.00    +0.000 A 
ATOM     10  C   UNL     1      24.133  21.564  -2.058  0.00  0.00    +0.000 A 
ATOM     11  C   UNL     1      24.841  23.915  -1.770  0.00  0.00    +0.000 C 
ENDROOT
BRANCH   7  14
ATOM     12  O   UNL     1      22.390  23.342   4.341  0.00  0.00    +0.000 OA
ATOM     13  N   UNL     1      24.431  24.240   3.761  0.00  0.00    +0.000 N 
ATOM     14  C   UNL     1      23.337  23.422   3.562  0.00  0.00    +0.000 C 
ATOM     15  H   UNL     1      25.000  24.568   2.990  0.00  0.00    +0.000 HD
BRANCH  13  16
ATOM     16  O   UNL     1      24.253  25.191   4.789  0.00  0.00    +0.000 OA
BRANCH  16  17
ATOM     17  C   UNL     1      24.950  26.266   4.428  0.00  0.00    +0.000 C 
ATOM     18  C   UNL     1      25.765  27.497   4.015  0.00  0.00    +0.000 C 
BRANCH  18  19
ATOM     19  O   UNL     1      26.478  28.560   3.659  0.00  0.00    +0.000 OA
ATOM     20  H   UNL     1      26.181  28.887   2.793  0.00  0.00    +0.000 HD
ENDBRANCH  18  19
ENDBRANCH  16  17
ENDBRANCH  13  16
ENDBRANCH   7  14
BRANCH   6  21
ATOM     21  N   UNL     1      22.297  20.698   3.484  0.00  0.00    +0.000 N 
ATOM     22  H   UNL     1      22.744  21.036   4.350  0.00  0.00    +0.000 HD
BRANCH  21  25
ATOM     23 BR   UNL     1      16.856  18.119   4.451  0.00  0.00    +0.000 Br
ATOM     24  F   UNL     1      22.039  18.069   4.275  0.00  0.00    +0.000 F 
ATOM     25  C   UNL     1      21.025  20.145   3.737  0.00  0.00    +0.000 A 
ATOM     26  C   UNL     1      20.921  18.795   4.113  0.00  0.00    +0.000 A 
ATOM     27  C   UNL     1      19.836  20.856   3.560  0.00  0.00    +0.000 A 
ATOM     28  C   UNL     1      19.691  18.182   4.330  0.00  0.00    +0.000 A 
ATOM     29  C   UNL     1      18.594  20.259   3.774  0.00  0.00    +0.000 A 
ATOM     30  C   UNL     1      18.532  18.925   4.159  0.00  0.00    +0.000 A 
ENDBRANCH  21  25
ENDBRANCH   6  21
TORSDOF 6
ENDMDL
MODEL 2
REMARK VINA RESULT:      -6.8      3.169      5.104
REMARK  Name = 10288191_Binimetinib.pdbqt.pdb
REMARK  6 active torsions:
REMARK  status: ('A' for Active; 'I' for Inactive)
REMARK    1  A    between atoms: C_6  and  N_21
REMARK    2  A    between atoms: C_7  and  C_14
REMARK    3  A    between atoms: N_13  and  O_16
REMARK    4  A    between atoms: O_16  and  C_17
REMARK    5  A    between atoms: C_18  and  O_19
REMARK    6  A    between atoms: N_21  and  C_25
REMARK                            x       y       z     vdW  Elec       q    Type
REMARK                         _______ _______ _______ _____ _____    ______ ____
ROOT
ATOM      1  F   UNL     1      22.128  24.105   3.798  0.00  0.00    +0.000 F 
ATOM      2  N   UNL     1      25.934  26.541   3.694  0.00  0.00    +0.000 N 
ATOM      3  N   UNL     1      24.006  26.184   4.707  0.00  0.00    +0.000 NA
ATOM      4  C   UNL     1      25.377  25.500   3.009  0.00  0.00    +0.000 A 
ATOM      5  C   UNL     1      24.167  25.289   3.665  0.00  0.00    +0.000 A 
ATOM      6  C   UNL     1      23.688  23.452   2.104  0.00  0.00    +0.000 A 
ATOM      7  C   UNL     1      24.926  23.718   1.461  0.00  0.00    +0.000 A 
ATOM      8  C   UNL     1      25.780  24.743   1.907  0.00  0.00    +0.000 A 
ATOM      9  C   UNL     1      23.322  24.261   3.205  0.00  0.00    +0.000 A 
ATOM     10  C   UNL     1      25.097  26.927   4.697  0.00  0.00    +0.000 A 
ATOM     11  C   UNL     1      27.205  27.126   3.421  0.00  0.00    +0.000 C 
ENDROOT
BRANCH   7  14
ATOM     12  O   UNL     1      25.222  21.717   0.246  0.00  0.00    +0.000 OA
ATOM     13  N   UNL     1      25.911  23.662  -0.780  0.00  0.00    +0.000 N 
ATOM     14  C   UNL     1      25.363  22.938   0.259  0.00  0.00    +0.000 C 
ATOM     15  H   UNL     1      26.344  24.565  -0.631  0.00  0.00    +0.000 HD
BRANCH  13  16
ATOM     16  O   UNL     1      26.557  22.867  -1.750  0.00  0.00    +0.000 OA
BRANCH  16  17
ATOM     17  C   UNL     1      27.843  23.212  -1.720  0.00  0.00    +0.000 C 
ATOM     18  C   UNL     1      29.325  23.598  -1.677  0.00  0.00    +0.000 C 
BRANCH  18  19
ATOM     19  O   UNL     1      30.612  23.925  -1.637  0.00  0.00    +0.000 OA
ATOM     20  H   UNL     1      30.812  24.400  -0.812  0.00  0.00    +0.000 HD
ENDBRANCH  18  19
ENDBRANCH  16  17
ENDBRANCH  13  16
ENDBRANCH   7  14
BRANCH   6  21
ATOM     21  N   UNL     1      22.866  22.383   1.663  0.00  0.00    +0.000 N 
ATOM     22  H   UNL     1      23.115  22.041   0.722  0.00  0.00    +0.000 HD
BRANCH  21  25
ATOM     23 BR   UNL     1      19.678  18.104   4.615  0.00  0.00    +0.000 Br
ATOM     24  F   UNL     1      24.011  20.020   2.508  0.00  0.00    +0.000 F 
ATOM     25  C   UNL     1      22.109  21.432   2.379  0.00  0.00    +0.000 A 
ATOM     26  C   UNL     1      22.710  20.225   2.773  0.00  0.00    +0.000 A 
ATOM     27  C   UNL     1      20.750  21.593   2.657  0.00  0.00    +0.000 A 
ATOM     28  C   UNL     1      22.002  19.230   3.439  0.00  0.00    +0.000 A 
ATOM     29  C   UNL     1      20.023  20.608   3.325  0.00  0.00    +0.000 A 
ATOM     30  C   UNL     1      20.657  19.434   3.711  0.00  0.00    +0.000 A 
ENDBRANCH  21  25
ENDBRANCH   6  21
TORSDOF 6
ENDMDL
MODEL 3
REMARK VINA RESULT:      -6.4      2.914      5.344
REMARK  Name = 10288191_Binimetinib.pdbqt.pdb
REMARK  6 active torsions:
REMARK  status: ('A' for Active; 'I' for Inactive)
REMARK    1  A    between atoms: C_6  and  N_21
REMARK    2  A    between atoms: C_7  and  C_14
REMARK    3  A    between atoms: N_13  and  O_16
REMARK    4  A    between atoms: O_16  and  C_17
REMARK    5  A    between atoms: C_18  and  O_19
REMARK    6  A    between atoms: N_21  and  C_25
REMARK                            x       y       z     vdW  Elec       q    Type
REMARK                         _______ _______ _______ _____ _____    ______ ____
ROOT
ATOM      1  F   UNL     1      22.740  23.663   4.889  0.00  0.00    +0.000 F 
ATOM      2  N   UNL     1      25.545  26.303   2.524  0.00  0.00    +0.000 N 
ATOM      3  N   UNL     1      24.302  26.098   4.336  0.00  0.00    +0.000 NA
ATOM      4  C   UNL     1      25.015  25.048   2.434  0.00  0.00    +0.000 A 
ATOM      5  C   UNL     1      24.240  24.939   3.585  0.00  0.00    +0.000 A 
ATOM      6  C   UNL     1      23.617  22.662   2.900  0.00  0.00    +0.000 A 
ATOM      7  C   UNL     1      24.409  22.831   1.734  0.00  0.00    +0.000 A 
ATOM      8  C   UNL     1      25.115  24.024   1.491  0.00  0.00    +0.000 A 
ATOM      9  C   UNL     1      23.538  23.739   3.813  0.00  0.00    +0.000 A 
ATOM     10  C   UNL     1      25.103  26.903   3.664  0.00  0.00    +0.000 A 
ATOM     11  C   UNL     1      26.440  26.893   1.585  0.00  0.00    +0.000 C 
ENDROOT
BRANCH   7  14
ATOM     12  O   UNL     1      24.987  20.666   0.994  0.00  0.00    +0.000 OA
ATOM     13  N   UNL     1      24.033  22.071  -0.563  0.00  0.00    +0.000 N 
ATOM     14  C   UNL     1      24.505  21.755   0.695  0.00  0.00    +0.000 C 
ATOM     15  H   UNL     1      23.982  23.028  -0.890  0.00  0.00    +0.000 HD
BRANCH  13  16
ATOM     16  O   UNL     1      24.402  21.141  -1.560  0.00  0.00    +0.000 OA
BRANCH  16  17
ATOM     17  C   UNL     1      23.310  20.428  -1.827  0.00  0.00    +0.000 C 
ATOM     18  C   UNL     1      22.055  19.609  -2.148  0.00  0.00    +0.000 C 
BRANCH  18  19
ATOM     19  O   UNL     1      20.970  18.897  -2.434  0.00  0.00    +0.000 OA
ATOM     20  H   UNL     1      20.767  18.963  -3.383  0.00  0.00    +0.000 HD
ENDBRANCH  18  19
ENDBRANCH  16  17
ENDBRANCH  13  16
ENDBRANCH   7  14
BRANCH   6  21
ATOM     21  N   UNL     1      22.952  21.432   3.143  0.00  0.00    +0.000 N 
ATOM     22  H   UNL     1      23.470  20.810   3.783  0.00  0.00    +0.000 HD
BRANCH  21  25
ATOM     23 BR   UNL     1      17.126  19.679   2.727  0.00  0.00    +0.000 Br
ATOM     24  F   UNL     1      22.047  19.071   4.244  0.00  0.00    +0.000 F 
ATOM     25  C   UNL     1      21.589  21.077   3.063  0.00  0.00    +0.000 A 
ATOM     26  C   UNL     1      21.161  19.855   3.609  0.00  0.00    +0.000 A 
ATOM     27  C   UNL     1      20.638  21.850   2.394  0.00  0.00    +0.000 A 
ATOM     28  C   UNL     1      19.840  19.429   3.519  0.00  0.00    +0.000 A 
ATOM     29  C   UNL     1      19.309  21.441   2.294  0.00  0.00    +0.000 A 
ATOM     30  C   UNL     1      18.920  20.232   2.859  0.00  0.00    +0.000 A 
ENDBRANCH  21  25
ENDBRANCH   6  21
TORSDOF 6
ENDMDL
MODEL 4
REMARK VINA RESULT:      -6.1      4.551      7.278
REMARK  Name = 10288191_Binimetinib.pdbqt.pdb
REMARK  6 active torsions:
REMARK  status: ('A' for Active; 'I' for Inactive)
REMARK    1  A    between atoms: C_6  and  N_21
REMARK    2  A    between atoms: C_7  and  C_14
REMARK    3  A    between atoms: N_13  and  O_16
REMARK    4  A    between atoms: O_16  and  C_17
REMARK    5  A    between atoms: C_18  and  O_19
REMARK    6  A    between atoms: N_21  and  C_25
REMARK                            x       y       z     vdW  Elec       q    Type
REMARK                         _______ _______ _______ _____ _____    ______ ____
ROOT
ATOM      1  F   UNL     1      25.715  23.534   1.297  0.00  0.00    +0.000 F 
ATOM      2  N   UNL     1      21.984  21.241   2.417  0.00  0.00    +0.000 N 
ATOM      3  N   UNL     1      23.692  21.409   1.030  0.00  0.00    +0.000 NA
ATOM      4  C   UNL     1      22.695  22.310   2.880  0.00  0.00    +0.000 A 
ATOM      5  C   UNL     1      23.767  22.396   1.996  0.00  0.00    +0.000 A 
ATOM      6  C   UNL     1      24.602  24.331   3.260  0.00  0.00    +0.000 A 
ATOM      7  C   UNL     1      23.482  24.209   4.125  0.00  0.00    +0.000 A 
ATOM      8  C   UNL     1      22.520  23.198   3.942  0.00  0.00    +0.000 A 
ATOM      9  C   UNL     1      24.720  23.414   2.190  0.00  0.00    +0.000 A 
ATOM     10  C   UNL     1      22.600  20.726   1.317  0.00  0.00    +0.000 A 
ATOM     11  C   UNL     1      20.791  20.724   3.002  0.00  0.00    +0.000 C 
ENDROOT
BRANCH   7  14
ATOM     12  O   UNL     1      23.825  24.985   6.326  0.00  0.00    +0.000 OA
ATOM     13  N   UNL     1      22.411  26.229   4.999  0.00  0.00    +0.000 N 
ATOM     14  C   UNL     1      23.260  25.171   5.251  0.00  0.00    +0.000 C 
ATOM     15  H   UNL     1      21.697  26.183   4.282  0.00  0.00    +0.000 HD
BRANCH  13  16
ATOM     16  O   UNL     1      22.017  26.932   6.158  0.00  0.00    +0.000 OA
BRANCH  16  17
ATOM     17  C   UNL     1      20.865  27.530   5.859  0.00  0.00    +0.000 C 
ATOM     18  C   UNL     1      19.535  28.214   5.526  0.00  0.00    +0.000 C 
BRANCH  18  19
ATOM     19  O   UNL     1      18.379  28.806   5.246  0.00  0.00    +0.000 OA
ATOM     20  H   UNL     1      18.107  29.375   5.986  0.00  0.00    +0.000 HD
ENDBRANCH  18  19
ENDBRANCH  16  17
ENDBRANCH  13  16
ENDBRANCH   7  14
BRANCH   6  21
ATOM     21  N   UNL     1      25.582  25.330   3.493  0.00  0.00    +0.000 N 
ATOM     22  H   UNL     1      26.468  24.953   3.863  0.00  0.00    +0.000 HD
BRANCH  21  25
ATOM     23 BR   UNL     1      26.149  30.943   1.177  0.00  0.00    +0.000 Br
ATOM     24  F   UNL     1      25.378  27.592   5.058  0.00  0.00    +0.000 F 
ATOM     25  C   UNL     1      25.758  26.612   2.931  0.00  0.00    +0.000 A 
ATOM     26  C   UNL     1      25.622  27.748   3.746  0.00  0.00    +0.000 A 
ATOM     27  C   UNL     1      25.991  26.823   1.570  0.00  0.00    +0.000 A 
ATOM     28  C   UNL     1      25.737  29.039   3.240  0.00  0.00    +0.000 A 
ATOM     29  C   UNL     1      26.111  28.109   1.044  0.00  0.00    +0.000 A 
ATOM     30  C   UNL     1      25.984  29.207   1.885  0.00  0.00    +0.000 A 
ENDBRANCH  21  25
ENDBRANCH   6  21
TORSDOF 6
ENDMDL
MODEL 5
REMARK VINA RESULT:      -6.1     35.350     37.354
REMARK  Name = 10288191_Binimetinib.pdbqt.pdb
REMARK  6 active torsions:
REMARK  status: ('A' for Active; 'I' for Inactive)
REMARK    1  A    between atoms: C_6  and  N_21
REMARK    2  A    between atoms: C_7  and  C_14
REMARK    3  A    between atoms: N_13  and  O_16
REMARK    4  A    between atoms: O_16  and  C_17
REMARK    5  A    between atoms: C_18  and  O_19
REMARK    6  A    between atoms: N_21  and  C_25
REMARK                            x       y       z     vdW  Elec       q    Type
REMARK                         _______ _______ _______ _____ _____    ______ ____
ROOT
ATOM      1  F   UNL     1      32.509  10.756  35.130  0.00  0.00    +0.000 F 
ATOM      2  N   UNL     1      32.337   6.456  36.515  0.00  0.00    +0.000 N 
ATOM      3  N   UNL     1      31.401   8.453  36.596  0.00  0.00    +0.000 NA
ATOM      4  C   UNL     1      33.112   7.229  35.699  0.00  0.00    +0.000 A 
ATOM      5  C   UNL     1      32.503   8.480  35.761  0.00  0.00    +0.000 A 
ATOM      6  C   UNL     1      34.210   9.341  34.215  0.00  0.00    +0.000 A 
ATOM      7  C   UNL     1      34.800   8.050  34.199  0.00  0.00    +0.000 A 
ATOM      8  C   UNL     1      34.257   6.984  34.940  0.00  0.00    +0.000 A 
ATOM      9  C   UNL     1      33.060   9.537  35.016  0.00  0.00    +0.000 A 
ATOM     10  C   UNL     1      31.328   7.211  37.034  0.00  0.00    +0.000 A 
ATOM     11  C   UNL     1      32.534   5.068  36.773  0.00  0.00    +0.000 C 
ENDROOT
BRANCH   7  14
ATOM     12  O   UNL     1      35.970   7.576  32.205  0.00  0.00    +0.000 OA
ATOM     13  N   UNL     1      37.230   7.758  34.125  0.00  0.00    +0.000 N 
ATOM     14  C   UNL     1      36.046   7.774  33.415  0.00  0.00    +0.000 C 
ATOM     15  H   UNL     1      37.255   7.563  35.118  0.00  0.00    +0.000 HD
BRANCH  13  16
ATOM     16  O   UNL     1      38.319   7.220  33.406  0.00  0.00    +0.000 OA
BRANCH  16  17
ATOM     17  C   UNL     1      39.361   8.009  33.661  0.00  0.00    +0.000 C 
ATOM     18  C   UNL     1      40.563   8.910  33.965  0.00  0.00    +0.000 C 
BRANCH  18  19
ATOM     19  O   UNL     1      41.607   9.685  34.235  0.00  0.00    +0.000 OA
ATOM     20  H   UNL     1      42.049   9.382  35.046  0.00  0.00    +0.000 HD
ENDBRANCH  18  19
ENDBRANCH  16  17
ENDBRANCH  13  16
ENDBRANCH   7  14
BRANCH   6  21
ATOM     21  N   UNL     1      34.750  10.387  33.424  0.00  0.00    +0.000 N 
ATOM     22  H   UNL     1      34.029  11.002  33.016  0.00  0.00    +0.000 HD
BRANCH  21  25
ATOM     23 BR   UNL     1      40.307  12.897  33.352  0.00  0.00    +0.000 Br
ATOM     24  F   UNL     1      36.196  10.686  31.094  0.00  0.00    +0.000 F 
ATOM     25  C   UNL     1      36.016  11.008  33.437  0.00  0.00    +0.000 A 
ATOM     26  C   UNL     1      36.743  11.123  32.240  0.00  0.00    +0.000 A 
ATOM     27  C   UNL     1      36.632  11.457  34.608  0.00  0.00    +0.000 A 
ATOM     28  C   UNL     1      38.015  11.683  32.200  0.00  0.00    +0.000 A 
ATOM     29  C   UNL     1      37.907  12.022  34.588  0.00  0.00    +0.000 A 
ATOM     30  C   UNL     1      38.588  12.132  33.382  0.00  0.00    +0.000 A 
ENDBRANCH  21  25
ENDBRANCH   6  21
TORSDOF 6
ENDMDL
MODEL 6
REMARK VINA RESULT:      -6.0     30.336     32.720
REMARK  Name = 10288191_Binimetinib.pdbqt.pdb
REMARK  6 active torsions:
REMARK  status: ('A' for Active; 'I' for Inactive)
REMARK    1  A    between atoms: C_6  and  N_21
REMARK    2  A    between atoms: C_7  and  C_14
REMARK    3  A    between atoms: N_13  and  O_16
REMARK    4  A    between atoms: O_16  and  C_17
REMARK    5  A    between atoms: C_18  and  O_19
REMARK    6  A    between atoms: N_21  and  C_25
REMARK                            x       y       z     vdW  Elec       q    Type
REMARK                         _______ _______ _______ _____ _____    ______ ____
ROOT
ATOM      1  F   UNL     1      14.731   6.326  25.732  0.00  0.00    +0.000 F 
ATOM      2  N   UNL     1      13.849   9.214  29.095  0.00  0.00    +0.000 N 
ATOM      3  N   UNL     1      14.423   8.977  26.978  0.00  0.00    +0.000 NA
ATOM      4  C   UNL     1      13.857   7.864  28.893  0.00  0.00    +0.000 A 
ATOM      5  C   UNL     1      14.217   7.737  27.554  0.00  0.00    +0.000 A 
ATOM      6  C   UNL     1      14.061   5.295  27.786  0.00  0.00    +0.000 A 
ATOM      7  C   UNL     1      13.713   5.479  29.150  0.00  0.00    +0.000 A 
ATOM      8  C   UNL     1      13.608   6.763  29.715  0.00  0.00    +0.000 A 
ATOM      9  C   UNL     1      14.320   6.445  27.004  0.00  0.00    +0.000 A 
ATOM     10  C   UNL     1      14.189   9.850  27.940  0.00  0.00    +0.000 A 
ATOM     11  C   UNL     1      13.516   9.866  30.319  0.00  0.00    +0.000 C 
ENDROOT
BRANCH   7  14
ATOM     12  O   UNL     1      12.817   3.353  29.648  0.00  0.00    +0.000 OA
ATOM     13  N   UNL     1      14.013   4.391  31.322  0.00  0.00    +0.000 N 
ATOM     14  C   UNL     1      13.471   4.310  30.055  0.00  0.00    +0.000 C 
ATOM     15  H   UNL     1      14.221   5.280  31.759  0.00  0.00    +0.000 HD
BRANCH  13  16
ATOM     16  O   UNL     1      13.523   3.412  32.215  0.00  0.00    +0.000 OA
BRANCH  16  17
ATOM     17  C   UNL     1      14.592   2.802  32.722  0.00  0.00    +0.000 C 
ATOM     18  C   UNL     1      15.826   2.095  33.294  0.00  0.00    +0.000 C 
BRANCH  18  19
ATOM     19  O   UNL     1      16.897   1.480  33.782  0.00  0.00    +0.000 OA
ATOM     20  H   UNL     1      17.693   2.013  33.619  0.00  0.00    +0.000 HD
ENDBRANCH  18  19
ENDBRANCH  16  17
ENDBRANCH  13  16
ENDBRANCH   7  14
BRANCH   6  21
ATOM     21  N   UNL     1      14.116   3.992  27.228  0.00  0.00    +0.000 N 
ATOM     22  H   UNL     1      13.201   3.655  26.890  0.00  0.00    +0.000 HD
BRANCH  21  25
ATOM     23 BR   UNL     1      18.870   0.994  24.863  0.00  0.00    +0.000 Br
ATOM     24  F   UNL     1      16.179   3.042  28.793  0.00  0.00    +0.000 F 
ATOM     25  C   UNL     1      15.181   3.267  26.653  0.00  0.00    +0.000 A 
ATOM     26  C   UNL     1      16.232   2.819  27.470  0.00  0.00    +0.000 A 
ATOM     27  C   UNL     1      15.288   3.031  25.281  0.00  0.00    +0.000 A 
ATOM     28  C   UNL     1      17.332   2.141  26.953  0.00  0.00    +0.000 A 
ATOM     29  C   UNL     1      16.382   2.353  24.743  0.00  0.00    +0.000 A 
ATOM     30  C   UNL     1      17.395   1.912  25.585  0.00  0.00    +0.000 A 
ENDBRANCH  21  25
ENDBRANCH   6  21
TORSDOF 6
ENDMDL
MODEL 7
REMARK VINA RESULT:      -6.0     19.473     23.000
REMARK  Name = 10288191_Binimetinib.pdbqt.pdb
REMARK  6 active torsions:
REMARK  status: ('A' for Active; 'I' for Inactive)
REMARK    1  A    between atoms: C_6  and  N_21
REMARK    2  A    between atoms: C_7  and  C_14
REMARK    3  A    between atoms: N_13  and  O_16
REMARK    4  A    between atoms: O_16  and  C_17
REMARK    5  A    between atoms: C_18  and  O_19
REMARK    6  A    between atoms: N_21  and  C_25
REMARK                            x       y       z     vdW  Elec       q    Type
REMARK                         _______ _______ _______ _____ _____    ______ ____
ROOT
ATOM      1  F   UNL     1      14.991   1.875   4.138  0.00  0.00    +0.000 F 
ATOM      2  N   UNL     1      17.286   5.348   5.901  0.00  0.00    +0.000 N 
ATOM      3  N   UNL     1      16.546   4.375   4.063  0.00  0.00    +0.000 NA
ATOM      4  C   UNL     1      16.601   4.254   6.345  0.00  0.00    +0.000 A 
ATOM      5  C   UNL     1      16.140   3.659   5.174  0.00  0.00    +0.000 A 
ATOM      6  C   UNL     1      15.073   1.909   6.530  0.00  0.00    +0.000 A 
ATOM      7  C   UNL     1      15.580   2.546   7.693  0.00  0.00    +0.000 A 
ATOM      8  C   UNL     1      16.347   3.723   7.612  0.00  0.00    +0.000 A 
ATOM      9  C   UNL     1      15.376   2.481   5.272  0.00  0.00    +0.000 A 
ATOM     10  C   UNL     1      17.237   5.394   4.541  0.00  0.00    +0.000 A 
ATOM     11  C   UNL     1      17.938   6.309   6.727  0.00  0.00    +0.000 C 
ENDROOT
BRANCH   7  14
ATOM     12  O   UNL     1      14.204   1.952   9.516  0.00  0.00    +0.000 OA
ATOM     13  N   UNL     1      16.455   1.505   9.729  0.00  0.00    +0.000 N 
ATOM     14  C   UNL     1      15.344   1.976   9.059  0.00  0.00    +0.000 C 
ATOM     15  H   UNL     1      17.386   1.843   9.523  0.00  0.00    +0.000 HD
BRANCH  13  16
ATOM     16  O   UNL     1      16.226   1.247  11.099  0.00  0.00    +0.000 OA
BRANCH  16  17
ATOM     17  C   UNL     1      16.494  -0.043  11.285  0.00  0.00    +0.000 C 
ATOM     18  C   UNL     1      16.791  -1.531  11.505  0.00  0.00    +0.000 C 
BRANCH  18  19
ATOM     19  O   UNL     1      17.040  -2.821  11.698  0.00  0.00    +0.000 OA
ATOM     20  H   UNL     1      17.545  -2.946  12.520  0.00  0.00    +0.000 HD
ENDBRANCH  18  19
ENDBRANCH  16  17
ENDBRANCH  13  16
ENDBRANCH   7  14
BRANCH   6  21
ATOM     21  N   UNL     1      14.264   0.749   6.642  0.00  0.00    +0.000 N 
ATOM     22  H   UNL     1      13.259   0.939   6.507  0.00  0.00    +0.000 HD
BRANCH  21  25
ATOM     23 BR   UNL     1      15.707  -5.146   6.038  0.00  0.00    +0.000 Br
ATOM     24  F   UNL     1      14.336  -0.973   8.795  0.00  0.00    +0.000 F 
ATOM     25  C   UNL     1      14.563  -0.618   6.461  0.00  0.00    +0.000 A 
ATOM     26  C   UNL     1      14.620  -1.467   7.579  0.00  0.00    +0.000 A 
ATOM     27  C   UNL     1      14.885  -1.169   5.219  0.00  0.00    +0.000 A 
ATOM     28  C   UNL     1      14.955  -2.812   7.468  0.00  0.00    +0.000 A 
ATOM     29  C   UNL     1      15.223  -2.516   5.087  0.00  0.00    +0.000 A 
ATOM     30  C   UNL     1      15.254  -3.327   6.214  0.00  0.00    +0.000 A 
ENDBRANCH  21  25
ENDBRANCH   6  21
TORSDOF 6
ENDMDL
MODEL 8
REMARK VINA RESULT:      -5.8     34.766     36.346
REMARK  Name = 10288191_Binimetinib.pdbqt.pdb
REMARK  6 active torsions:
REMARK  status: ('A' for Active; 'I' for Inactive)
REMARK    1  A    between atoms: C_6  and  N_21
REMARK    2  A    between atoms: C_7  and  C_14
REMARK    3  A    between atoms: N_13  and  O_16
REMARK    4  A    between atoms: O_16  and  C_17
REMARK    5  A    between atoms: C_18  and  O_19
REMARK    6  A    between atoms: N_21  and  C_25
REMARK                            x       y       z     vdW  Elec       q    Type
REMARK                         _______ _______ _______ _____ _____    ______ ____
ROOT
ATOM      1  F   UNL     1      29.870  -2.085  28.771  0.00  0.00    +0.000 F 
ATOM      2  N   UNL     1      29.331  -3.800  24.623  0.00  0.00    +0.000 N 
ATOM      3  N   UNL     1      30.641  -2.662  25.987  0.00  0.00    +0.000 NA
ATOM      4  C   UNL     1      28.649  -3.769  25.805  0.00  0.00    +0.000 A 
ATOM      5  C   UNL     1      29.492  -3.053  26.650  0.00  0.00    +0.000 A 
ATOM      6  C   UNL     1      27.849  -3.329  28.457  0.00  0.00    +0.000 A 
ATOM      7  C   UNL     1      27.020  -4.041  27.551  0.00  0.00    +0.000 A 
ATOM      8  C   UNL     1      27.412  -4.267  26.219  0.00  0.00    +0.000 A 
ATOM      9  C   UNL     1      29.085  -2.832  27.980  0.00  0.00    +0.000 A 
ATOM     10  C   UNL     1      30.511  -3.134  24.762  0.00  0.00    +0.000 A 
ATOM     11  C   UNL     1      28.893  -4.445  23.430  0.00  0.00    +0.000 C 
ENDROOT
BRANCH   7  14
ATOM     12  O   UNL     1      25.604  -5.489  28.762  0.00  0.00    +0.000 OA
ATOM     13  N   UNL     1      24.578  -3.932  27.409  0.00  0.00    +0.000 N 
ATOM     14  C   UNL     1      25.676  -4.557  27.966  0.00  0.00    +0.000 C 
ATOM     15  H   UNL     1      24.633  -3.442  26.525  0.00  0.00    +0.000 HD
BRANCH  13  16
ATOM     16  O   UNL     1      23.366  -4.628  27.607  0.00  0.00    +0.000 OA
BRANCH  16  17
ATOM     17  C   UNL     1      22.777  -4.697  26.415  0.00  0.00    +0.000 C 
ATOM     18  C   UNL     1      22.095  -4.788  25.045  0.00  0.00    +0.000 C 
BRANCH  18  19
ATOM     19  O   UNL     1      21.500  -4.875  23.860  0.00  0.00    +0.000 OA
ATOM     20  H   UNL     1      21.373  -3.988  23.484  0.00  0.00    +0.000 HD
ENDBRANCH  18  19
ENDBRANCH  16  17
ENDBRANCH  13  16
ENDBRANCH   7  14
BRANCH   6  21
ATOM     21  N   UNL     1      27.451  -3.154  29.808  0.00  0.00    +0.000 N 
ATOM     22  H   UNL     1      28.171  -3.449  30.485  0.00  0.00    +0.000 HD
BRANCH  21  25
ATOM     23 BR   UNL     1      23.550   0.739  32.417  0.00  0.00    +0.000 Br
ATOM     24  F   UNL     1      27.541  -0.440  29.325  0.00  0.00    +0.000 F 
ATOM     25  C   UNL     1      26.508  -2.287  30.397  0.00  0.00    +0.000 A 
ATOM     26  C   UNL     1      26.594  -0.905  30.156  0.00  0.00    +0.000 A 
ATOM     27  C   UNL     1      25.521  -2.723  31.284  0.00  0.00    +0.000 A 
ATOM     28  C   UNL     1      25.722   0.003  30.746  0.00  0.00    +0.000 A 
ATOM     29  C   UNL     1      24.636  -1.828  31.885  0.00  0.00    +0.000 A 
ATOM     30  C   UNL     1      24.744  -0.471  31.609  0.00  0.00    +0.000 A 
ENDBRANCH  21  25
ENDBRANCH   6  21
TORSDOF 6
ENDMDL
MODEL 9
REMARK VINA RESULT:      -5.7     30.535     32.352
REMARK  Name = 10288191_Binimetinib.pdbqt.pdb
REMARK  6 active torsions:
REMARK  status: ('A' for Active; 'I' for Inactive)
REMARK    1  A    between atoms: C_6  and  N_21
REMARK    2  A    between atoms: C_7  and  C_14
REMARK    3  A    between atoms: N_13  and  O_16
REMARK    4  A    between atoms: O_16  and  C_17
REMARK    5  A    between atoms: C_18  and  O_19
REMARK    6  A    between atoms: N_21  and  C_25
REMARK                            x       y       z     vdW  Elec       q    Type
REMARK                         _______ _______ _______ _____ _____    ______ ____
ROOT
ATOM      1  F   UNL     1      14.597   6.860  25.584  0.00  0.00    +0.000 F 
ATOM      2  N   UNL     1      13.933   9.071  29.470  0.00  0.00    +0.000 N 
ATOM      3  N   UNL     1      14.314   9.235  27.303  0.00  0.00    +0.000 NA
ATOM      4  C   UNL     1      13.971   7.779  29.031  0.00  0.00    +0.000 A 
ATOM      5  C   UNL     1      14.207   7.905  27.666  0.00  0.00    +0.000 A 
ATOM      6  C   UNL     1      14.160   5.455  27.472  0.00  0.00    +0.000 A 
ATOM      7  C   UNL     1      13.935   5.381  28.872  0.00  0.00    +0.000 A 
ATOM      8  C   UNL     1      13.838   6.541  29.663  0.00  0.00    +0.000 A 
ATOM      9  C   UNL     1      14.304   6.735  26.888  0.00  0.00    +0.000 A 
ATOM     10  C   UNL     1      14.141   9.914  28.421  0.00  0.00    +0.000 A 
ATOM     11  C   UNL     1      13.694   9.483  30.814  0.00  0.00    +0.000 C 
ENDROOT
BRANCH   7  14
ATOM     12  O   UNL     1      12.785   3.410  29.473  0.00  0.00    +0.000 OA
ATOM     13  N   UNL     1      14.917   3.659  30.309  0.00  0.00    +0.000 N 
ATOM     14  C   UNL     1      13.821   4.062  29.574  0.00  0.00    +0.000 C 
ATOM     15  H   UNL     1      15.588   4.322  30.676  0.00  0.00    +0.000 HD
BRANCH  13  16
ATOM     16  O   UNL     1      14.658   2.568  31.167  0.00  0.00    +0.000 OA
BRANCH  16  17
ATOM     17  C   UNL     1      15.387   1.552  30.709  0.00  0.00    +0.000 C 
ATOM     18  C   UNL     1      16.219   0.375  30.190  0.00  0.00    +0.000 C 
BRANCH  18  19
ATOM     19  O   UNL     1      16.935  -0.652  29.744  0.00  0.00    +0.000 OA
ATOM     20  H   UNL     1      16.883  -1.394  30.370  0.00  0.00    +0.000 HD
ENDBRANCH  18  19
ENDBRANCH  16  17
ENDBRANCH  13  16
ENDBRANCH   7  14
BRANCH   6  21
ATOM     21  N   UNL     1      14.208   4.273  26.690  0.00  0.00    +0.000 N 
ATOM     22  H   UNL     1      13.341   4.101  26.159  0.00  0.00    +0.000 HD
BRANCH  21  25
ATOM     23 BR   UNL     1      18.810   0.958  24.449  0.00  0.00    +0.000 Br
ATOM     24  F   UNL     1      13.784   2.039  25.129  0.00  0.00    +0.000 F 
ATOM     25  C   UNL     1      15.296   3.552  26.155  0.00  0.00    +0.000 A 
ATOM     26  C   UNL     1      15.052   2.402  25.386  0.00  0.00    +0.000 A 
ATOM     27  C   UNL     1      16.629   3.880  26.414  0.00  0.00    +0.000 A 
ATOM     28  C   UNL     1      16.084   1.625  24.871  0.00  0.00    +0.000 A 
ATOM     29  C   UNL     1      17.678   3.114  25.906  0.00  0.00    +0.000 A 
ATOM     30  C   UNL     1      17.396   1.992  25.137  0.00  0.00    +0.000 A 
ENDBRANCH  21  25
ENDBRANCH   6  21
TORSDOF 6
ENDMDL
