MODEL 1
REMARK VINA RESULT:      -5.6      0.000      0.000
REMARK  Name = 10281_Thymoquinone.pdbqt.pdb
REMARK  1 active torsions:
REMARK  status: ('A' for Active; 'I' for Inactive)
REMARK    1  A    between atoms: C_3  and  C_10
REMARK                            x       y       z     vdW  Elec       q    Type
REMARK                         _______ _______ _______ _____ _____    ______ ____
ROOT
ATOM      1  O   UNL     1      44.643  -5.941  11.872  0.00  0.00    +0.000 OA
ATOM      2  O   UNL     1      44.908  -8.191   6.992  0.00  0.00    +0.000 OA
ATOM      3  C   UNL     1      43.448  -6.539   9.856  0.00  0.00    +0.000 C 
ATOM      4  C   UNL     1      44.640  -6.437  10.763  0.00  0.00    +0.000 C 
ATOM      5  C   UNL     1      43.762  -7.123   8.727  0.00  0.00    +0.000 C 
ATOM      6  C   UNL     1      46.160  -7.593   9.043  0.00  0.00    +0.000 C 
ATOM      7  C   UNL     1      44.954  -7.704   8.106  0.00  0.00    +0.000 C 
ATOM      8  C   UNL     1      45.840  -7.010  10.166  0.00  0.00    +0.000 C 
ATOM      9  C   UNL     1      47.546  -8.075   8.761  0.00  0.00    +0.000 C 
ENDROOT
BRANCH   3  10
ATOM     10  C   UNL     1      42.180  -6.030  10.262  0.00  0.00    +0.000 C 
ATOM     11  C   UNL     1      41.472  -4.983   9.437  0.00  0.00    +0.000 C 
ATOM     12  C   UNL     1      41.329  -6.789  11.251  0.00  0.00    +0.000 C 
ENDBRANCH   3  10
TORSDOF 1
ENDMDL
MODEL 2
REMARK VINA RESULT:      -5.2     14.691     17.005
REMARK  Name = 10281_Thymoquinone.pdbqt.pdb
REMARK  1 active torsions:
REMARK  status: ('A' for Active; 'I' for Inactive)
REMARK    1  A    between atoms: C_3  and  C_10
REMARK                            x       y       z     vdW  Elec       q    Type
REMARK                         _______ _______ _______ _____ _____    ______ ____
ROOT
ATOM      1  O   UNL     1      25.680  -4.866  12.831  0.00  0.00    +0.000 OA
ATOM      2  O   UNL     1      31.035  -4.400  13.050  0.00  0.00    +0.000 OA
ATOM      3  C   UNL     1      27.564  -3.509  13.510  0.00  0.00    +0.000 C 
ATOM      4  C   UNL     1      26.882  -4.704  12.909  0.00  0.00    +0.000 C 
ATOM      5  C   UNL     1      28.866  -3.627  13.447  0.00  0.00    +0.000 C 
ATOM      6  C   UNL     1      29.130  -5.813  12.341  0.00  0.00    +0.000 C 
ATOM      7  C   UNL     1      29.840  -4.601  12.952  0.00  0.00    +0.000 C 
ATOM      8  C   UNL     1      27.833  -5.689  12.408  0.00  0.00    +0.000 C 
ATOM      9  C   UNL     1      29.788  -7.009  11.733  0.00  0.00    +0.000 C 
ENDROOT
BRANCH   3  10
ATOM     10  C   UNL     1      26.801  -2.437  14.058  0.00  0.00    +0.000 C 
ATOM     11  C   UNL     1      25.859  -1.641  13.187  0.00  0.00    +0.000 C 
ATOM     12  C   UNL     1      26.582  -2.334  15.548  0.00  0.00    +0.000 C 
ENDBRANCH   3  10
TORSDOF 1
ENDMDL
MODEL 3
REMARK VINA RESULT:      -5.0     17.915     20.761
REMARK  Name = 10281_Thymoquinone.pdbqt.pdb
REMARK  1 active torsions:
REMARK  status: ('A' for Active; 'I' for Inactive)
REMARK    1  A    between atoms: C_3  and  C_10
REMARK                            x       y       z     vdW  Elec       q    Type
REMARK                         _______ _______ _______ _____ _____    ______ ____
ROOT
ATOM      1  O   UNL     1      25.127  -4.697  13.879  0.00  0.00    +0.000 OA
ATOM      2  O   UNL     1      23.468   0.304  12.795  0.00  0.00    +0.000 OA
ATOM      3  C   UNL     1      25.718  -2.355  13.760  0.00  0.00    +0.000 C 
ATOM      4  C   UNL     1      24.812  -3.547  13.649  0.00  0.00    +0.000 C 
ATOM      5  C   UNL     1      25.087  -1.251  13.445  0.00  0.00    +0.000 C 
ATOM      6  C   UNL     1      22.831  -2.085  12.908  0.00  0.00    +0.000 C 
ATOM      7  C   UNL     1      23.743  -0.860  13.016  0.00  0.00    +0.000 C 
ATOM      8  C   UNL     1      23.466  -3.182  13.223  0.00  0.00    +0.000 C 
ATOM      9  C   UNL     1      21.393  -2.085  12.502  0.00  0.00    +0.000 C 
ENDROOT
BRANCH   3  10
ATOM     10  C   UNL     1      27.077  -2.510  14.161  0.00  0.00    +0.000 C 
ATOM     11  C   UNL     1      27.422  -2.834  15.594  0.00  0.00    +0.000 C 
ATOM     12  C   UNL     1      28.153  -2.776  13.137  0.00  0.00    +0.000 C 
ENDBRANCH   3  10
TORSDOF 1
ENDMDL
MODEL 4
REMARK VINA RESULT:      -5.0      1.911      2.498
REMARK  Name = 10281_Thymoquinone.pdbqt.pdb
REMARK  1 active torsions:
REMARK  status: ('A' for Active; 'I' for Inactive)
REMARK    1  A    between atoms: C_3  and  C_10
REMARK                            x       y       z     vdW  Elec       q    Type
REMARK                         _______ _______ _______ _____ _____    ______ ____
ROOT
ATOM      1  O   UNL     1      43.428  -4.249  12.930  0.00  0.00    +0.000 OA
ATOM      2  O   UNL     1      46.577  -7.403   9.918  0.00  0.00    +0.000 OA
ATOM      3  C   UNL     1      43.535  -5.913  11.178  0.00  0.00    +0.000 C 
ATOM      4  C   UNL     1      44.086  -4.984  12.221  0.00  0.00    +0.000 C 
ATOM      5  C   UNL     1      44.495  -6.572  10.579  0.00  0.00    +0.000 C 
ATOM      6  C   UNL     1      46.502  -5.702  11.715  0.00  0.00    +0.000 C 
ATOM      7  C   UNL     1      45.956  -6.654  10.647  0.00  0.00    +0.000 C 
ATOM      8  C   UNL     1      45.540  -5.048  12.308  0.00  0.00    +0.000 C 
ATOM      9  C   UNL     1      47.939  -5.508  12.075  0.00  0.00    +0.000 C 
ENDROOT
BRANCH   3  10
ATOM     10  C   UNL     1      42.132  -5.990  10.942  0.00  0.00    +0.000 C 
ATOM     11  C   UNL     1      41.515  -5.304   9.747  0.00  0.00    +0.000 C 
ATOM     12  C   UNL     1      41.302  -7.067  11.597  0.00  0.00    +0.000 C 
ENDBRANCH   3  10
TORSDOF 1
ENDMDL
MODEL 5
REMARK VINA RESULT:      -4.8     34.604     36.928
REMARK  Name = 10281_Thymoquinone.pdbqt.pdb
REMARK  1 active torsions:
REMARK  status: ('A' for Active; 'I' for Inactive)
REMARK    1  A    between atoms: C_3  and  C_10
REMARK                            x       y       z     vdW  Elec       q    Type
REMARK                         _______ _______ _______ _____ _____    ______ ____
ROOT
ATOM      1  O   UNL     1      13.861   5.167  29.196  0.00  0.00    +0.000 OA
ATOM      2  O   UNL     1      15.318   8.293  25.067  0.00  0.00    +0.000 OA
ATOM      3  C   UNL     1      14.752   5.260  26.949  0.00  0.00    +0.000 C 
ATOM      4  C   UNL     1      14.207   5.820  28.231  0.00  0.00    +0.000 C 
ATOM      5  C   UNL     1      15.033   6.215  26.098  0.00  0.00    +0.000 C 
ATOM      6  C   UNL     1      14.406   8.233  27.367  0.00  0.00    +0.000 C 
ATOM      7  C   UNL     1      14.962   7.677  26.053  0.00  0.00    +0.000 C 
ATOM      8  C   UNL     1      14.128   7.275  28.210  0.00  0.00    +0.000 C 
ATOM      9  C   UNL     1      14.189   9.674  27.697  0.00  0.00    +0.000 C 
ENDROOT
BRANCH   3  10
ATOM     10  C   UNL     1      14.901   3.853  26.776  0.00  0.00    +0.000 C 
ATOM     11  C   UNL     1      13.693   2.971  26.579  0.00  0.00    +0.000 C 
ATOM     12  C   UNL     1      16.231   3.267  26.367  0.00  0.00    +0.000 C 
ENDBRANCH   3  10
TORSDOF 1
ENDMDL
MODEL 6
REMARK VINA RESULT:      -4.4     36.700     38.738
REMARK  Name = 10281_Thymoquinone.pdbqt.pdb
REMARK  1 active torsions:
REMARK  status: ('A' for Active; 'I' for Inactive)
REMARK    1  A    between atoms: C_3  and  C_10
REMARK                            x       y       z     vdW  Elec       q    Type
REMARK                         _______ _______ _______ _____ _____    ______ ____
ROOT
ATOM      1  O   UNL     1      13.212   4.770  27.622  0.00  0.00    +0.000 OA
ATOM      2  O   UNL     1      14.273  10.037  27.887  0.00  0.00    +0.000 OA
ATOM      3  C   UNL     1      13.028   6.805  28.917  0.00  0.00    +0.000 C 
ATOM      4  C   UNL     1      13.423   5.961  27.740  0.00  0.00    +0.000 C 
ATOM      5  C   UNL     1      13.394   8.051  28.748  0.00  0.00    +0.000 C 
ATOM      6  C   UNL     1      14.477   7.972  26.537  0.00  0.00    +0.000 C 
ATOM      7  C   UNL     1      14.082   8.847  27.730  0.00  0.00    +0.000 C 
ATOM      8  C   UNL     1      14.109   6.732  26.711  0.00  0.00    +0.000 C 
ATOM      9  C   UNL     1      15.191   8.427  25.305  0.00  0.00    +0.000 C 
ENDROOT
BRANCH   3  10
ATOM     10  C   UNL     1      12.348   6.228  30.029  0.00  0.00    +0.000 C 
ATOM     11  C   UNL     1      13.123   5.586  31.154  0.00  0.00    +0.000 C 
ATOM     12  C   UNL     1      10.916   6.599  30.330  0.00  0.00    +0.000 C 
ENDBRANCH   3  10
TORSDOF 1
ENDMDL
MODEL 7
REMARK VINA RESULT:      -4.4     16.343     17.739
REMARK  Name = 10281_Thymoquinone.pdbqt.pdb
REMARK  1 active torsions:
REMARK  status: ('A' for Active; 'I' for Inactive)
REMARK    1  A    between atoms: C_3  and  C_10
REMARK                            x       y       z     vdW  Elec       q    Type
REMARK                         _______ _______ _______ _____ _____    ______ ____
ROOT
ATOM      1  O   UNL     1      27.361  -7.560  16.215  0.00  0.00    +0.000 OA
ATOM      2  O   UNL     1      30.768  -6.741  20.297  0.00  0.00    +0.000 OA
ATOM      3  C   UNL     1      28.856  -6.012  17.318  0.00  0.00    +0.000 C 
ATOM      4  C   UNL     1      28.140  -7.315  17.114  0.00  0.00    +0.000 C 
ATOM      5  C   UNL     1      29.627  -6.057  18.375  0.00  0.00    +0.000 C 
ATOM      6  C   UNL     1      29.245  -8.350  19.191  0.00  0.00    +0.000 C 
ATOM      7  C   UNL     1      29.983  -7.027  19.413  0.00  0.00    +0.000 C 
ATOM      8  C   UNL     1      28.479  -8.299  18.136  0.00  0.00    +0.000 C 
ATOM      9  C   UNL     1      29.353  -9.575  20.040  0.00  0.00    +0.000 C 
ENDROOT
BRANCH   3  10
ATOM     10  C   UNL     1      28.652  -4.923  16.421  0.00  0.00    +0.000 C 
ATOM     11  C   UNL     1      27.306  -4.245  16.330  0.00  0.00    +0.000 C 
ATOM     12  C   UNL     1      29.826  -4.154  15.867  0.00  0.00    +0.000 C 
ENDBRANCH   3  10
TORSDOF 1
ENDMDL
MODEL 8
REMARK VINA RESULT:      -4.3     30.725     33.548
REMARK  Name = 10281_Thymoquinone.pdbqt.pdb
REMARK  1 active torsions:
REMARK  status: ('A' for Active; 'I' for Inactive)
REMARK    1  A    between atoms: C_3  and  C_10
REMARK                            x       y       z     vdW  Elec       q    Type
REMARK                         _______ _______ _______ _____ _____    ______ ____
ROOT
ATOM      1  O   UNL     1      14.321   2.111  25.141  0.00  0.00    +0.000 OA
ATOM      2  O   UNL     1      19.596   3.013  25.690  0.00  0.00    +0.000 OA
ATOM      3  C   UNL     1      16.041   3.551  26.048  0.00  0.00    +0.000 C 
ATOM      4  C   UNL     1      15.498   2.368  25.298  0.00  0.00    +0.000 C 
ATOM      5  C   UNL     1      17.350   3.552  26.044  0.00  0.00    +0.000 C 
ATOM      6  C   UNL     1      17.862   1.520  24.747  0.00  0.00    +0.000 C 
ATOM      7  C   UNL     1      18.430   2.721  25.509  0.00  0.00    +0.000 C 
ATOM      8  C   UNL     1      16.556   1.525  24.755  0.00  0.00    +0.000 C 
ATOM      9  C   UNL     1      18.652   0.453  24.061  0.00  0.00    +0.000 C 
ENDROOT
BRANCH   3  10
ATOM     10  C   UNL     1      15.159   4.492  26.656  0.00  0.00    +0.000 C 
ATOM     11  C   UNL     1      14.595   4.236  28.032  0.00  0.00    +0.000 C 
ATOM     12  C   UNL     1      15.098   5.916  26.162  0.00  0.00    +0.000 C 
ENDBRANCH   3  10
TORSDOF 1
ENDMDL
MODEL 9
REMARK VINA RESULT:      -4.3      4.226      5.628
REMARK  Name = 10281_Thymoquinone.pdbqt.pdb
REMARK  1 active torsions:
REMARK  status: ('A' for Active; 'I' for Inactive)
REMARK    1  A    between atoms: C_3  and  C_10
REMARK                            x       y       z     vdW  Elec       q    Type
REMARK                         _______ _______ _______ _____ _____    ______ ____
ROOT
ATOM      1  O   UNL     1      42.850  -3.497  12.697  0.00  0.00    +0.000 OA
ATOM      2  O   UNL     1      46.761  -1.067   9.916  0.00  0.00    +0.000 OA
ATOM      3  C   UNL     1      44.648  -3.749  11.098  0.00  0.00    +0.000 C 
ATOM      4  C   UNL     1      43.748  -3.006  12.043  0.00  0.00    +0.000 C 
ATOM      5  C   UNL     1      45.517  -2.943  10.542  0.00  0.00    +0.000 C 
ATOM      6  C   UNL     1      44.929  -0.775  11.554  0.00  0.00    +0.000 C 
ATOM      7  C   UNL     1      45.854  -1.519  10.587  0.00  0.00    +0.000 C 
ATOM      8  C   UNL     1      44.065  -1.584  12.105  0.00  0.00    +0.000 C 
ATOM      9  C   UNL     1      44.967   0.685  11.867  0.00  0.00    +0.000 C 
ENDROOT
BRANCH   3  10
ATOM     10  C   UNL     1      44.491  -5.152  10.898  0.00  0.00    +0.000 C 
ATOM     11  C   UNL     1      43.467  -5.678   9.922  0.00  0.00    +0.000 C 
ATOM     12  C   UNL     1      45.582  -6.111  11.306  0.00  0.00    +0.000 C 
ENDBRANCH   3  10
TORSDOF 1
ENDMDL
