MODEL 1
REMARK VINA RESULT:      -7.8      0.000      0.000
REMARK  Name = 10639_Physcion.pdbqt.pdb
REMARK  3 active torsions:
REMARK  status: ('A' for Active; 'I' for Inactive)
REMARK    1  A    between atoms: C_10  and  O_18
REMARK    2  A    between atoms: C_12  and  O_20
REMARK    3  A    between atoms: C_15  and  O_22
REMARK                            x       y       z     vdW  Elec       q    Type
REMARK                         _______ _______ _______ _____ _____    ______ ____
ROOT
ATOM      1  O   UNL     1      42.746  -7.011   9.362  0.00  0.00    +0.000 OA
ATOM      2  O   UNL     1      47.541  -6.227  11.547  0.00  0.00    +0.000 OA
ATOM      3  C   UNL     1      46.283  -7.183   9.825  0.00  0.00    +0.000 A 
ATOM      4  C   UNL     1      45.026  -7.383   9.261  0.00  0.00    +0.000 A 
ATOM      5  C   UNL     1      43.968  -6.008  11.149  0.00  0.00    +0.000 A 
ATOM      6  C   UNL     1      45.240  -5.824  11.692  0.00  0.00    +0.000 A 
ATOM      7  C   UNL     1      43.826  -6.804   9.902  0.00  0.00    +0.000 C 
ATOM      8  C   UNL     1      46.434  -6.400  11.055  0.00  0.00    +0.000 C 
ATOM      9  C   UNL     1      47.426  -7.724   9.232  0.00  0.00    +0.000 A 
ATOM     10  C   UNL     1      44.927  -8.139   8.084  0.00  0.00    +0.000 A 
ATOM     11  C   UNL     1      47.312  -8.471   8.065  0.00  0.00    +0.000 A 
ATOM     12  C   UNL     1      42.876  -5.431  11.810  0.00  0.00    +0.000 A 
ATOM     13  C   UNL     1      45.424  -5.083  12.865  0.00  0.00    +0.000 A 
ATOM     14  C   UNL     1      46.065  -8.682   7.486  0.00  0.00    +0.000 A 
ATOM     15  C   UNL     1      44.335  -4.512  13.515  0.00  0.00    +0.000 A 
ATOM     16  C   UNL     1      43.061  -4.691  12.980  0.00  0.00    +0.000 A 
ATOM     17  C   UNL     1      48.541  -9.050   7.430  0.00  0.00    +0.000 C 
ENDROOT
BRANCH  10  18
ATOM     18  O   UNL     1      43.737  -8.390   7.455  0.00  0.00    +0.000 OA
ATOM     19  H   UNL     1      43.921  -8.782   6.569  0.00  0.00    +0.000 HD
ENDBRANCH  10  18
BRANCH  12  20
ATOM     20  O   UNL     1      41.603  -5.568  11.338  0.00  0.00    +0.000 OA
ATOM     21  H   UNL     1      41.384  -4.825  10.748  0.00  0.00    +0.000 HD
ENDBRANCH  12  20
BRANCH  15  22
ATOM     22  O   UNL     1      44.620  -3.805  14.656  0.00  0.00    +0.000 OA
ATOM     23  C   UNL     1      45.842  -3.119  14.640  0.00  0.00    +0.000 C 
ENDBRANCH  15  22
TORSDOF 3
ENDMDL
MODEL 2
REMARK VINA RESULT:      -7.7      1.428      5.649
REMARK  Name = 10639_Physcion.pdbqt.pdb
REMARK  3 active torsions:
REMARK  status: ('A' for Active; 'I' for Inactive)
REMARK    1  A    between atoms: C_10  and  O_18
REMARK    2  A    between atoms: C_12  and  O_20
REMARK    3  A    between atoms: C_15  and  O_22
REMARK                            x       y       z     vdW  Elec       q    Type
REMARK                         _______ _______ _______ _____ _____    ______ ____
ROOT
ATOM      1  O   UNL     1      42.675  -4.054  12.709  0.00  0.00    +0.000 OA
ATOM      2  O   UNL     1      47.075  -6.563  11.057  0.00  0.00    +0.000 OA
ATOM      3  C   UNL     1      46.073  -5.152  12.628  0.00  0.00    +0.000 A 
ATOM      4  C   UNL     1      44.918  -4.499  13.052  0.00  0.00    +0.000 A 
ATOM      5  C   UNL     1      43.635  -5.499  11.070  0.00  0.00    +0.000 A 
ATOM      6  C   UNL     1      44.807  -6.140  10.668  0.00  0.00    +0.000 A 
ATOM      7  C   UNL     1      43.660  -4.650  12.289  0.00  0.00    +0.000 C 
ATOM      8  C   UNL     1      46.058  -5.992  11.426  0.00  0.00    +0.000 C 
ATOM      9  C   UNL     1      47.269  -5.020  13.337  0.00  0.00    +0.000 A 
ATOM     10  C   UNL     1      44.977  -3.706  14.207  0.00  0.00    +0.000 A 
ATOM     11  C   UNL     1      47.312  -4.230  14.480  0.00  0.00    +0.000 A 
ATOM     12  C   UNL     1      42.480  -5.686  10.300  0.00  0.00    +0.000 A 
ATOM     13  C   UNL     1      44.831  -6.950   9.527  0.00  0.00    +0.000 A 
ATOM     14  C   UNL     1      46.169  -3.571  14.920  0.00  0.00    +0.000 A 
ATOM     15  C   UNL     1      43.680  -7.131   8.767  0.00  0.00    +0.000 A 
ATOM     16  C   UNL     1      42.506  -6.494   9.161  0.00  0.00    +0.000 A 
ATOM     17  C   UNL     1      48.597  -4.091  15.239  0.00  0.00    +0.000 C 
ENDROOT
BRANCH  10  18
ATOM     18  O   UNL     1      43.897  -3.027  14.702  0.00  0.00    +0.000 OA
ATOM     19  H   UNL     1      44.198  -2.150  15.038  0.00  0.00    +0.000 HD
ENDBRANCH  10  18
BRANCH  12  20
ATOM     20  O   UNL     1      41.297  -5.091  10.630  0.00  0.00    +0.000 OA
ATOM     21  H   UNL     1      40.552  -5.644  10.334  0.00  0.00    +0.000 HD
ENDBRANCH  12  20
BRANCH  15  22
ATOM     22  O   UNL     1      43.808  -7.943   7.667  0.00  0.00    +0.000 OA
ATOM     23  C   UNL     1      45.116  -8.365   7.390  0.00  0.00    +0.000 C 
ENDBRANCH  15  22
TORSDOF 3
ENDMDL
MODEL 3
REMARK VINA RESULT:      -7.6      1.193      5.813
REMARK  Name = 10639_Physcion.pdbqt.pdb
REMARK  3 active torsions:
REMARK  status: ('A' for Active; 'I' for Inactive)
REMARK    1  A    between atoms: C_10  and  O_18
REMARK    2  A    between atoms: C_12  and  O_20
REMARK    3  A    between atoms: C_15  and  O_22
REMARK                            x       y       z     vdW  Elec       q    Type
REMARK                         _______ _______ _______ _____ _____    ______ ____
ROOT
ATOM      1  O   UNL     1      42.703  -7.024   9.280  0.00  0.00    +0.000 OA
ATOM      2  O   UNL     1      47.513  -6.295  11.450  0.00  0.00    +0.000 OA
ATOM      3  C   UNL     1      45.210  -5.914  11.568  0.00  0.00    +0.000 A 
ATOM      4  C   UNL     1      43.957  -6.109  10.994  0.00  0.00    +0.000 A 
ATOM      5  C   UNL     1      45.044  -7.450   9.097  0.00  0.00    +0.000 A 
ATOM      6  C   UNL     1      46.287  -7.238   9.695  0.00  0.00    +0.000 A 
ATOM      7  C   UNL     1      43.830  -6.883   9.740  0.00  0.00    +0.000 C 
ATOM      8  C   UNL     1      46.415  -6.469  10.941  0.00  0.00    +0.000 C 
ATOM      9  C   UNL     1      45.348  -5.185  12.752  0.00  0.00    +0.000 A 
ATOM     10  C   UNL     1      42.832  -5.560  11.626  0.00  0.00    +0.000 A 
ATOM     11  C   UNL     1      44.223  -4.648  13.367  0.00  0.00    +0.000 A 
ATOM     12  C   UNL     1      44.997  -8.192   7.910  0.00  0.00    +0.000 A 
ATOM     13  C   UNL     1      47.457  -7.752   9.126  0.00  0.00    +0.000 A 
ATOM     14  C   UNL     1      42.963  -4.832  12.809  0.00  0.00    +0.000 A 
ATOM     15  C   UNL     1      47.404  -8.489   7.947  0.00  0.00    +0.000 A 
ATOM     16  C   UNL     1      46.167  -8.705   7.344  0.00  0.00    +0.000 A 
ATOM     17  C   UNL     1      44.374  -3.866  14.638  0.00  0.00    +0.000 C 
ENDROOT
BRANCH  10  18
ATOM     18  O   UNL     1      41.560  -5.698  11.139  0.00  0.00    +0.000 OA
ATOM     19  H   UNL     1      41.073  -6.348  11.699  0.00  0.00    +0.000 HD
ENDBRANCH  10  18
BRANCH  12  20
ATOM     20  O   UNL     1      43.819  -8.440   7.268  0.00  0.00    +0.000 OA
ATOM     21  H   UNL     1      43.991  -8.844   6.399  0.00  0.00    +0.000 HD
ENDBRANCH  12  20
BRANCH  15  22
ATOM     22  O   UNL     1      48.606  -8.949   7.471  0.00  0.00    +0.000 OA
ATOM     23  C   UNL     1      48.548  -9.577   6.219  0.00  0.00    +0.000 C 
ENDBRANCH  15  22
TORSDOF 3
ENDMDL
MODEL 4
REMARK VINA RESULT:      -7.3      3.093      4.459
REMARK  Name = 10639_Physcion.pdbqt.pdb
REMARK  3 active torsions:
REMARK  status: ('A' for Active; 'I' for Inactive)
REMARK    1  A    between atoms: C_10  and  O_18
REMARK    2  A    between atoms: C_12  and  O_20
REMARK    3  A    between atoms: C_15  and  O_22
REMARK                            x       y       z     vdW  Elec       q    Type
REMARK                         _______ _______ _______ _____ _____    ______ ____
ROOT
ATOM      1  O   UNL     1      42.244  -4.469  13.618  0.00  0.00    +0.000 OA
ATOM      2  O   UNL     1      45.854  -2.297  10.357  0.00  0.00    +0.000 OA
ATOM      3  C   UNL     1      44.737  -4.222  11.073  0.00  0.00    +0.000 A 
ATOM      4  C   UNL     1      43.792  -4.781  11.929  0.00  0.00    +0.000 A 
ATOM      5  C   UNL     1      43.346  -2.465  12.936  0.00  0.00    +0.000 A 
ATOM      6  C   UNL     1      44.298  -1.932  12.067  0.00  0.00    +0.000 A 
ATOM      7  C   UNL     1      43.065  -3.924  12.889  0.00  0.00    +0.000 C 
ATOM      8  C   UNL     1      45.023  -2.783  11.111  0.00  0.00    +0.000 C 
ATOM      9  C   UNL     1      45.434  -5.017  10.160  0.00  0.00    +0.000 A 
ATOM     10  C   UNL     1      43.551  -6.160  11.859  0.00  0.00    +0.000 A 
ATOM     11  C   UNL     1      45.183  -6.383  10.102  0.00  0.00    +0.000 A 
ATOM     12  C   UNL     1      42.695  -1.595  13.820  0.00  0.00    +0.000 A 
ATOM     13  C   UNL     1      44.597  -0.565  12.074  0.00  0.00    +0.000 A 
ATOM     14  C   UNL     1      44.243  -6.961  10.949  0.00  0.00    +0.000 A 
ATOM     15  C   UNL     1      43.946   0.294  12.954  0.00  0.00    +0.000 A 
ATOM     16  C   UNL     1      42.994  -0.231  13.826  0.00  0.00    +0.000 A 
ATOM     17  C   UNL     1      45.932  -7.235   9.121  0.00  0.00    +0.000 C 
ENDROOT
BRANCH  10  18
ATOM     18  O   UNL     1      42.643  -6.801  12.658  0.00  0.00    +0.000 OA
ATOM     19  H   UNL     1      41.971  -6.147  12.964  0.00  0.00    +0.000 HD
ENDBRANCH  10  18
BRANCH  12  20
ATOM     20  O   UNL     1      41.752  -2.043  14.699  0.00  0.00    +0.000 OA
ATOM     21  H   UNL     1      40.871  -1.727  14.432  0.00  0.00    +0.000 HD
ENDBRANCH  12  20
BRANCH  15  22
ATOM     22  O   UNL     1      44.310   1.615  12.883  0.00  0.00    +0.000 OA
ATOM     23  C   UNL     1      45.467   1.873  12.134  0.00  0.00    +0.000 C 
ENDBRANCH  15  22
TORSDOF 3
ENDMDL
MODEL 5
REMARK VINA RESULT:      -7.2      3.834      6.151
REMARK  Name = 10639_Physcion.pdbqt.pdb
REMARK  3 active torsions:
REMARK  status: ('A' for Active; 'I' for Inactive)
REMARK    1  A    between atoms: C_10  and  O_18
REMARK    2  A    between atoms: C_12  and  O_20
REMARK    3  A    between atoms: C_15  and  O_22
REMARK                            x       y       z     vdW  Elec       q    Type
REMARK                         _______ _______ _______ _____ _____    ______ ____
ROOT
ATOM      1  O   UNL     1      43.920  -0.845  13.904  0.00  0.00    +0.000 OA
ATOM      2  O   UNL     1      45.481  -4.341  10.200  0.00  0.00    +0.000 OA
ATOM      3  C   UNL     1      45.596  -2.163  11.039  0.00  0.00    +0.000 A 
ATOM      4  C   UNL     1      45.183  -1.255  12.011  0.00  0.00    +0.000 A 
ATOM      5  C   UNL     1      43.756  -3.086  13.101  0.00  0.00    +0.000 A 
ATOM      6  C   UNL     1      44.187  -3.973  12.114  0.00  0.00    +0.000 A 
ATOM      7  C   UNL     1      44.249  -1.685  13.075  0.00  0.00    +0.000 C 
ATOM      8  C   UNL     1      45.115  -3.548  11.056  0.00  0.00    +0.000 C 
ATOM      9  C   UNL     1      46.477  -1.774  10.027  0.00  0.00    +0.000 A 
ATOM     10  C   UNL     1      45.668   0.059  11.957  0.00  0.00    +0.000 A 
ATOM     11  C   UNL     1      46.949  -0.467   9.987  0.00  0.00    +0.000 A 
ATOM     12  C   UNL     1      42.871  -3.561  14.078  0.00  0.00    +0.000 A 
ATOM     13  C   UNL     1      43.749  -5.302  12.098  0.00  0.00    +0.000 A 
ATOM     14  C   UNL     1      46.548   0.454  10.949  0.00  0.00    +0.000 A 
ATOM     15  C   UNL     1      42.870  -5.767  13.071  0.00  0.00    +0.000 A 
ATOM     16  C   UNL     1      42.435  -4.887  14.060  0.00  0.00    +0.000 A 
ATOM     17  C   UNL     1      47.895  -0.052   8.900  0.00  0.00    +0.000 C 
ENDROOT
BRANCH  10  18
ATOM     18  O   UNL     1      45.320   1.021  12.866  0.00  0.00    +0.000 OA
ATOM     19  H   UNL     1      44.354   0.948  13.054  0.00  0.00    +0.000 HD
ENDBRANCH  10  18
BRANCH  12  20
ATOM     20  O   UNL     1      42.407  -2.752  15.074  0.00  0.00    +0.000 OA
ATOM     21  H   UNL     1      43.029  -2.019  15.225  0.00  0.00    +0.000 HD
ENDBRANCH  12  20
BRANCH  15  22
ATOM     22  O   UNL     1      42.501  -7.085  12.968  0.00  0.00    +0.000 OA
ATOM     23  C   UNL     1      41.457  -7.340  12.068  0.00  0.00    +0.000 C 
ENDBRANCH  15  22
TORSDOF 3
ENDMDL
MODEL 6
REMARK VINA RESULT:      -7.1      2.839      6.691
REMARK  Name = 10639_Physcion.pdbqt.pdb
REMARK  3 active torsions:
REMARK  status: ('A' for Active; 'I' for Inactive)
REMARK    1  A    between atoms: C_10  and  O_18
REMARK    2  A    between atoms: C_12  and  O_20
REMARK    3  A    between atoms: C_15  and  O_22
REMARK                            x       y       z     vdW  Elec       q    Type
REMARK                         _______ _______ _______ _____ _____    ______ ____
ROOT
ATOM      1  O   UNL     1      42.122  -3.765  13.959  0.00  0.00    +0.000 OA
ATOM      2  O   UNL     1      45.857  -2.727  10.304  0.00  0.00    +0.000 OA
ATOM      3  C   UNL     1      44.487  -1.922  12.018  0.00  0.00    +0.000 A 
ATOM      4  C   UNL     1      43.510  -2.202  12.971  0.00  0.00    +0.000 A 
ATOM      5  C   UNL     1      43.491  -4.653  12.218  0.00  0.00    +0.000 A 
ATOM      6  C   UNL     1      44.469  -4.344  11.272  0.00  0.00    +0.000 A 
ATOM      7  C   UNL     1      42.979  -3.576  13.103  0.00  0.00    +0.000 C 
ATOM      8  C   UNL     1      44.999  -2.978  11.139  0.00  0.00    +0.000 C 
ATOM      9  C   UNL     1      45.000  -0.630  11.879  0.00  0.00    +0.000 A 
ATOM     10  C   UNL     1      43.050  -1.162  13.790  0.00  0.00    +0.000 A 
ATOM     11  C   UNL     1      44.532   0.391  12.699  0.00  0.00    +0.000 A 
ATOM     12  C   UNL     1      43.033  -5.975  12.288  0.00  0.00    +0.000 A 
ATOM     13  C   UNL     1      44.982  -5.325  10.417  0.00  0.00    +0.000 A 
ATOM     14  C   UNL     1      43.558   0.131  13.657  0.00  0.00    +0.000 A 
ATOM     15  C   UNL     1      44.522  -6.636  10.492  0.00  0.00    +0.000 A 
ATOM     16  C   UNL     1      43.545  -6.954  11.434  0.00  0.00    +0.000 A 
ATOM     17  C   UNL     1      45.085   1.776  12.548  0.00  0.00    +0.000 C 
ENDROOT
BRANCH  10  18
ATOM     18  O   UNL     1      42.093  -1.338  14.753  0.00  0.00    +0.000 OA
ATOM     19  H   UNL     1      41.644  -0.476  14.918  0.00  0.00    +0.000 HD
ENDBRANCH  10  18
BRANCH  12  20
ATOM     20  O   UNL     1      42.078  -6.353  13.187  0.00  0.00    +0.000 OA
ATOM     21  H   UNL     1      42.435  -6.304  14.092  0.00  0.00    +0.000 HD
ENDBRANCH  12  20
BRANCH  15  22
ATOM     22  O   UNL     1      45.088  -7.522   9.610  0.00  0.00    +0.000 OA
ATOM     23  C   UNL     1      44.559  -7.487   8.312  0.00  0.00    +0.000 C 
ENDBRANCH  15  22
TORSDOF 3
ENDMDL
MODEL 7
REMARK VINA RESULT:      -7.0     16.784     19.846
REMARK  Name = 10639_Physcion.pdbqt.pdb
REMARK  3 active torsions:
REMARK  status: ('A' for Active; 'I' for Inactive)
REMARK    1  A    between atoms: C_10  and  O_18
REMARK    2  A    between atoms: C_12  and  O_20
REMARK    3  A    between atoms: C_15  and  O_22
REMARK                            x       y       z     vdW  Elec       q    Type
REMARK                         _______ _______ _______ _____ _____    ______ ____
ROOT
ATOM      1  O   UNL     1      28.418  -2.244  13.174  0.00  0.00    +0.000 OA
ATOM      2  O   UNL     1      25.033  -4.386  16.687  0.00  0.00    +0.000 OA
ATOM      3  C   UNL     1      27.239  -4.161  15.948  0.00  0.00    +0.000 A 
ATOM      4  C   UNL     1      28.116  -3.597  15.025  0.00  0.00    +0.000 A 
ATOM      5  C   UNL     1      26.144  -2.431  13.874  0.00  0.00    +0.000 A 
ATOM      6  C   UNL     1      25.288  -3.009  14.812  0.00  0.00    +0.000 A 
ATOM      7  C   UNL     1      27.600  -2.714  13.957  0.00  0.00    +0.000 C 
ATOM      8  C   UNL     1      25.799  -3.888  15.874  0.00  0.00    +0.000 C 
ATOM      9  C   UNL     1      27.709  -4.998  16.962  0.00  0.00    +0.000 A 
ATOM     10  C   UNL     1      29.484  -3.885  15.133  0.00  0.00    +0.000 A 
ATOM     11  C   UNL     1      29.069  -5.274  17.055  0.00  0.00    +0.000 A 
ATOM     12  C   UNL     1      25.587  -1.604  12.890  0.00  0.00    +0.000 A 
ATOM     13  C   UNL     1      23.910  -2.772  14.773  0.00  0.00    +0.000 A 
ATOM     14  C   UNL     1      29.961  -4.720  16.144  0.00  0.00    +0.000 A 
ATOM     15  C   UNL     1      23.363  -1.950  13.793  0.00  0.00    +0.000 A 
ATOM     16  C   UNL     1      24.211  -1.368  12.853  0.00  0.00    +0.000 A 
ATOM     17  C   UNL     1      29.571  -6.172  18.145  0.00  0.00    +0.000 C 
ENDROOT
BRANCH  10  18
ATOM     18  O   UNL     1      30.423  -3.379  14.274  0.00  0.00    +0.000 OA
ATOM     19  H   UNL     1      30.065  -2.560  13.857  0.00  0.00    +0.000 HD
ENDBRANCH  10  18
BRANCH  12  20
ATOM     20  O   UNL     1      26.361  -1.003  11.940  0.00  0.00    +0.000 OA
ATOM     21  H   UNL     1      26.932  -1.664  11.509  0.00  0.00    +0.000 HD
ENDBRANCH  12  20
BRANCH  15  22
ATOM     22  O   UNL     1      22.002  -1.781  13.842  0.00  0.00    +0.000 OA
ATOM     23  C   UNL     1      21.278  -2.512  12.889  0.00  0.00    +0.000 C 
ENDBRANCH  15  22
TORSDOF 3
ENDMDL
MODEL 8
REMARK VINA RESULT:      -7.0      3.662      5.414
REMARK  Name = 10639_Physcion.pdbqt.pdb
REMARK  3 active torsions:
REMARK  status: ('A' for Active; 'I' for Inactive)
REMARK    1  A    between atoms: C_10  and  O_18
REMARK    2  A    between atoms: C_12  and  O_20
REMARK    3  A    between atoms: C_15  and  O_22
REMARK                            x       y       z     vdW  Elec       q    Type
REMARK                         _______ _______ _______ _____ _____    ______ ____
ROOT
ATOM      1  O   UNL     1      46.721  -2.803   9.624  0.00  0.00    +0.000 OA
ATOM      2  O   UNL     1      42.708  -2.676  13.126  0.00  0.00    +0.000 OA
ATOM      3  C   UNL     1      44.002  -3.937  11.643  0.00  0.00    +0.000 A 
ATOM      4  C   UNL     1      45.052  -3.961  10.729  0.00  0.00    +0.000 A 
ATOM      5  C   UNL     1      45.439  -1.457  11.121  0.00  0.00    +0.000 A 
ATOM      6  C   UNL     1      44.383  -1.462  12.032  0.00  0.00    +0.000 A 
ATOM      7  C   UNL     1      45.806  -2.724  10.436  0.00  0.00    +0.000 C 
ATOM      8  C   UNL     1      43.631  -2.692  12.324  0.00  0.00    +0.000 C 
ATOM      9  C   UNL     1      43.279  -5.097  11.931  0.00  0.00    +0.000 A 
ATOM     10  C   UNL     1      45.372  -5.173  10.101  0.00  0.00    +0.000 A 
ATOM     11  C   UNL     1      43.608  -6.291  11.300  0.00  0.00    +0.000 A 
ATOM     12  C   UNL     1      46.110  -0.249  10.892  0.00  0.00    +0.000 A 
ATOM     13  C   UNL     1      44.001  -0.294  12.701  0.00  0.00    +0.000 A 
ATOM     14  C   UNL     1      44.654  -6.336  10.384  0.00  0.00    +0.000 A 
ATOM     15  C   UNL     1      44.671   0.902  12.468  0.00  0.00    +0.000 A 
ATOM     16  C   UNL     1      45.728   0.917  11.560  0.00  0.00    +0.000 A 
ATOM     17  C   UNL     1      42.830  -7.535  11.611  0.00  0.00    +0.000 C 
ENDROOT
BRANCH  10  18
ATOM     18  O   UNL     1      46.386  -5.297   9.189  0.00  0.00    +0.000 OA
ATOM     19  H   UNL     1      47.061  -5.920   9.546  0.00  0.00    +0.000 HD
ENDBRANCH  10  18
BRANCH  12  20
ATOM     20  O   UNL     1      47.153  -0.166  10.015  0.00  0.00    +0.000 OA
ATOM     21  H   UNL     1      46.965  -0.700   9.223  0.00  0.00    +0.000 HD
ENDBRANCH  12  20
BRANCH  15  22
ATOM     22  O   UNL     1      44.221   1.990  13.173  0.00  0.00    +0.000 OA
ATOM     23  C   UNL     1      43.213   1.715  14.109  0.00  0.00    +0.000 C 
ENDBRANCH  15  22
TORSDOF 3
ENDMDL
MODEL 9
REMARK VINA RESULT:      -6.8      3.734      6.230
REMARK  Name = 10639_Physcion.pdbqt.pdb
REMARK  3 active torsions:
REMARK  status: ('A' for Active; 'I' for Inactive)
REMARK    1  A    between atoms: C_10  and  O_18
REMARK    2  A    between atoms: C_12  and  O_20
REMARK    3  A    between atoms: C_15  and  O_22
REMARK                            x       y       z     vdW  Elec       q    Type
REMARK                         _______ _______ _______ _____ _____    ______ ____
ROOT
ATOM      1  O   UNL     1      43.610  -1.172  13.399  0.00  0.00    +0.000 OA
ATOM      2  O   UNL     1      45.688  -4.732  10.024  0.00  0.00    +0.000 OA
ATOM      3  C   UNL     1      44.229  -4.305  11.800  0.00  0.00    +0.000 A 
ATOM      4  C   UNL     1      43.692  -3.368  12.679  0.00  0.00    +0.000 A 
ATOM      5  C   UNL     1      45.118  -1.538  11.586  0.00  0.00    +0.000 A 
ATOM      6  C   UNL     1      45.640  -2.498  10.719  0.00  0.00    +0.000 A 
ATOM      7  C   UNL     1      44.117  -1.953  12.602  0.00  0.00    +0.000 C 
ATOM      8  C   UNL     1      45.218  -3.905  10.793  0.00  0.00    +0.000 C 
ATOM      9  C   UNL     1      43.839  -5.645  11.858  0.00  0.00    +0.000 A 
ATOM     10  C   UNL     1      42.750  -3.794  13.625  0.00  0.00    +0.000 A 
ATOM     11  C   UNL     1      42.904  -6.051  12.803  0.00  0.00    +0.000 A 
ATOM     12  C   UNL     1      45.565  -0.216  11.457  0.00  0.00    +0.000 A 
ATOM     13  C   UNL     1      46.584  -2.155   9.746  0.00  0.00    +0.000 A 
ATOM     14  C   UNL     1      42.355  -5.131  13.689  0.00  0.00    +0.000 A 
ATOM     15  C   UNL     1      47.024  -0.840   9.624  0.00  0.00    +0.000 A 
ATOM     16  C   UNL     1      46.508   0.125  10.486  0.00  0.00    +0.000 A 
ATOM     17  C   UNL     1      42.487  -7.490  12.863  0.00  0.00    +0.000 C 
ENDROOT
BRANCH  10  18
ATOM     18  O   UNL     1      42.166  -2.948  14.530  0.00  0.00    +0.000 OA
ATOM     19  H   UNL     1      42.000  -3.442  15.367  0.00  0.00    +0.000 HD
ENDBRANCH  10  18
BRANCH  12  20
ATOM     20  O   UNL     1      45.100   0.777  12.269  0.00  0.00    +0.000 OA
ATOM     21  H   UNL     1      44.879   0.415  13.146  0.00  0.00    +0.000 HD
ENDBRANCH  12  20
BRANCH  15  22
ATOM     22  O   UNL     1      47.952  -0.606   8.639  0.00  0.00    +0.000 OA
ATOM     23  C   UNL     1      48.948   0.322   8.971  0.00  0.00    +0.000 C 
ENDBRANCH  15  22
TORSDOF 3
ENDMDL
