MODEL 1
REMARK VINA RESULT:      -7.5      0.000      0.000
REMARK  Name = 10940649_MilnamideD.pdbqt.pdb
REMARK  7 active torsions:
REMARK  status: ('A' for Active; 'I' for Inactive)
REMARK    1  A    between atoms: C_3  and  C_8
REMARK    2  A    between atoms: C_22  and  C_25
REMARK    3  A    between atoms: C_22  and  C_38
REMARK    4  A    between atoms: N_24  and  C_27
REMARK    5  A    between atoms: C_27  and  C_28
REMARK    6  A    between atoms: C_32  and  C_35
REMARK    7  A    between atoms: C_35  and  O_36
REMARK                            x       y       z     vdW  Elec       q    Type
REMARK                         _______ _______ _______ _____ _____    ______ ____
ROOT
ATOM      1  O   UNL     1      45.426  -1.170  14.336  0.00  0.00    +0.000 OA
ATOM      2  N   UNL     1      46.825  -0.778  12.591  0.00  0.00    +0.000 N 
ATOM      3  C   UNL     1      46.271  -0.452  13.815  0.00  0.00    +0.000 C 
ATOM      4  H   UNL     1      47.451  -0.100  12.142  0.00  0.00    +0.000 HD
ATOM      5  C   UNL     1      46.540  -1.954  11.856  0.00  0.00    +0.000 C 
ENDROOT
BRANCH   3   9
ATOM      6  N   UNL     1      47.311   0.785  15.818  0.00  0.00    +0.000 NA
ATOM      7  N   UNL     1      47.947   4.654  15.955  0.00  0.00    +0.000 N 
ATOM      8  C   UNL     1      46.372   2.124  13.707  0.00  0.00    +0.000 C 
ATOM      9  C   UNL     1      46.760   0.813  14.452  0.00  0.00    +0.000 C 
ATOM     10  C   UNL     1      46.935   3.420  14.373  0.00  0.00    +0.000 A 
ATOM     11  C   UNL     1      47.572   3.405  15.597  0.00  0.00    +0.000 A 
ATOM     12  C   UNL     1      44.827   2.319  13.750  0.00  0.00    +0.000 C 
ATOM     13  C   UNL     1      46.990   2.116  12.279  0.00  0.00    +0.000 C 
ATOM     14  C   UNL     1      46.919   4.805  13.976  0.00  0.00    +0.000 A 
ATOM     15  C   UNL     1      47.679   2.133  16.167  0.00  0.00    +0.000 C 
ATOM     16  C   UNL     1      47.563   5.549  14.985  0.00  0.00    +0.000 A 
ATOM     17  C   UNL     1      48.517  -0.025  15.881  0.00  0.00    +0.000 C 
ATOM     18  C   UNL     1      46.411   5.492  12.855  0.00  0.00    +0.000 A 
ATOM     19  C   UNL     1      48.620   4.975  17.167  0.00  0.00    +0.000 C 
ATOM     20  C   UNL     1      47.716   6.942  14.902  0.00  0.00    +0.000 A 
ATOM     21  C   UNL     1      46.560   6.876  12.769  0.00  0.00    +0.000 A 
ATOM     22  C   UNL     1      47.203   7.585  13.775  0.00  0.00    +0.000 A 
ENDBRANCH   3   9
BRANCH   5  25
ATOM     23  O   UNL     1      46.309  -3.855  13.180  0.00  0.00    +0.000 OA
ATOM     24  N   UNL     1      44.341  -2.966  12.220  0.00  0.00    +0.000 N 
ATOM     25  C   UNL     1      45.733  -3.038  12.467  0.00  0.00    +0.000 C 
ATOM     26  C   UNL     1      43.708  -1.992  11.323  0.00  0.00    +0.000 C 
BRANCH  24  27
ATOM     27  C   UNL     1      43.456  -3.847  12.868  0.00  0.00    +0.000 C 
ATOM     28  C   UNL     1      42.877  -4.965  12.175  0.00  0.00    +0.000 C 
ATOM     29  C   UNL     1      42.348  -5.978  11.553  0.00  0.00    +0.000 C 
ATOM     30  C   UNL     1      42.808  -7.341  12.025  0.00  0.00    +0.000 C 
BRANCH  27  31
ATOM     31  C   UNL     1      43.106  -3.683  14.271  0.00  0.00    +0.000 C 
ATOM     32  C   UNL     1      42.082  -2.647  14.693  0.00  0.00    +0.000 C 
ATOM     33  C   UNL     1      43.245  -4.861  15.218  0.00  0.00    +0.000 C 
ENDBRANCH  27  31
BRANCH  29  35
ATOM     34  O   UNL     1      41.241  -4.711   9.825  0.00  0.00    +0.000 OA
ATOM     35  C   UNL     1      41.362  -5.747  10.463  0.00  0.00    +0.000 C 
BRANCH  35  36
ATOM     36  O   UNL     1      40.560  -6.800  10.199  0.00  0.00    +0.000 OA
ATOM     37  H   UNL     1      39.716  -6.411   9.891  0.00  0.00    +0.000 HD
ENDBRANCH  35  36
ENDBRANCH  29  35
ENDBRANCH  24  27
ENDBRANCH   5  25
BRANCH   5  38
ATOM     38  C   UNL     1      47.223  -2.323  10.549  0.00  0.00    +0.000 C 
ATOM     39  C   UNL     1      46.935  -1.160   9.547  0.00  0.00    +0.000 C 
ATOM     40  C   UNL     1      48.756  -2.373  10.810  0.00  0.00    +0.000 C 
ATOM     41  C   UNL     1      46.717  -3.653   9.939  0.00  0.00    +0.000 C 
ENDBRANCH   5  38
TORSDOF 7
ENDMDL
MODEL 2
REMARK VINA RESULT:      -6.9     17.096     22.096
REMARK  Name = 10940649_MilnamideD.pdbqt.pdb
REMARK  7 active torsions:
REMARK  status: ('A' for Active; 'I' for Inactive)
REMARK    1  A    between atoms: C_3  and  C_8
REMARK    2  A    between atoms: C_22  and  C_25
REMARK    3  A    between atoms: C_22  and  C_38
REMARK    4  A    between atoms: N_24  and  C_27
REMARK    5  A    between atoms: C_27  and  C_28
REMARK    6  A    between atoms: C_32  and  C_35
REMARK    7  A    between atoms: C_35  and  O_36
REMARK                            x       y       z     vdW  Elec       q    Type
REMARK                         _______ _______ _______ _____ _____    ______ ____
ROOT
ATOM      1  O   UNL     1      26.521  -4.972  16.949  0.00  0.00    +0.000 OA
ATOM      2  N   UNL     1      28.077  -5.469  15.371  0.00  0.00    +0.000 N 
ATOM      3  C   UNL     1      27.285  -5.794  16.456  0.00  0.00    +0.000 C 
ATOM      4  H   UNL     1      28.775  -6.151  15.054  0.00  0.00    +0.000 HD
ATOM      5  C   UNL     1      28.058  -4.225  14.694  0.00  0.00    +0.000 C 
ENDROOT
BRANCH   3   9
ATOM      6  N   UNL     1      28.557  -7.549  17.845  0.00  0.00    +0.000 NA
ATOM      7  N   UNL     1      27.490 -11.307  18.193  0.00  0.00    +0.000 N 
ATOM      8  C   UNL     1      26.471  -8.239  16.328  0.00  0.00    +0.000 C 
ATOM      9  C   UNL     1      27.417  -7.190  16.984  0.00  0.00    +0.000 C 
ATOM     10  C   UNL     1      26.603  -9.674  16.931  0.00  0.00    +0.000 A 
ATOM     11  C   UNL     1      27.585 -10.006  17.842  0.00  0.00    +0.000 A 
ATOM     12  C   UNL     1      26.846  -8.425  14.828  0.00  0.00    +0.000 C 
ATOM     13  C   UNL     1      24.989  -7.839  16.586  0.00  0.00    +0.000 C 
ATOM     14  C   UNL     1      25.867 -10.894  16.713  0.00  0.00    +0.000 A 
ATOM     15  C   UNL     1      28.429  -8.943  18.180  0.00  0.00    +0.000 C 
ATOM     16  C   UNL     1      26.445 -11.894  17.520  0.00  0.00    +0.000 A 
ATOM     17  C   UNL     1      28.529  -6.798  19.091  0.00  0.00    +0.000 C 
ATOM     18  C   UNL     1      24.768 -11.237  15.901  0.00  0.00    +0.000 A 
ATOM     19  C   UNL     1      28.363 -11.959  19.109  0.00  0.00    +0.000 C 
ATOM     20  C   UNL     1      25.958 -13.210  17.540  0.00  0.00    +0.000 A 
ATOM     21  C   UNL     1      24.280 -12.544  15.917  0.00  0.00    +0.000 A 
ATOM     22  C   UNL     1      24.865 -13.510  16.725  0.00  0.00    +0.000 A 
ENDBRANCH   3   9
BRANCH   5  25
ATOM     23  O   UNL     1      27.308  -2.303  15.771  0.00  0.00    +0.000 OA
ATOM     24  N   UNL     1      25.789  -3.387  14.320  0.00  0.00    +0.000 N 
ATOM     25  C   UNL     1      27.015  -3.220  15.009  0.00  0.00    +0.000 C 
ATOM     26  C   UNL     1      25.475  -4.527  13.452  0.00  0.00    +0.000 C 
BRANCH  24  27
ATOM     27  C   UNL     1      24.778  -2.414  14.420  0.00  0.00    +0.000 C 
ATOM     28  C   UNL     1      24.323  -1.942  15.698  0.00  0.00    +0.000 C 
ATOM     29  C   UNL     1      23.904  -1.510  16.852  0.00  0.00    +0.000 C 
ATOM     30  C   UNL     1      24.237  -0.066  17.165  0.00  0.00    +0.000 C 
BRANCH  27  31
ATOM     31  C   UNL     1      24.167  -1.824  13.238  0.00  0.00    +0.000 C 
ATOM     32  C   UNL     1      22.673  -1.935  13.008  0.00  0.00    +0.000 C 
ATOM     33  C   UNL     1      24.824  -0.627  12.575  0.00  0.00    +0.000 C 
ENDBRANCH  27  31
BRANCH  29  35
ATOM     34  O   UNL     1      23.651  -3.133  18.618  0.00  0.00    +0.000 OA
ATOM     35  C   UNL     1      23.153  -2.422  17.757  0.00  0.00    +0.000 C 
BRANCH  35  36
ATOM     36  O   UNL     1      21.817  -2.426  17.566  0.00  0.00    +0.000 OA
ATOM     37  H   UNL     1      21.462  -3.041  18.241  0.00  0.00    +0.000 HD
ENDBRANCH  35  36
ENDBRANCH  29  35
ENDBRANCH  24  27
ENDBRANCH   5  25
BRANCH   5  38
ATOM     38  C   UNL     1      28.885  -3.923  13.453  0.00  0.00    +0.000 C 
ATOM     39  C   UNL     1      30.369  -3.792  13.924  0.00  0.00    +0.000 C 
ATOM     40  C   UNL     1      28.783  -5.150  12.502  0.00  0.00    +0.000 C 
ATOM     41  C   UNL     1      28.465  -2.620  12.732  0.00  0.00    +0.000 C 
ENDBRANCH   5  38
TORSDOF 7
ENDMDL
MODEL 3
REMARK VINA RESULT:      -6.7     34.278     36.971
REMARK  Name = 10940649_MilnamideD.pdbqt.pdb
REMARK  7 active torsions:
REMARK  status: ('A' for Active; 'I' for Inactive)
REMARK    1  A    between atoms: C_3  and  C_8
REMARK    2  A    between atoms: C_22  and  C_25
REMARK    3  A    between atoms: C_22  and  C_38
REMARK    4  A    between atoms: N_24  and  C_27
REMARK    5  A    between atoms: C_27  and  C_28
REMARK    6  A    between atoms: C_32  and  C_35
REMARK    7  A    between atoms: C_35  and  O_36
REMARK                            x       y       z     vdW  Elec       q    Type
REMARK                         _______ _______ _______ _____ _____    ______ ____
ROOT
ATOM      1  O   UNL     1      14.252   6.008  29.364  0.00  0.00    +0.000 OA
ATOM      2  N   UNL     1      13.177   4.459  30.629  0.00  0.00    +0.000 N 
ATOM      3  C   UNL     1      13.771   5.693  30.446  0.00  0.00    +0.000 C 
ATOM      4  H   UNL     1      12.879   4.194  31.575  0.00  0.00    +0.000 HD
ATOM      5  C   UNL     1      13.007   3.480  29.620  0.00  0.00    +0.000 C 
ENDROOT
BRANCH   3   9
ATOM      6  N   UNL     1      14.025   6.058  32.982  0.00  0.00    +0.000 NA
ATOM      7  N   UNL     1      13.660   9.527  34.776  0.00  0.00    +0.000 N 
ATOM      8  C   UNL     1      13.265   8.048  31.372  0.00  0.00    +0.000 C 
ATOM      9  C   UNL     1      13.790   6.606  31.635  0.00  0.00    +0.000 C 
ATOM     10  C   UNL     1      13.341   8.985  32.619  0.00  0.00    +0.000 A 
ATOM     11  C   UNL     1      13.685   8.523  33.872  0.00  0.00    +0.000 A 
ATOM     12  C   UNL     1      11.747   8.003  31.026  0.00  0.00    +0.000 C 
ATOM     13  C   UNL     1      14.158   8.742  30.303  0.00  0.00    +0.000 C 
ATOM     14  C   UNL     1      13.075  10.390  32.799  0.00  0.00    +0.000 A 
ATOM     15  C   UNL     1      13.972   7.154  33.913  0.00  0.00    +0.000 C 
ATOM     16  C   UNL     1      13.288  10.698  34.158  0.00  0.00    +0.000 A 
ATOM     17  C   UNL     1      15.349   5.465  33.084  0.00  0.00    +0.000 C 
ATOM     18  C   UNL     1      12.669  11.425  31.932  0.00  0.00    +0.000 A 
ATOM     19  C   UNL     1      13.959   9.374  36.159  0.00  0.00    +0.000 C 
ATOM     20  C   UNL     1      13.113  11.994  34.666  0.00  0.00    +0.000 A 
ATOM     21  C   UNL     1      12.493  12.715  32.432  0.00  0.00    +0.000 A 
ATOM     22  C   UNL     1      12.714  12.992  33.775  0.00  0.00    +0.000 A 
ENDBRANCH   3   9
BRANCH   5  25
ATOM     23  O   UNL     1      12.430   4.351  27.540  0.00  0.00    +0.000 OA
ATOM     24  N   UNL     1      14.630   3.524  27.787  0.00  0.00    +0.000 N 
ATOM     25  C   UNL     1      13.307   3.808  28.205  0.00  0.00    +0.000 C 
ATOM     26  C   UNL     1      15.628   2.833  28.611  0.00  0.00    +0.000 C 
BRANCH  24  27
ATOM     27  C   UNL     1      15.078   3.929  26.517  0.00  0.00    +0.000 C 
ATOM     28  C   UNL     1      15.371   5.307  26.235  0.00  0.00    +0.000 C 
ATOM     29  C   UNL     1      15.638   6.553  25.973  0.00  0.00    +0.000 C 
ATOM     30  C   UNL     1      17.098   6.867  25.723  0.00  0.00    +0.000 C 
BRANCH  27  31
ATOM     31  C   UNL     1      15.289   2.972  25.441  0.00  0.00    +0.000 C 
ATOM     32  C   UNL     1      16.693   2.625  24.984  0.00  0.00    +0.000 C 
ATOM     33  C   UNL     1      14.255   1.890  25.189  0.00  0.00    +0.000 C 
ENDBRANCH  27  31
BRANCH  29  35
ATOM     34  O   UNL     1      13.494   7.485  26.567  0.00  0.00    +0.000 OA
ATOM     35  C   UNL     1      14.537   7.554  25.933  0.00  0.00    +0.000 C 
BRANCH  35  36
ATOM     36  O   UNL     1      14.761   8.602  25.113  0.00  0.00    +0.000 OA
ATOM     37  H   UNL     1      15.591   9.010  25.435  0.00  0.00    +0.000 HD
ENDBRANCH  35  36
ENDBRANCH  29  35
ENDBRANCH  24  27
ENDBRANCH   5  25
BRANCH   5  38
ATOM     38  C   UNL     1      12.280   2.161  29.831  0.00  0.00    +0.000 C 
ATOM     39  C   UNL     1      12.978   1.451  31.034  0.00  0.00    +0.000 C 
ATOM     40  C   UNL     1      10.815   2.486  30.240  0.00  0.00    +0.000 C 
ATOM     41  C   UNL     1      12.322   1.226  28.597  0.00  0.00    +0.000 C 
ENDBRANCH   5  38
TORSDOF 7
ENDMDL
MODEL 4
REMARK VINA RESULT:      -6.6     34.674     37.131
REMARK  Name = 10940649_MilnamideD.pdbqt.pdb
REMARK  7 active torsions:
REMARK  status: ('A' for Active; 'I' for Inactive)
REMARK    1  A    between atoms: C_3  and  C_8
REMARK    2  A    between atoms: C_22  and  C_25
REMARK    3  A    between atoms: C_22  and  C_38
REMARK    4  A    between atoms: N_24  and  C_27
REMARK    5  A    between atoms: C_27  and  C_28
REMARK    6  A    between atoms: C_32  and  C_35
REMARK    7  A    between atoms: C_35  and  O_36
REMARK                            x       y       z     vdW  Elec       q    Type
REMARK                         _______ _______ _______ _____ _____    ______ ____
ROOT
ATOM      1  O   UNL     1      19.797  19.287  32.503  0.00  0.00    +0.000 OA
ATOM      2  N   UNL     1      21.825  19.836  31.643  0.00  0.00    +0.000 N 
ATOM      3  C   UNL     1      20.642  20.147  32.285  0.00  0.00    +0.000 C 
ATOM      4  H   UNL     1      22.459  20.602  31.388  0.00  0.00    +0.000 HD
ATOM      5  C   UNL     1      22.211  18.537  31.232  0.00  0.00    +0.000 C 
ENDROOT
BRANCH   3   9
ATOM      6  N   UNL     1      19.819  21.906  33.975  0.00  0.00    +0.000 NA
ATOM      7  N   UNL     1      20.026  25.784  33.427  0.00  0.00    +0.000 N 
ATOM      8  C   UNL     1      20.710  22.624  31.563  0.00  0.00    +0.000 C 
ATOM      9  C   UNL     1      20.459  21.579  32.690  0.00  0.00    +0.000 C 
ATOM     10  C   UNL     1      20.555  24.106  32.030  0.00  0.00    +0.000 A 
ATOM     11  C   UNL     1      20.078  24.442  33.280  0.00  0.00    +0.000 A 
ATOM     12  C   UNL     1      19.635  22.465  30.447  0.00  0.00    +0.000 C 
ATOM     13  C   UNL     1      22.182  22.518  31.071  0.00  0.00    +0.000 C 
ATOM     14  C   UNL     1      20.795  25.365  31.371  0.00  0.00    +0.000 A 
ATOM     15  C   UNL     1      19.766  23.340  34.083  0.00  0.00    +0.000 C 
ATOM     16  C   UNL     1      20.459  26.394  32.273  0.00  0.00    +0.000 A 
ATOM     17  C   UNL     1      20.607  21.414  35.094  0.00  0.00    +0.000 C 
ATOM     18  C   UNL     1      21.264  25.721  30.090  0.00  0.00    +0.000 A 
ATOM     19  C   UNL     1      19.571  26.449  34.600  0.00  0.00    +0.000 C 
ATOM     20  C   UNL     1      20.580  27.751  31.936  0.00  0.00    +0.000 A 
ATOM     21  C   UNL     1      21.386  27.069  29.750  0.00  0.00    +0.000 A 
ATOM     22  C   UNL     1      21.051  28.063  30.660  0.00  0.00    +0.000 A 
ENDBRANCH   3   9
BRANCH   5  25
ATOM     23  O   UNL     1      20.682  16.832  30.814  0.00  0.00    +0.000 OA
ATOM     24  N   UNL     1      21.651  16.905  32.969  0.00  0.00    +0.000 N 
ATOM     25  C   UNL     1      21.416  17.357  31.648  0.00  0.00    +0.000 C 
ATOM     26  C   UNL     1      22.507  17.595  33.940  0.00  0.00    +0.000 C 
BRANCH  24  27
ATOM     27  C   UNL     1      21.071  15.708  33.426  0.00  0.00    +0.000 C 
ATOM     28  C   UNL     1      21.655  14.432  33.115  0.00  0.00    +0.000 C 
ATOM     29  C   UNL     1      22.176  13.273  32.838  0.00  0.00    +0.000 C 
ATOM     30  C   UNL     1      22.759  12.523  34.017  0.00  0.00    +0.000 C 
BRANCH  27  31
ATOM     31  C   UNL     1      19.873  15.707  34.252  0.00  0.00    +0.000 C 
ATOM     32  C   UNL     1      18.504  15.550  33.621  0.00  0.00    +0.000 C 
ATOM     33  C   UNL     1      19.962  15.249  35.697  0.00  0.00    +0.000 C 
ENDBRANCH  27  31
BRANCH  29  35
ATOM     34  O   UNL     1      22.505  11.652  31.082  0.00  0.00    +0.000 OA
ATOM     35  C   UNL     1      22.168  12.773  31.436  0.00  0.00    +0.000 C 
BRANCH  35  36
ATOM     36  O   UNL     1      21.749  13.673  30.522  0.00  0.00    +0.000 OA
ATOM     37  H   UNL     1      21.139  13.179  29.935  0.00  0.00    +0.000 HD
ENDBRANCH  35  36
ENDBRANCH  29  35
ENDBRANCH  24  27
ENDBRANCH   5  25
BRANCH   5  38
ATOM     38  C   UNL     1      23.555  18.213  30.598  0.00  0.00    +0.000 C 
ATOM     39  C   UNL     1      23.401  16.819  29.909  0.00  0.00    +0.000 C 
ATOM     40  C   UNL     1      23.829  19.274  29.494  0.00  0.00    +0.000 C 
ATOM     41  C   UNL     1      24.721  18.149  31.614  0.00  0.00    +0.000 C 
ENDBRANCH   5  38
TORSDOF 7
ENDMDL
MODEL 5
REMARK VINA RESULT:      -6.6     21.495     26.002
REMARK  Name = 10940649_MilnamideD.pdbqt.pdb
REMARK  7 active torsions:
REMARK  status: ('A' for Active; 'I' for Inactive)
REMARK    1  A    between atoms: C_3  and  C_8
REMARK    2  A    between atoms: C_22  and  C_25
REMARK    3  A    between atoms: C_22  and  C_38
REMARK    4  A    between atoms: N_24  and  C_27
REMARK    5  A    between atoms: C_27  and  C_28
REMARK    6  A    between atoms: C_32  and  C_35
REMARK    7  A    between atoms: C_35  and  O_36
REMARK                            x       y       z     vdW  Elec       q    Type
REMARK                         _______ _______ _______ _____ _____    ______ ____
ROOT
ATOM      1  O   UNL     1      21.550  -2.563  14.247  0.00  0.00    +0.000 OA
ATOM      2  N   UNL     1      21.099  -4.788  14.246  0.00  0.00    +0.000 N 
ATOM      3  C   UNL     1      20.716  -3.460  14.223  0.00  0.00    +0.000 C 
ATOM      4  H   UNL     1      20.370  -5.505  14.328  0.00  0.00    +0.000 HD
ATOM      5  C   UNL     1      22.438  -5.250  14.241  0.00  0.00    +0.000 C 
ENDROOT
BRANCH   3   9
ATOM      6  N   UNL     1      18.414  -3.376  15.372  0.00  0.00    +0.000 NA
ATOM      7  N   UNL     1      15.063  -2.425  13.569  0.00  0.00    +0.000 N 
ATOM      8  C   UNL     1      18.654  -3.011  12.738  0.00  0.00    +0.000 C 
ATOM      9  C   UNL     1      19.243  -3.192  14.169  0.00  0.00    +0.000 C 
ATOM     10  C   UNL     1      17.127  -2.688  12.720  0.00  0.00    +0.000 A 
ATOM     11  C   UNL     1      16.348  -2.727  13.858  0.00  0.00    +0.000 A 
ATOM     12  C   UNL     1      18.767  -4.348  11.948  0.00  0.00    +0.000 C 
ATOM     13  C   UNL     1      19.323  -1.787  12.049  0.00  0.00    +0.000 C 
ATOM     14  C   UNL     1      16.216  -2.344  11.657  0.00  0.00    +0.000 A 
ATOM     15  C   UNL     1      17.055  -3.063  15.017  0.00  0.00    +0.000 C 
ATOM     16  C   UNL     1      14.936  -2.183  12.222  0.00  0.00    +0.000 A 
ATOM     17  C   UNL     1      18.811  -2.457  16.428  0.00  0.00    +0.000 C 
ATOM     18  C   UNL     1      16.365  -2.161  10.267  0.00  0.00    +0.000 A 
ATOM     19  C   UNL     1      14.010  -2.388  14.526  0.00  0.00    +0.000 C 
ATOM     20  C   UNL     1      13.816  -1.843  11.448  0.00  0.00    +0.000 A 
ATOM     21  C   UNL     1      15.255  -1.823   9.493  0.00  0.00    +0.000 A 
ATOM     22  C   UNL     1      14.004  -1.666  10.076  0.00  0.00    +0.000 A 
ENDBRANCH   3   9
BRANCH   5  25
ATOM     23  O   UNL     1      23.826  -3.990  12.860  0.00  0.00    +0.000 OA
ATOM     24  N   UNL     1      24.146  -3.776  15.192  0.00  0.00    +0.000 N 
ATOM     25  C   UNL     1      23.553  -4.299  14.017  0.00  0.00    +0.000 C 
ATOM     26  C   UNL     1      23.810  -4.212  16.552  0.00  0.00    +0.000 C 
BRANCH  24  27
ATOM     27  C   UNL     1      25.108  -2.754  15.111  0.00  0.00    +0.000 C 
ATOM     28  C   UNL     1      26.499  -3.055  14.910  0.00  0.00    +0.000 C 
ATOM     29  C   UNL     1      27.760  -3.320  14.730  0.00  0.00    +0.000 C 
ATOM     30  C   UNL     1      28.330  -2.887  13.396  0.00  0.00    +0.000 C 
BRANCH  27  31
ATOM     31  C   UNL     1      24.739  -1.349  15.201  0.00  0.00    +0.000 C 
ATOM     32  C   UNL     1      24.165  -0.626  13.998  0.00  0.00    +0.000 C 
ATOM     33  C   UNL     1      24.336  -0.767  16.543  0.00  0.00    +0.000 C 
ENDBRANCH  27  31
BRANCH  29  35
ATOM     34  O   UNL     1      28.064  -4.735  16.660  0.00  0.00    +0.000 OA
ATOM     35  C   UNL     1      28.535  -4.002  15.802  0.00  0.00    +0.000 C 
BRANCH  35  36
ATOM     36  O   UNL     1      29.861  -3.753  15.780  0.00  0.00    +0.000 OA
ATOM     37  H   UNL     1      30.285  -4.624  15.634  0.00  0.00    +0.000 HD
ENDBRANCH  35  36
ENDBRANCH  29  35
ENDBRANCH  24  27
ENDBRANCH   5  25
BRANCH   5  38
ATOM     38  C   UNL     1      22.828  -6.718  14.187  0.00  0.00    +0.000 C 
ATOM     39  C   UNL     1      22.216  -7.392  15.457  0.00  0.00    +0.000 C 
ATOM     40  C   UNL     1      22.156  -7.344  12.932  0.00  0.00    +0.000 C 
ATOM     41  C   UNL     1      24.358  -6.953  14.177  0.00  0.00    +0.000 C 
ENDBRANCH   5  38
TORSDOF 7
ENDMDL
MODEL 6
REMARK VINA RESULT:      -6.5     19.189     23.624
REMARK  Name = 10940649_MilnamideD.pdbqt.pdb
REMARK  7 active torsions:
REMARK  status: ('A' for Active; 'I' for Inactive)
REMARK    1  A    between atoms: C_3  and  C_8
REMARK    2  A    between atoms: C_22  and  C_25
REMARK    3  A    between atoms: C_22  and  C_38
REMARK    4  A    between atoms: N_24  and  C_27
REMARK    5  A    between atoms: C_27  and  C_28
REMARK    6  A    between atoms: C_32  and  C_35
REMARK    7  A    between atoms: C_35  and  O_36
REMARK                            x       y       z     vdW  Elec       q    Type
REMARK                         _______ _______ _______ _____ _____    ______ ____
ROOT
ATOM      1  O   UNL     1      23.533  -5.337  15.442  0.00  0.00    +0.000 OA
ATOM      2  N   UNL     1      23.076  -3.126  15.198  0.00  0.00    +0.000 N 
ATOM      3  C   UNL     1      22.881  -4.359  15.791  0.00  0.00    +0.000 C 
ATOM      4  H   UNL     1      22.441  -2.359  15.446  0.00  0.00    +0.000 HD
ATOM      5  C   UNL     1      24.046  -2.844  14.206  0.00  0.00    +0.000 C 
ENDROOT
BRANCH   3   9
ATOM      6  N   UNL     1      20.412  -4.456  16.511  0.00  0.00    +0.000 NA
ATOM      7  N   UNL     1      19.184  -4.501  20.236  0.00  0.00    +0.000 N 
ATOM      8  C   UNL     1      22.363  -4.161  18.311  0.00  0.00    +0.000 C 
ATOM      9  C   UNL     1      21.841  -4.425  16.867  0.00  0.00    +0.000 C 
ATOM     10  C   UNL     1      21.262  -4.281  19.412  0.00  0.00    +0.000 A 
ATOM     11  C   UNL     1      19.926  -4.441  19.109  0.00  0.00    +0.000 A 
ATOM     12  C   UNL     1      22.859  -2.690  18.432  0.00  0.00    +0.000 C 
ATOM     13  C   UNL     1      23.418  -5.240  18.690  0.00  0.00    +0.000 C 
ATOM     14  C   UNL     1      21.315  -4.229  20.851  0.00  0.00    +0.000 A 
ATOM     15  C   UNL     1      19.659  -4.501  17.737  0.00  0.00    +0.000 C 
ATOM     16  C   UNL     1      20.000  -4.374  21.336  0.00  0.00    +0.000 A 
ATOM     17  C   UNL     1      20.085  -5.655  15.756  0.00  0.00    +0.000 C 
ATOM     18  C   UNL     1      22.360  -4.068  21.783  0.00  0.00    +0.000 A 
ATOM     19  C   UNL     1      17.769  -4.655  20.262  0.00  0.00    +0.000 C 
ATOM     20  C   UNL     1      19.704  -4.366  22.708  0.00  0.00    +0.000 A 
ATOM     21  C   UNL     1      22.072  -4.059  23.149  0.00  0.00    +0.000 A 
ATOM     22  C   UNL     1      20.766  -4.208  23.599  0.00  0.00    +0.000 A 
ENDBRANCH   3   9
BRANCH   5  25
ATOM     23  O   UNL     1      24.911  -4.521  12.843  0.00  0.00    +0.000 OA
ATOM     24  N   UNL     1      26.200  -3.889  14.720  0.00  0.00    +0.000 N 
ATOM     25  C   UNL     1      25.075  -3.855  13.861  0.00  0.00    +0.000 C 
ATOM     26  C   UNL     1      26.326  -3.099  15.950  0.00  0.00    +0.000 C 
BRANCH  24  27
ATOM     27  C   UNL     1      27.308  -4.697  14.411  0.00  0.00    +0.000 C 
ATOM     28  C   UNL     1      27.567  -5.913  15.131  0.00  0.00    +0.000 C 
ATOM     29  C   UNL     1      27.808  -7.015  15.779  0.00  0.00    +0.000 C 
ATOM     30  C   UNL     1      27.648  -8.289  14.976  0.00  0.00    +0.000 C 
BRANCH  27  31
ATOM     31  C   UNL     1      28.228  -4.353  13.336  0.00  0.00    +0.000 C 
ATOM     32  C   UNL     1      28.755  -2.939  13.198  0.00  0.00    +0.000 C 
ATOM     33  C   UNL     1      29.127  -5.426  12.751  0.00  0.00    +0.000 C 
ENDBRANCH  27  31
BRANCH  29  35
ATOM     34  O   UNL     1      28.050  -6.006  17.956  0.00  0.00    +0.000 OA
ATOM     35  C   UNL     1      28.213  -6.961  17.210  0.00  0.00    +0.000 C 
BRANCH  35  36
ATOM     36  O   UNL     1      28.806  -8.083  17.669  0.00  0.00    +0.000 OA
ATOM     37  H   UNL     1      28.291  -8.822  17.285  0.00  0.00    +0.000 HD
ENDBRANCH  35  36
ENDBRANCH  29  35
ENDBRANCH  24  27
ENDBRANCH   5  25
BRANCH   5  38
ATOM     38  C   UNL     1      24.290  -1.459  13.628  0.00  0.00    +0.000 C 
ATOM     39  C   UNL     1      23.006  -1.076  12.824  0.00  0.00    +0.000 C 
ATOM     40  C   UNL     1      24.435  -0.466  14.816  0.00  0.00    +0.000 C 
ATOM     41  C   UNL     1      25.517  -1.388  12.686  0.00  0.00    +0.000 C 
ENDBRANCH   5  38
TORSDOF 7
ENDMDL
MODEL 7
REMARK VINA RESULT:      -6.4     24.024     27.683
REMARK  Name = 10940649_MilnamideD.pdbqt.pdb
REMARK  7 active torsions:
REMARK  status: ('A' for Active; 'I' for Inactive)
REMARK    1  A    between atoms: C_3  and  C_8
REMARK    2  A    between atoms: C_22  and  C_25
REMARK    3  A    between atoms: C_22  and  C_38
REMARK    4  A    between atoms: N_24  and  C_27
REMARK    5  A    between atoms: C_27  and  C_28
REMARK    6  A    between atoms: C_32  and  C_35
REMARK    7  A    between atoms: C_35  and  O_36
REMARK                            x       y       z     vdW  Elec       q    Type
REMARK                         _______ _______ _______ _____ _____    ______ ____
ROOT
ATOM      1  O   UNL     1      25.349  -1.853  30.633  0.00  0.00    +0.000 OA
ATOM      2  N   UNL     1      25.701  -4.007  31.256  0.00  0.00    +0.000 N 
ATOM      3  C   UNL     1      25.918  -2.919  30.433  0.00  0.00    +0.000 C 
ATOM      4  H   UNL     1      26.117  -4.909  30.995  0.00  0.00    +0.000 HD
ATOM      5  C   UNL     1      24.881  -4.004  32.411  0.00  0.00    +0.000 C 
ENDROOT
BRANCH   3   9
ATOM      6  N   UNL     1      28.264  -2.646  29.410  0.00  0.00    +0.000 NA
ATOM      7  N   UNL     1      29.262  -3.798  25.795  0.00  0.00    +0.000 N 
ATOM      8  C   UNL     1      26.227  -3.576  27.956  0.00  0.00    +0.000 C 
ATOM      9  C   UNL     1      26.875  -3.122  29.298  0.00  0.00    +0.000 C 
ATOM     10  C   UNL     1      27.256  -3.821  26.808  0.00  0.00    +0.000 A 
ATOM     11  C   UNL     1      28.593  -3.503  26.932  0.00  0.00    +0.000 A 
ATOM     12  C   UNL     1      25.309  -2.445  27.404  0.00  0.00    +0.000 C 
ATOM     13  C   UNL     1      25.523  -4.949  28.154  0.00  0.00    +0.000 C 
ATOM     14  C   UNL     1      27.118  -4.340  25.470  0.00  0.00    +0.000 A 
ATOM     15  C   UNL     1      28.934  -2.961  28.175  0.00  0.00    +0.000 C 
ATOM     16  C   UNL     1      28.391  -4.316  24.866  0.00  0.00    +0.000 A 
ATOM     17  C   UNL     1      28.971  -3.336  30.477  0.00  0.00    +0.000 C 
ATOM     18  C   UNL     1      26.028  -4.823  24.720  0.00  0.00    +0.000 A 
ATOM     19  C   UNL     1      30.655  -3.580  25.602  0.00  0.00    +0.000 C 
ATOM     20  C   UNL     1      28.601  -4.759  23.551  0.00  0.00    +0.000 A 
ATOM     21  C   UNL     1      26.231  -5.264  23.412  0.00  0.00    +0.000 A 
ATOM     22  C   UNL     1      27.497  -5.234  22.842  0.00  0.00    +0.000 A 
ENDBRANCH   3   9
BRANCH   5  25
ATOM     23  O   UNL     1      25.032  -2.052  33.670  0.00  0.00    +0.000 OA
ATOM     24  N   UNL     1      23.045  -2.385  32.435  0.00  0.00    +0.000 N 
ATOM     25  C   UNL     1      24.327  -2.729  32.927  0.00  0.00    +0.000 C 
ATOM     26  C   UNL     1      22.226  -3.252  31.581  0.00  0.00    +0.000 C 
BRANCH  24  27
ATOM     27  C   UNL     1      22.481  -1.131  32.732  0.00  0.00    +0.000 C 
ATOM     28  C   UNL     1      21.059  -0.927  32.692  0.00  0.00    +0.000 C 
ATOM     29  C   UNL     1      19.773  -0.733  32.658  0.00  0.00    +0.000 C 
ATOM     30  C   UNL     1      19.119  -0.468  33.998  0.00  0.00    +0.000 C 
BRANCH  27  31
ATOM     31  C   UNL     1      23.305   0.006  33.115  0.00  0.00    +0.000 C 
ATOM     32  C   UNL     1      23.890   0.922  32.059  0.00  0.00    +0.000 C 
ATOM     33  C   UNL     1      23.101   0.651  34.474  0.00  0.00    +0.000 C 
ENDBRANCH  27  31
BRANCH  29  35
ATOM     34  O   UNL     1      18.720   0.192  30.695  0.00  0.00    +0.000 OA
ATOM     35  C   UNL     1      19.050  -0.781  31.358  0.00  0.00    +0.000 C 
BRANCH  35  36
ATOM     36  O   UNL     1      18.758  -2.025  30.923  0.00  0.00    +0.000 OA
ATOM     37  H   UNL     1      18.060  -2.352  31.527  0.00  0.00    +0.000 HD
ENDBRANCH  35  36
ENDBRANCH  29  35
ENDBRANCH  24  27
ENDBRANCH   5  25
BRANCH   5  38
ATOM     38  C   UNL     1      24.724  -5.195  33.343  0.00  0.00    +0.000 C 
ATOM     39  C   UNL     1      24.198  -6.380  32.471  0.00  0.00    +0.000 C 
ATOM     40  C   UNL     1      26.135  -5.571  33.877  0.00  0.00    +0.000 C 
ATOM     41  C   UNL     1      23.733  -4.944  34.506  0.00  0.00    +0.000 C 
ENDBRANCH   5  38
TORSDOF 7
ENDMDL
MODEL 8
REMARK VINA RESULT:      -6.4     20.737     25.171
REMARK  Name = 10940649_MilnamideD.pdbqt.pdb
REMARK  7 active torsions:
REMARK  status: ('A' for Active; 'I' for Inactive)
REMARK    1  A    between atoms: C_3  and  C_8
REMARK    2  A    between atoms: C_22  and  C_25
REMARK    3  A    between atoms: C_22  and  C_38
REMARK    4  A    between atoms: N_24  and  C_27
REMARK    5  A    between atoms: C_27  and  C_28
REMARK    6  A    between atoms: C_32  and  C_35
REMARK    7  A    between atoms: C_35  and  O_36
REMARK                            x       y       z     vdW  Elec       q    Type
REMARK                         _______ _______ _______ _____ _____    ______ ____
ROOT
ATOM      1  O   UNL     1      22.029  -4.817  13.726  0.00  0.00    +0.000 OA
ATOM      2  N   UNL     1      22.350  -2.575  13.881  0.00  0.00    +0.000 N 
ATOM      3  C   UNL     1      21.547  -3.700  13.869  0.00  0.00    +0.000 C 
ATOM      4  H   UNL     1      21.899  -1.653  13.900  0.00  0.00    +0.000 HD
ATOM      5  C   UNL     1      23.763  -2.583  13.795  0.00  0.00    +0.000 C 
ENDROOT
BRANCH   3   9
ATOM      6  N   UNL     1      19.420  -3.789  15.316  0.00  0.00    +0.000 NA
ATOM      7  N   UNL     1      15.841  -2.775  14.072  0.00  0.00    +0.000 N 
ATOM      8  C   UNL     1      19.296  -3.177  12.720  0.00  0.00    +0.000 C 
ATOM      9  C   UNL     1      20.076  -3.471  14.036  0.00  0.00    +0.000 C 
ATOM     10  C   UNL     1      17.775  -2.899  12.935  0.00  0.00    +0.000 A 
ATOM     11  C   UNL     1      17.158  -3.065  14.158  0.00  0.00    +0.000 A 
ATOM     12  C   UNL     1      19.324  -4.433  11.799  0.00  0.00    +0.000 C 
ATOM     13  C   UNL     1      19.845  -1.876  12.067  0.00  0.00    +0.000 C 
ATOM     14  C   UNL     1      16.724  -2.486  12.040  0.00  0.00    +0.000 A 
ATOM     15  C   UNL     1      18.020  -3.484  15.176  0.00  0.00    +0.000 C 
ATOM     16  C   UNL     1      15.529  -2.415  12.783  0.00  0.00    +0.000 A 
ATOM     17  C   UNL     1      19.940  -2.959  16.392  0.00  0.00    +0.000 C 
ATOM     18  C   UNL     1      16.680  -2.172  10.667  0.00  0.00    +0.000 A 
ATOM     19  C   UNL     1      14.926  -2.856  15.160  0.00  0.00    +0.000 C 
ATOM     20  C   UNL     1      14.309  -2.038  12.200  0.00  0.00    +0.000 A 
ATOM     21  C   UNL     1      15.470  -1.798  10.082  0.00  0.00    +0.000 A 
ATOM     22  C   UNL     1      14.307  -1.731  10.838  0.00  0.00    +0.000 A 
ENDBRANCH   3   9
BRANCH   5  25
ATOM     23  O   UNL     1      24.868  -4.386  12.822  0.00  0.00    +0.000 OA
ATOM     24  N   UNL     1      24.797  -4.315  15.183  0.00  0.00    +0.000 N 
ATOM     25  C   UNL     1      24.508  -3.863  13.872  0.00  0.00    +0.000 C 
ATOM     26  C   UNL     1      24.305  -3.673  16.407  0.00  0.00    +0.000 C 
BRANCH  24  27
ATOM     27  C   UNL     1      25.626  -5.433  15.384  0.00  0.00    +0.000 C 
ATOM     28  C   UNL     1      27.023  -5.280  15.681  0.00  0.00    +0.000 C 
ATOM     29  C   UNL     1      28.290  -5.150  15.950  0.00  0.00    +0.000 C 
ATOM     30  C   UNL     1      28.705  -5.574  17.343  0.00  0.00    +0.000 C 
BRANCH  27  31
ATOM     31  C   UNL     1      25.104  -6.790  15.325  0.00  0.00    +0.000 C 
ATOM     32  C   UNL     1      25.552  -7.740  14.231  0.00  0.00    +0.000 C 
ATOM     33  C   UNL     1      24.637  -7.467  16.601  0.00  0.00    +0.000 C 
ENDBRANCH  27  31
BRANCH  29  35
ATOM     34  O   UNL     1      29.129  -4.820  13.713  0.00  0.00    +0.000 OA
ATOM     35  C   UNL     1      29.216  -4.615  14.916  0.00  0.00    +0.000 C 
BRANCH  35  36
ATOM     36  O   UNL     1      30.218  -3.851  15.400  0.00  0.00    +0.000 OA
ATOM     37  H   UNL     1      31.004  -4.435  15.414  0.00  0.00    +0.000 HD
ENDBRANCH  35  36
ENDBRANCH  29  35
ENDBRANCH  24  27
ENDBRANCH   5  25
BRANCH   5  38
ATOM     38  C   UNL     1      24.626  -1.334  13.891  0.00  0.00    +0.000 C 
ATOM     39  C   UNL     1      24.116  -0.351  12.788  0.00  0.00    +0.000 C 
ATOM     40  C   UNL     1      24.369  -0.683  15.280  0.00  0.00    +0.000 C 
ATOM     41  C   UNL     1      26.134  -1.604  13.670  0.00  0.00    +0.000 C 
ENDBRANCH   5  38
TORSDOF 7
ENDMDL
MODEL 9
REMARK VINA RESULT:      -6.2     33.914     36.213
REMARK  Name = 10940649_MilnamideD.pdbqt.pdb
REMARK  7 active torsions:
REMARK  status: ('A' for Active; 'I' for Inactive)
REMARK    1  A    between atoms: C_3  and  C_8
REMARK    2  A    between atoms: C_22  and  C_25
REMARK    3  A    between atoms: C_22  and  C_38
REMARK    4  A    between atoms: N_24  and  C_27
REMARK    5  A    between atoms: C_27  and  C_28
REMARK    6  A    between atoms: C_32  and  C_35
REMARK    7  A    between atoms: C_35  and  O_36
REMARK                            x       y       z     vdW  Elec       q    Type
REMARK                         _______ _______ _______ _____ _____    ______ ____
ROOT
ATOM      1  O   UNL     1      21.553  13.934  33.808  0.00  0.00    +0.000 OA
ATOM      2  N   UNL     1      19.595  14.895  34.438  0.00  0.00    +0.000 N 
ATOM      3  C   UNL     1      20.769  14.870  33.710  0.00  0.00    +0.000 C 
ATOM      4  H   UNL     1      19.017  15.742  34.405  0.00  0.00    +0.000 HD
ATOM      5  C   UNL     1      19.150  13.862  35.299  0.00  0.00    +0.000 C 
ENDROOT
BRANCH   3   9
ATOM      6  N   UNL     1      21.963  15.919  31.685  0.00  0.00    +0.000 NA
ATOM      7  N   UNL     1      21.536  19.646  30.537  0.00  0.00    +0.000 N 
ATOM      8  C   UNL     1      20.462  17.403  33.320  0.00  0.00    +0.000 C 
ATOM      9  C   UNL     1      21.019  16.041  32.809  0.00  0.00    +0.000 C 
ATOM     10  C   UNL     1      20.700  18.593  32.338  0.00  0.00    +0.000 A 
ATOM     11  C   UNL     1      21.477  18.472  31.204  0.00  0.00    +0.000 A 
ATOM     12  C   UNL     1      21.214  17.828  34.616  0.00  0.00    +0.000 C 
ATOM     13  C   UNL     1      18.915  17.314  33.463  0.00  0.00    +0.000 C 
ATOM     14  C   UNL     1      20.270  19.968  32.350  0.00  0.00    +0.000 A 
ATOM     15  C   UNL     1      22.010  17.193  31.015  0.00  0.00    +0.000 C 
ATOM     16  C   UNL     1      20.806  20.597  31.210  0.00  0.00    +0.000 A 
ATOM     17  C   UNL     1      21.503  14.936  30.717  0.00  0.00    +0.000 C 
ATOM     18  C   UNL     1      19.478  20.733  33.230  0.00  0.00    +0.000 A 
ATOM     19  C   UNL     1      22.265  19.852  29.333  0.00  0.00    +0.000 C 
ATOM     20  C   UNL     1      20.572  21.952  30.925  0.00  0.00    +0.000 A 
ATOM     21  C   UNL     1      19.242  22.080  32.952  0.00  0.00    +0.000 A 
ATOM     22  C   UNL     1      19.780  22.675  31.818  0.00  0.00    +0.000 A 
ENDBRANCH   3   9
BRANCH   5  25
ATOM     23  O   UNL     1      19.588  11.733  34.466  0.00  0.00    +0.000 OA
ATOM     24  N   UNL     1      20.853  12.439  36.333  0.00  0.00    +0.000 N 
ATOM     25  C   UNL     1      19.859  12.561  35.331  0.00  0.00    +0.000 C 
ATOM     26  C   UNL     1      21.108  13.444  37.371  0.00  0.00    +0.000 C 
BRANCH  24  27
ATOM     27  C   UNL     1      21.695  11.314  36.368  0.00  0.00    +0.000 C 
ATOM     28  C   UNL     1      22.959  11.309  35.685  0.00  0.00    +0.000 C 
ATOM     29  C   UNL     1      24.105  11.296  35.068  0.00  0.00    +0.000 C 
ATOM     30  C   UNL     1      25.325  11.261  35.964  0.00  0.00    +0.000 C 
BRANCH  27  31
ATOM     31  C   UNL     1      21.339  10.117  37.115  0.00  0.00    +0.000 C 
ATOM     32  C   UNL     1      19.997  10.016  37.812  0.00  0.00    +0.000 C 
ATOM     33  C   UNL     1      21.956   8.785  36.729  0.00  0.00    +0.000 C 
ENDBRANCH  27  31
BRANCH  29  35
ATOM     34  O   UNL     1      25.098  10.971  32.894  0.00  0.00    +0.000 OA
ATOM     35  C   UNL     1      24.147  11.315  33.581  0.00  0.00    +0.000 C 
BRANCH  35  36
ATOM     36  O   UNL     1      23.015  11.759  32.993  0.00  0.00    +0.000 OA
ATOM     37  H   UNL     1      22.402  11.957  33.731  0.00  0.00    +0.000 HD
ENDBRANCH  35  36
ENDBRANCH  29  35
ENDBRANCH  24  27
ENDBRANCH   5  25
BRANCH   5  38
ATOM     38  C   UNL     1      17.815  13.882  36.027  0.00  0.00    +0.000 C 
ATOM     39  C   UNL     1      17.919  14.988  37.126  0.00  0.00    +0.000 C 
ATOM     40  C   UNL     1      16.722  14.310  35.007  0.00  0.00    +0.000 C 
ATOM     41  C   UNL     1      17.455  12.534  36.699  0.00  0.00    +0.000 C 
ENDBRANCH   5  38
TORSDOF 7
ENDMDL
