MODEL 1
REMARK VINA RESULT:      -7.2      0.000      0.000
REMARK  Name = 11167602_Regorafenib.pdbqt.pdb
REMARK  6 active torsions:
REMARK  status: ('A' for Active; 'I' for Inactive)
REMARK    1  A    between atoms: C_2  and  N_10
REMARK    2  A    between atoms: C_3  and  O_25
REMARK    3  A    between atoms: N_9  and  C_15
REMARK    4  A    between atoms: C_16  and  C_24
REMARK    5  A    between atoms: O_25  and  C_27
REMARK    6  A    between atoms: C_29  and  C_34
REMARK                            x       y       z     vdW  Elec       q    Type
REMARK                         _______ _______ _______ _____ _____    ______ ____
ROOT
ATOM      1  F   UNL     1      18.101  20.175   5.808  0.00  0.00    +0.000 F 
ATOM      2  C   UNL     1      18.668  19.542   3.599  0.00  0.00    +0.000 A 
ATOM      3  C   UNL     1      16.002  18.807   3.192  0.00  0.00    +0.000 A 
ATOM      4  C   UNL     1      17.723  19.678   4.620  0.00  0.00    +0.000 A 
ATOM      5  C   UNL     1      18.263  19.011   2.376  0.00  0.00    +0.000 A 
ATOM      6  C   UNL     1      16.396  19.303   4.434  0.00  0.00    +0.000 A 
ATOM      7  C   UNL     1      16.937  18.631   2.173  0.00  0.00    +0.000 A 
ENDROOT
BRANCH   2  10
ATOM      8  O   UNL     1      20.106  21.805   2.483  0.00  0.00    +0.000 OA
ATOM      9  N   UNL     1      21.913  21.185   3.786  0.00  0.00    +0.000 N 
ATOM     10  N   UNL     1      19.994  19.951   3.855  0.00  0.00    +0.000 N 
ATOM     11  C   UNL     1      20.622  21.053   3.298  0.00  0.00    +0.000 C 
ATOM     12  H   UNL     1      22.226  20.522   4.479  0.00  0.00    +0.000 HD
ATOM     13  H   UNL     1      20.516  19.367   4.494  0.00  0.00    +0.000 HD
BRANCH   9  15
ATOM     14 CL   UNL     1      25.696  25.503   2.335  0.00  0.00    +0.000 Cl
ATOM     15  C   UNL     1      22.825  22.191   3.417  0.00  0.00    +0.000 A 
ATOM     16  C   UNL     1      23.623  24.466   3.790  0.00  0.00    +0.000 A 
ATOM     17  C   UNL     1      22.754  23.411   4.091  0.00  0.00    +0.000 A 
ATOM     18  C   UNL     1      23.784  22.023   2.424  0.00  0.00    +0.000 A 
ATOM     19  C   UNL     1      24.577  24.277   2.789  0.00  0.00    +0.000 A 
ATOM     20  C   UNL     1      24.656  23.061   2.109  0.00  0.00    +0.000 A 
BRANCH  16  24
ATOM     21  F   UNL     1      22.428  25.753   5.404  0.00  0.00    +0.000 F 
ATOM     22  F   UNL     1      24.578  26.016   5.328  0.00  0.00    +0.000 F 
ATOM     23  F   UNL     1      23.314  26.830   3.746  0.00  0.00    +0.000 F 
ATOM     24  C   UNL     1      23.493  25.748   4.552  0.00  0.00    +0.000 C 
ENDBRANCH  16  24
ENDBRANCH   9  15
ENDBRANCH   2  10
BRANCH   3  25
ATOM     25  O   UNL     1      14.727  18.347   2.961  0.00  0.00    +0.000 OA
BRANCH  25  27
ATOM     26  N   UNL     1      13.766  14.353   3.694  0.00  0.00    +0.000 NA
ATOM     27  C   UNL     1      14.451  17.034   3.271  0.00  0.00    +0.000 A 
ATOM     28  C   UNL     1      14.128  16.602   4.553  0.00  0.00    +0.000 A 
ATOM     29  C   UNL     1      13.806  15.263   4.709  0.00  0.00    +0.000 A 
ATOM     30  C   UNL     1      14.402  16.148   2.199  0.00  0.00    +0.000 A 
ATOM     31  C   UNL     1      14.063  14.830   2.463  0.00  0.00    +0.000 A 
BRANCH  29  34
ATOM     32  O   UNL     1      13.540  13.545   6.300  0.00  0.00    +0.000 OA
ATOM     33  N   UNL     1      13.142  15.755   6.948  0.00  0.00    +0.000 N 
ATOM     34  C   UNL     1      13.487  14.747   6.065  0.00  0.00    +0.000 C 
ATOM     35  C   UNL     1      12.760  15.719   8.334  0.00  0.00    +0.000 C 
ATOM     36  H   UNL     1      13.156  16.691   6.544  0.00  0.00    +0.000 HD
ENDBRANCH  29  34
ENDBRANCH  25  27
ENDBRANCH   3  25
TORSDOF 6
ENDMDL
MODEL 2
REMARK VINA RESULT:      -6.9      5.580      8.517
REMARK  Name = 11167602_Regorafenib.pdbqt.pdb
REMARK  6 active torsions:
REMARK  status: ('A' for Active; 'I' for Inactive)
REMARK    1  A    between atoms: C_2  and  N_10
REMARK    2  A    between atoms: C_3  and  O_25
REMARK    3  A    between atoms: N_9  and  C_15
REMARK    4  A    between atoms: C_16  and  C_24
REMARK    5  A    between atoms: O_25  and  C_27
REMARK    6  A    between atoms: C_29  and  C_34
REMARK                            x       y       z     vdW  Elec       q    Type
REMARK                         _______ _______ _______ _____ _____    ______ ____
ROOT
ATOM      1  F   UNL     1      23.062  23.569   4.700  0.00  0.00    +0.000 F 
ATOM      2  C   UNL     1      24.588  24.806   3.380  0.00  0.00    +0.000 A 
ATOM      3  C   UNL     1      24.762  22.622   1.645  0.00  0.00    +0.000 A 
ATOM      4  C   UNL     1      23.860  23.638   3.623  0.00  0.00    +0.000 A 
ATOM      5  C   UNL     1      25.423  24.857   2.265  0.00  0.00    +0.000 A 
ATOM      6  C   UNL     1      23.948  22.539   2.774  0.00  0.00    +0.000 A 
ATOM      7  C   UNL     1      25.522  23.764   1.405  0.00  0.00    +0.000 A 
ENDROOT
BRANCH   2  10
ATOM      8  O   UNL     1      22.437  26.753   3.529  0.00  0.00    +0.000 OA
ATOM      9  N   UNL     1      23.536  27.696   5.331  0.00  0.00    +0.000 N 
ATOM     10  N   UNL     1      24.442  25.885   4.278  0.00  0.00    +0.000 N 
ATOM     11  C   UNL     1      23.382  26.775   4.306  0.00  0.00    +0.000 C 
ATOM     12  H   UNL     1      24.342  27.603   5.932  0.00  0.00    +0.000 HD
ATOM     13  H   UNL     1      25.195  26.007   4.941  0.00  0.00    +0.000 HD
BRANCH   9  15
ATOM     14 CL   UNL     1      19.697  32.007   6.649  0.00  0.00    +0.000 Cl
ATOM     15  C   UNL     1      22.644  28.743   5.629  0.00  0.00    +0.000 A 
ATOM     16  C   UNL     1      20.522  29.398   6.638  0.00  0.00    +0.000 A 
ATOM     17  C   UNL     1      21.465  28.420   6.300  0.00  0.00    +0.000 A 
ATOM     18  C   UNL     1      22.887  30.070   5.288  0.00  0.00    +0.000 A 
ATOM     19  C   UNL     1      20.784  30.723   6.285  0.00  0.00    +0.000 A 
ATOM     20  C   UNL     1      21.960  31.056   5.614  0.00  0.00    +0.000 A 
BRANCH  16  24
ATOM     21  F   UNL     1      19.263  29.383   8.663  0.00  0.00    +0.000 F 
ATOM     22  F   UNL     1      18.147  29.503   6.809  0.00  0.00    +0.000 F 
ATOM     23  F   UNL     1      19.108  27.634   7.394  0.00  0.00    +0.000 F 
ATOM     24  C   UNL     1      19.278  28.983   7.359  0.00  0.00    +0.000 C 
ENDBRANCH  16  24
ENDBRANCH   9  15
ENDBRANCH   2  10
BRANCH   3  25
ATOM     25  O   UNL     1      24.956  21.550   0.805  0.00  0.00    +0.000 OA
BRANCH  25  27
ATOM     26  N   UNL     1      21.612  19.289  -0.250  0.00  0.00    +0.000 NA
ATOM     27  C   UNL     1      23.870  20.754   0.517  0.00  0.00    +0.000 A 
ATOM     28  C   UNL     1      23.043  20.206   1.492  0.00  0.00    +0.000 A 
ATOM     29  C   UNL     1      21.945  19.481   1.058  0.00  0.00    +0.000 A 
ATOM     30  C   UNL     1      23.559  20.605  -0.831  0.00  0.00    +0.000 A 
ATOM     31  C   UNL     1      22.434  19.865  -1.158  0.00  0.00    +0.000 A 
BRANCH  29  34
ATOM     32  O   UNL     1      19.923  18.484   1.746  0.00  0.00    +0.000 OA
ATOM     33  N   UNL     1      21.643  18.744   3.308  0.00  0.00    +0.000 N 
ATOM     34  C   UNL     1      21.052  18.847   2.061  0.00  0.00    +0.000 C 
ATOM     35  C   UNL     1      21.157  18.213   4.553  0.00  0.00    +0.000 C 
ATOM     36  H   UNL     1      22.592  19.114   3.355  0.00  0.00    +0.000 HD
ENDBRANCH  29  34
ENDBRANCH  25  27
ENDBRANCH   3  25
TORSDOF 6
ENDMDL
MODEL 3
REMARK VINA RESULT:      -6.8     29.967     33.357
REMARK  Name = 11167602_Regorafenib.pdbqt.pdb
REMARK  6 active torsions:
REMARK  status: ('A' for Active; 'I' for Inactive)
REMARK    1  A    between atoms: C_2  and  N_10
REMARK    2  A    between atoms: C_3  and  O_25
REMARK    3  A    between atoms: N_9  and  C_15
REMARK    4  A    between atoms: C_16  and  C_24
REMARK    5  A    between atoms: O_25  and  C_27
REMARK    6  A    between atoms: C_29  and  C_34
REMARK                            x       y       z     vdW  Elec       q    Type
REMARK                         _______ _______ _______ _____ _____    ______ ____
ROOT
ATOM      1  F   UNL     1      24.471  -5.801  22.719  0.00  0.00    +0.000 F 
ATOM      2  C   UNL     1      26.599  -4.953  23.312  0.00  0.00    +0.000 A 
ATOM      3  C   UNL     1      27.746  -6.712  21.467  0.00  0.00    +0.000 A 
ATOM      4  C   UNL     1      25.803  -5.820  22.558  0.00  0.00    +0.000 A 
ATOM      5  C   UNL     1      27.983  -4.994  23.144  0.00  0.00    +0.000 A 
ATOM      6  C   UNL     1      26.363  -6.709  21.647  0.00  0.00    +0.000 A 
ATOM      7  C   UNL     1      28.559  -5.880  22.234  0.00  0.00    +0.000 A 
ENDROOT
BRANCH   2  10
ATOM      8  O   UNL     1      26.521  -5.077  26.213  0.00  0.00    +0.000 OA
ATOM      9  N   UNL     1      25.275  -3.130  26.173  0.00  0.00    +0.000 N 
ATOM     10  N   UNL     1      25.963  -4.070  24.211  0.00  0.00    +0.000 N 
ATOM     11  C   UNL     1      25.972  -4.177  25.591  0.00  0.00    +0.000 C 
ATOM     12  H   UNL     1      24.886  -2.425  25.564  0.00  0.00    +0.000 HD
ATOM     13  H   UNL     1      25.451  -3.309  23.787  0.00  0.00    +0.000 HD
BRANCH   9  15
ATOM     14 CL   UNL     1      24.536  -2.222  31.977  0.00  0.00    +0.000 Cl
ATOM     15  C   UNL     1      25.084  -2.944  27.555  0.00  0.00    +0.000 A 
ATOM     16  C   UNL     1      25.433  -1.505  29.494  0.00  0.00    +0.000 A 
ATOM     17  C   UNL     1      25.579  -1.772  28.127  0.00  0.00    +0.000 A 
ATOM     18  C   UNL     1      24.428  -3.867  28.364  0.00  0.00    +0.000 A 
ATOM     19  C   UNL     1      24.773  -2.445  30.287  0.00  0.00    +0.000 A 
ATOM     20  C   UNL     1      24.274  -3.620  29.724  0.00  0.00    +0.000 A 
BRANCH  16  24
ATOM     21  F   UNL     1      26.802  -0.424  31.120  0.00  0.00    +0.000 F 
ATOM     22  F   UNL     1      26.742   0.455  29.139  0.00  0.00    +0.000 F 
ATOM     23  F   UNL     1      25.023   0.630  30.471  0.00  0.00    +0.000 F 
ATOM     24  C   UNL     1      25.988  -0.229  30.043  0.00  0.00    +0.000 C 
ENDBRANCH  16  24
ENDBRANCH   9  15
ENDBRANCH   2  10
BRANCH   3  25
ATOM     25  O   UNL     1      28.373  -7.615  20.641  0.00  0.00    +0.000 OA
BRANCH  25  27
ATOM     26  N   UNL     1      28.143  -7.259  16.490  0.00  0.00    +0.000 NA
ATOM     27  C   UNL     1      28.261  -7.427  19.281  0.00  0.00    +0.000 A 
ATOM     28  C   UNL     1      28.481  -6.204  18.657  0.00  0.00    +0.000 A 
ATOM     29  C   UNL     1      28.400  -6.174  17.275  0.00  0.00    +0.000 A 
ATOM     30  C   UNL     1      28.017  -8.568  18.522  0.00  0.00    +0.000 A 
ATOM     31  C   UNL     1      27.962  -8.429  17.144  0.00  0.00    +0.000 A 
BRANCH  29  34
ATOM     32  O   UNL     1      29.720  -4.513  16.246  0.00  0.00    +0.000 OA
ATOM     33  N   UNL     1      27.403  -4.216  16.341  0.00  0.00    +0.000 N 
ATOM     34  C   UNL     1      28.595  -4.884  16.565  0.00  0.00    +0.000 C 
ATOM     35  C   UNL     1      27.120  -2.958  15.706  0.00  0.00    +0.000 C 
ATOM     36  H   UNL     1      26.578  -4.701  16.693  0.00  0.00    +0.000 HD
ENDBRANCH  29  34
ENDBRANCH  25  27
ENDBRANCH   3  25
TORSDOF 6
ENDMDL
MODEL 4
REMARK VINA RESULT:      -6.8      5.679      8.458
REMARK  Name = 11167602_Regorafenib.pdbqt.pdb
REMARK  6 active torsions:
REMARK  status: ('A' for Active; 'I' for Inactive)
REMARK    1  A    between atoms: C_2  and  N_10
REMARK    2  A    between atoms: C_3  and  O_25
REMARK    3  A    between atoms: N_9  and  C_15
REMARK    4  A    between atoms: C_16  and  C_24
REMARK    5  A    between atoms: O_25  and  C_27
REMARK    6  A    between atoms: C_29  and  C_34
REMARK                            x       y       z     vdW  Elec       q    Type
REMARK                         _______ _______ _______ _____ _____    ______ ____
ROOT
ATOM      1  F   UNL     1      23.183  25.133   0.786  0.00  0.00    +0.000 F 
ATOM      2  C   UNL     1      24.528  23.341   1.545  0.00  0.00    +0.000 A 
ATOM      3  C   UNL     1      22.340  22.399   3.007  0.00  0.00    +0.000 A 
ATOM      4  C   UNL     1      23.307  24.019   1.524  0.00  0.00    +0.000 A 
ATOM      5  C   UNL     1      24.645  22.193   2.328  0.00  0.00    +0.000 A 
ATOM      6  C   UNL     1      22.214  23.568   2.257  0.00  0.00    +0.000 A 
ATOM      7  C   UNL     1      23.559  21.728   3.069  0.00  0.00    +0.000 A 
ENDROOT
BRANCH   2  10
ATOM      8  O   UNL     1      25.578  22.325  -0.965  0.00  0.00    +0.000 OA
ATOM      9  N   UNL     1      27.080  24.083  -0.945  0.00  0.00    +0.000 N 
ATOM     10  N   UNL     1      25.591  23.850   0.769  0.00  0.00    +0.000 N 
ATOM     11  C   UNL     1      26.039  23.325  -0.431  0.00  0.00    +0.000 C 
ATOM     12  H   UNL     1      27.360  24.908  -0.434  0.00  0.00    +0.000 HD
ATOM     13  H   UNL     1      26.060  24.660   1.149  0.00  0.00    +0.000 HD
BRANCH   9  15
ATOM     14 CL   UNL     1      30.084  22.923  -5.913  0.00  0.00    +0.000 Cl
ATOM     15  C   UNL     1      27.768  23.820  -2.144  0.00  0.00    +0.000 A 
ATOM     16  C   UNL     1      29.802  22.976  -3.192  0.00  0.00    +0.000 A 
ATOM     17  C   UNL     1      29.047  23.270  -2.051  0.00  0.00    +0.000 A 
ATOM     18  C   UNL     1      27.233  24.079  -3.401  0.00  0.00    +0.000 A 
ATOM     19  C   UNL     1      29.247  23.245  -4.444  0.00  0.00    +0.000 A 
ATOM     20  C   UNL     1      27.969  23.794  -4.547  0.00  0.00    +0.000 A 
BRANCH  16  24
ATOM     21  F   UNL     1      31.322  21.206  -3.687  0.00  0.00    +0.000 F 
ATOM     22  F   UNL     1      32.157  23.196  -3.487  0.00  0.00    +0.000 F 
ATOM     23  F   UNL     1      31.470  22.111  -1.724  0.00  0.00    +0.000 F 
ATOM     24  C   UNL     1      31.167  22.386  -3.021  0.00  0.00    +0.000 C 
ENDBRANCH  16  24
ENDBRANCH   9  15
ENDBRANCH   2  10
BRANCH   3  25
ATOM     25  O   UNL     1      21.326  21.937   3.814  0.00  0.00    +0.000 OA
BRANCH  25  27
ATOM     26  N   UNL     1      19.107  18.741   2.308  0.00  0.00    +0.000 NA
ATOM     27  C   UNL     1      20.528  20.926   3.329  0.00  0.00    +0.000 A 
ATOM     28  C   UNL     1      19.435  21.145   2.497  0.00  0.00    +0.000 A 
ATOM     29  C   UNL     1      18.761  20.030   2.028  0.00  0.00    +0.000 A 
ATOM     30  C   UNL     1      20.934  19.628   3.624  0.00  0.00    +0.000 A 
ATOM     31  C   UNL     1      20.193  18.582   3.099  0.00  0.00    +0.000 A 
BRANCH  29  34
ATOM     32  O   UNL     1      17.668  20.152  -0.057  0.00  0.00    +0.000 OA
ATOM     33  N   UNL     1      16.415  20.453   1.894  0.00  0.00    +0.000 N 
ATOM     34  C   UNL     1      17.567  20.215   1.164  0.00  0.00    +0.000 C 
ATOM     35  C   UNL     1      15.058  20.689   1.483  0.00  0.00    +0.000 C 
ATOM     36  H   UNL     1      16.554  20.468   2.904  0.00  0.00    +0.000 HD
ENDBRANCH  29  34
ENDBRANCH  25  27
ENDBRANCH   3  25
TORSDOF 6
ENDMDL
MODEL 5
REMARK VINA RESULT:      -6.8     30.765     33.895
REMARK  Name = 11167602_Regorafenib.pdbqt.pdb
REMARK  6 active torsions:
REMARK  status: ('A' for Active; 'I' for Inactive)
REMARK    1  A    between atoms: C_2  and  N_10
REMARK    2  A    between atoms: C_3  and  O_25
REMARK    3  A    between atoms: N_9  and  C_15
REMARK    4  A    between atoms: C_16  and  C_24
REMARK    5  A    between atoms: O_25  and  C_27
REMARK    6  A    between atoms: C_29  and  C_34
REMARK                            x       y       z     vdW  Elec       q    Type
REMARK                         _______ _______ _______ _____ _____    ______ ____
ROOT
ATOM      1  F   UNL     1      24.563  -5.412  24.119  0.00  0.00    +0.000 F 
ATOM      2  C   UNL     1      26.687  -4.370  24.179  0.00  0.00    +0.000 A 
ATOM      3  C   UNL     1      27.615  -6.297  22.380  0.00  0.00    +0.000 A 
ATOM      4  C   UNL     1      25.840  -5.376  23.707  0.00  0.00    +0.000 A 
ATOM      5  C   UNL     1      28.014  -4.355  23.753  0.00  0.00    +0.000 A 
ATOM      6  C   UNL     1      26.293  -6.349  22.822  0.00  0.00    +0.000 A 
ATOM      7  C   UNL     1      28.484  -5.323  22.865  0.00  0.00    +0.000 A 
ENDROOT
BRANCH   2  10
ATOM      8  O   UNL     1      27.016  -4.202  27.060  0.00  0.00    +0.000 OA
ATOM      9  N   UNL     1      25.722  -2.286  27.006  0.00  0.00    +0.000 N 
ATOM     10  N   UNL     1      26.157  -3.410  25.068  0.00  0.00    +0.000 N 
ATOM     11  C   UNL     1      26.361  -3.377  26.437  0.00  0.00    +0.000 C 
ATOM     12  H   UNL     1      25.233  -1.652  26.391  0.00  0.00    +0.000 HD
ATOM     13  H   UNL     1      25.569  -2.703  24.648  0.00  0.00    +0.000 HD
BRANCH   9  15
ATOM     14 CL   UNL     1      25.598  -1.019  32.788  0.00  0.00    +0.000 Cl
ATOM     15  C   UNL     1      25.719  -1.965  28.376  0.00  0.00    +0.000 A 
ATOM     16  C   UNL     1      24.658  -2.280  30.550  0.00  0.00    +0.000 A 
ATOM     17  C   UNL     1      24.735  -2.544  29.177  0.00  0.00    +0.000 A 
ATOM     18  C   UNL     1      26.645  -1.106  28.958  0.00  0.00    +0.000 A 
ATOM     19  C   UNL     1      25.597  -1.415  31.113  0.00  0.00    +0.000 A 
ATOM     20  C   UNL     1      26.585  -0.831  30.321  0.00  0.00    +0.000 A 
BRANCH  16  24
ATOM     21  F   UNL     1      22.673  -2.045  31.852  0.00  0.00    +0.000 F 
ATOM     22  F   UNL     1      22.845  -3.825  30.627  0.00  0.00    +0.000 F 
ATOM     23  F   UNL     1      24.053  -3.612  32.432  0.00  0.00    +0.000 F 
ATOM     24  C   UNL     1      23.578  -2.936  31.351  0.00  0.00    +0.000 C 
ENDBRANCH  16  24
ENDBRANCH   9  15
ENDBRANCH   2  10
BRANCH   3  25
ATOM     25  O   UNL     1      28.150  -7.268  21.566  0.00  0.00    +0.000 OA
BRANCH  25  27
ATOM     26  N   UNL     1      29.143  -6.104  17.684  0.00  0.00    +0.000 NA
ATOM     27  C   UNL     1      28.421  -6.932  20.258  0.00  0.00    +0.000 A 
ATOM     28  C   UNL     1      27.433  -6.718  19.303  0.00  0.00    +0.000 A 
ATOM     29  C   UNL     1      27.846  -6.319  18.043  0.00  0.00    +0.000 A 
ATOM     30  C   UNL     1      29.758  -6.704  19.947  0.00  0.00    +0.000 A 
ATOM     31  C   UNL     1      30.063  -6.301  18.657  0.00  0.00    +0.000 A 
BRANCH  29  34
ATOM     32  O   UNL     1      27.170  -6.009  15.805  0.00  0.00    +0.000 OA
ATOM     33  N   UNL     1      25.541  -6.045  17.481  0.00  0.00    +0.000 N 
ATOM     34  C   UNL     1      26.829  -6.109  16.979  0.00  0.00    +0.000 C 
ATOM     35  C   UNL     1      24.273  -5.853  16.832  0.00  0.00    +0.000 C 
ATOM     36  H   UNL     1      25.480  -6.149  18.494  0.00  0.00    +0.000 HD
ENDBRANCH  29  34
ENDBRANCH  25  27
ENDBRANCH   3  25
TORSDOF 6
ENDMDL
MODEL 6
REMARK VINA RESULT:      -6.7      7.247     10.236
REMARK  Name = 11167602_Regorafenib.pdbqt.pdb
REMARK  6 active torsions:
REMARK  status: ('A' for Active; 'I' for Inactive)
REMARK    1  A    between atoms: C_2  and  N_10
REMARK    2  A    between atoms: C_3  and  O_25
REMARK    3  A    between atoms: N_9  and  C_15
REMARK    4  A    between atoms: C_16  and  C_24
REMARK    5  A    between atoms: O_25  and  C_27
REMARK    6  A    between atoms: C_29  and  C_34
REMARK                            x       y       z     vdW  Elec       q    Type
REMARK                         _______ _______ _______ _____ _____    ______ ____
ROOT
ATOM      1  F   UNL     1      25.076  25.598  -1.381  0.00  0.00    +0.000 F 
ATOM      2  C   UNL     1      26.134  23.812  -0.245  0.00  0.00    +0.000 A 
ATOM      3  C   UNL     1      23.612  22.904   0.548  0.00  0.00    +0.000 A 
ATOM      4  C   UNL     1      24.974  24.496  -0.622  0.00  0.00    +0.000 A 
ATOM      5  C   UNL     1      26.013  22.676   0.554  0.00  0.00    +0.000 A 
ATOM      6  C   UNL     1      23.715  24.062  -0.223  0.00  0.00    +0.000 A 
ATOM      7  C   UNL     1      24.757  22.228   0.963  0.00  0.00    +0.000 A 
ENDROOT
BRANCH   2  10
ATOM      8  O   UNL     1      27.482  23.279  -2.762  0.00  0.00    +0.000 OA
ATOM      9  N   UNL     1      29.171  24.689  -2.052  0.00  0.00    +0.000 N 
ATOM     10  N   UNL     1      27.377  24.303  -0.695  0.00  0.00    +0.000 N 
ATOM     11  C   UNL     1      27.964  24.021  -1.917  0.00  0.00    +0.000 C 
ATOM     12  H   UNL     1      29.459  25.300  -1.302  0.00  0.00    +0.000 HD
ATOM     13  H   UNL     1      27.871  24.901  -0.046  0.00  0.00    +0.000 HD
BRANCH   9  15
ATOM     14 CL   UNL     1      32.783  24.231  -6.722  0.00  0.00    +0.000 Cl
ATOM     15  C   UNL     1      30.026  24.613  -3.167  0.00  0.00    +0.000 A 
ATOM     16  C   UNL     1      31.428  23.201  -4.579  0.00  0.00    +0.000 A 
ATOM     17  C   UNL     1      30.568  23.368  -3.486  0.00  0.00    +0.000 A 
ATOM     18  C   UNL     1      30.348  25.713  -3.956  0.00  0.00    +0.000 A 
ATOM     19  C   UNL     1      31.738  24.318  -5.356  0.00  0.00    +0.000 A 
ATOM     20  C   UNL     1      31.201  25.567  -5.045  0.00  0.00    +0.000 A 
BRANCH  16  24
ATOM     21  F   UNL     1      31.795  21.458  -6.164  0.00  0.00    +0.000 F 
ATOM     22  F   UNL     1      33.312  21.744  -4.643  0.00  0.00    +0.000 F 
ATOM     23  F   UNL     1      31.387  20.862  -4.121  0.00  0.00    +0.000 F 
ATOM     24  C   UNL     1      31.973  21.838  -4.866  0.00  0.00    +0.000 C 
ENDBRANCH  16  24
ENDBRANCH   9  15
ENDBRANCH   2  10
BRANCH   3  25
ATOM     25  O   UNL     1      22.407  22.460   1.041  0.00  0.00    +0.000 OA
BRANCH  25  27
ATOM     26  N   UNL     1      21.545  18.394   0.678  0.00  0.00    +0.000 NA
ATOM     27  C   UNL     1      22.152  21.108   0.994  0.00  0.00    +0.000 A 
ATOM     28  C   UNL     1      21.650  20.386   2.072  0.00  0.00    +0.000 A 
ATOM     29  C   UNL     1      21.377  19.044   1.864  0.00  0.00    +0.000 A 
ATOM     30  C   UNL     1      22.320  20.494  -0.243  0.00  0.00    +0.000 A 
ATOM     31  C   UNL     1      22.011  19.147  -0.345  0.00  0.00    +0.000 A 
BRANCH  29  34
ATOM     32  O   UNL     1      21.524  17.275   3.415  0.00  0.00    +0.000 OA
ATOM     33  N   UNL     1      19.641  18.660   3.458  0.00  0.00    +0.000 N 
ATOM     34  C   UNL     1      20.870  18.224   2.995  0.00  0.00    +0.000 C 
ATOM     35  C   UNL     1      18.792  18.173   4.512  0.00  0.00    +0.000 C 
ATOM     36  H   UNL     1      19.268  19.469   2.962  0.00  0.00    +0.000 HD
ENDBRANCH  29  34
ENDBRANCH  25  27
ENDBRANCH   3  25
TORSDOF 6
ENDMDL
MODEL 7
REMARK VINA RESULT:      -6.7     30.938     32.411
REMARK  Name = 11167602_Regorafenib.pdbqt.pdb
REMARK  6 active torsions:
REMARK  status: ('A' for Active; 'I' for Inactive)
REMARK    1  A    between atoms: C_2  and  N_10
REMARK    2  A    between atoms: C_3  and  O_25
REMARK    3  A    between atoms: N_9  and  C_15
REMARK    4  A    between atoms: C_16  and  C_24
REMARK    5  A    between atoms: O_25  and  C_27
REMARK    6  A    between atoms: C_29  and  C_34
REMARK                            x       y       z     vdW  Elec       q    Type
REMARK                         _______ _______ _______ _____ _____    ______ ____
ROOT
ATOM      1  F   UNL     1      39.983   7.578  23.484  0.00  0.00    +0.000 F 
ATOM      2  C   UNL     1      40.110   9.846  24.147  0.00  0.00    +0.000 A 
ATOM      3  C   UNL     1      39.248  10.578  21.591  0.00  0.00    +0.000 A 
ATOM      4  C   UNL     1      39.836   8.877  23.178  0.00  0.00    +0.000 A 
ATOM      5  C   UNL     1      39.966  11.191  23.810  0.00  0.00    +0.000 A 
ATOM      6  C   UNL     1      39.420   9.229  21.899  0.00  0.00    +0.000 A 
ATOM      7  C   UNL     1      39.549  11.560  22.532  0.00  0.00    +0.000 A 
ENDROOT
BRANCH   2  10
ATOM      8  O   UNL     1      42.799   9.287  25.089  0.00  0.00    +0.000 OA
ATOM      9  N   UNL     1      41.878   8.796  27.152  0.00  0.00    +0.000 N 
ATOM     10  N   UNL     1      40.519   9.417  25.427  0.00  0.00    +0.000 N 
ATOM     11  C   UNL     1      41.825   9.177  25.821  0.00  0.00    +0.000 C 
ATOM     12  H   UNL     1      41.012   8.767  27.670  0.00  0.00    +0.000 HD
ATOM     13  H   UNL     1      39.776   9.264  26.095  0.00  0.00    +0.000 HD
BRANCH   9  15
ATOM     14 CL   UNL     1      46.804   7.294  30.075  0.00  0.00    +0.000 Cl
ATOM     15  C   UNL     1      43.049   8.469  27.862  0.00  0.00    +0.000 A 
ATOM     16  C   UNL     1      44.751   6.788  28.338  0.00  0.00    +0.000 A 
ATOM     17  C   UNL     1      43.589   7.197  27.674  0.00  0.00    +0.000 A 
ATOM     18  C   UNL     1      43.684   9.351  28.730  0.00  0.00    +0.000 A 
ATOM     19  C   UNL     1      45.371   7.688  29.206  0.00  0.00    +0.000 A 
ATOM     20  C   UNL     1      44.839   8.962  29.401  0.00  0.00    +0.000 A 
BRANCH  16  24
ATOM     21  F   UNL     1      46.580   5.403  27.686  0.00  0.00    +0.000 F 
ATOM     22  F   UNL     1      45.239   4.619  29.197  0.00  0.00    +0.000 F 
ATOM     23  F   UNL     1      44.595   4.746  27.116  0.00  0.00    +0.000 F 
ATOM     24  C   UNL     1      45.277   5.409  28.090  0.00  0.00    +0.000 C 
ENDBRANCH  16  24
ENDBRANCH   9  15
ENDBRANCH   2  10
BRANCH   3  25
ATOM     25  O   UNL     1      38.913  11.002  20.326  0.00  0.00    +0.000 OA
BRANCH  25  27
ATOM     26  N   UNL     1      36.721   8.545  17.763  0.00  0.00    +0.000 NA
ATOM     27  C   UNL     1      38.158  10.156  19.544  0.00  0.00    +0.000 A 
ATOM     28  C   UNL     1      36.836   9.827  19.828  0.00  0.00    +0.000 A 
ATOM     29  C   UNL     1      36.175   9.019  18.919  0.00  0.00    +0.000 A 
ATOM     30  C   UNL     1      38.752   9.715  18.366  0.00  0.00    +0.000 A 
ATOM     31  C   UNL     1      37.999   8.915  17.521  0.00  0.00    +0.000 A 
BRANCH  29  34
ATOM     32  O   UNL     1      34.463   7.426  19.223  0.00  0.00    +0.000 OA
ATOM     33  N   UNL     1      33.936   9.697  19.397  0.00  0.00    +0.000 N 
ATOM     34  C   UNL     1      34.772   8.613  19.195  0.00  0.00    +0.000 C 
ATOM     35  C   UNL     1      32.529   9.776  19.683  0.00  0.00    +0.000 C 
ATOM     36  H   UNL     1      34.398  10.603  19.325  0.00  0.00    +0.000 HD
ENDBRANCH  29  34
ENDBRANCH  25  27
ENDBRANCH   3  25
TORSDOF 6
ENDMDL
MODEL 8
REMARK VINA RESULT:      -6.6     17.008     21.854
REMARK  Name = 11167602_Regorafenib.pdbqt.pdb
REMARK  6 active torsions:
REMARK  status: ('A' for Active; 'I' for Inactive)
REMARK    1  A    between atoms: C_2  and  N_10
REMARK    2  A    between atoms: C_3  and  O_25
REMARK    3  A    between atoms: N_9  and  C_15
REMARK    4  A    between atoms: C_16  and  C_24
REMARK    5  A    between atoms: O_25  and  C_27
REMARK    6  A    between atoms: C_29  and  C_34
REMARK                            x       y       z     vdW  Elec       q    Type
REMARK                         _______ _______ _______ _____ _____    ______ ____
ROOT
ATOM      1  F   UNL     1      15.732  -2.163   9.519  0.00  0.00    +0.000 F 
ATOM      2  C   UNL     1      14.248  -0.758  10.713  0.00  0.00    +0.000 A 
ATOM      3  C   UNL     1      14.679  -2.335  12.980  0.00  0.00    +0.000 A 
ATOM      4  C   UNL     1      15.104  -1.862  10.666  0.00  0.00    +0.000 A 
ATOM      5  C   UNL     1      13.592  -0.468  11.908  0.00  0.00    +0.000 A 
ATOM      6  C   UNL     1      15.316  -2.662  11.784  0.00  0.00    +0.000 A 
ATOM      7  C   UNL     1      13.795  -1.260  13.038  0.00  0.00    +0.000 A 
ENDROOT
BRANCH   2  10
ATOM      8  O   UNL     1      16.118   1.113   9.515  0.00  0.00    +0.000 OA
ATOM      9  N   UNL     1      14.560   1.461   7.843  0.00  0.00    +0.000 N 
ATOM     10  N   UNL     1      14.087   0.014   9.543  0.00  0.00    +0.000 N 
ATOM     11  C   UNL     1      15.026   0.884   9.014  0.00  0.00    +0.000 C 
ATOM     12  H   UNL     1      13.653   1.176   7.504  0.00  0.00    +0.000 HD
ATOM     13  H   UNL     1      13.197  -0.081   9.075  0.00  0.00    +0.000 HD
BRANCH   9  15
ATOM     14 CL   UNL     1      17.513   5.487   4.659  0.00  0.00    +0.000 Cl
ATOM     15  C   UNL     1      15.260   2.398   7.059  0.00  0.00    +0.000 A 
ATOM     16  C   UNL     1      16.333   4.586   6.958  0.00  0.00    +0.000 A 
ATOM     17  C   UNL     1      15.634   3.599   7.662  0.00  0.00    +0.000 A 
ATOM     18  C   UNL     1      15.593   2.178   5.726  0.00  0.00    +0.000 A 
ATOM     19  C   UNL     1      16.656   4.346   5.621  0.00  0.00    +0.000 A 
ATOM     20  C   UNL     1      16.287   3.148   5.010  0.00  0.00    +0.000 A 
BRANCH  16  24
ATOM     21  F   UNL     1      16.054   6.945   7.175  0.00  0.00    +0.000 F 
ATOM     22  F   UNL     1      16.411   5.822   8.994  0.00  0.00    +0.000 F 
ATOM     23  F   UNL     1      18.029   6.147   7.568  0.00  0.00    +0.000 F 
ATOM     24  C   UNL     1      16.705   5.851   7.666  0.00  0.00    +0.000 C 
ENDBRANCH  16  24
ENDBRANCH   9  15
ENDBRANCH   2  10
BRANCH   3  25
ATOM     25  O   UNL     1      14.783  -3.124  14.102  0.00  0.00    +0.000 OA
BRANCH  25  27
ATOM     26  N   UNL     1      18.140  -2.859  16.565  0.00  0.00    +0.000 NA
ATOM     27  C   UNL     1      15.889  -2.957  14.904  0.00  0.00    +0.000 A 
ATOM     28  C   UNL     1      16.018  -1.924  15.827  0.00  0.00    +0.000 A 
ATOM     29  C   UNL     1      17.156  -1.917  16.616  0.00  0.00    +0.000 A 
ATOM     30  C   UNL     1      16.856  -3.955  14.830  0.00  0.00    +0.000 A 
ATOM     31  C   UNL     1      17.955  -3.856  15.670  0.00  0.00    +0.000 A 
BRANCH  29  34
ATOM     32  O   UNL     1      17.904   0.227  17.251  0.00  0.00    +0.000 OA
ATOM     33  N   UNL     1      16.864  -1.125  18.850  0.00  0.00    +0.000 N 
ATOM     34  C   UNL     1      17.354  -0.815  17.593  0.00  0.00    +0.000 C 
ATOM     35  C   UNL     1      16.845  -0.376  20.077  0.00  0.00    +0.000 C 
ATOM     36  H   UNL     1      16.446  -2.052  18.920  0.00  0.00    +0.000 HD
ENDBRANCH  29  34
ENDBRANCH  25  27
ENDBRANCH   3  25
TORSDOF 6
ENDMDL
MODEL 9
REMARK VINA RESULT:      -6.5     28.111     30.438
REMARK  Name = 11167602_Regorafenib.pdbqt.pdb
REMARK  6 active torsions:
REMARK  status: ('A' for Active; 'I' for Inactive)
REMARK    1  A    between atoms: C_2  and  N_10
REMARK    2  A    between atoms: C_3  and  O_25
REMARK    3  A    between atoms: N_9  and  C_15
REMARK    4  A    between atoms: C_16  and  C_24
REMARK    5  A    between atoms: O_25  and  C_27
REMARK    6  A    between atoms: C_29  and  C_34
REMARK                            x       y       z     vdW  Elec       q    Type
REMARK                         _______ _______ _______ _____ _____    ______ ____
ROOT
ATOM      1  F   UNL     1      15.447   9.162  28.599  0.00  0.00    +0.000 F 
ATOM      2  C   UNL     1      13.396   7.982  28.642  0.00  0.00    +0.000 A 
ATOM      3  C   UNL     1      12.526   9.691  30.675  0.00  0.00    +0.000 A 
ATOM      4  C   UNL     1      14.222   9.000  29.125  0.00  0.00    +0.000 A 
ATOM      5  C   UNL     1      12.133   7.818  29.209  0.00  0.00    +0.000 A 
ATOM      6  C   UNL     1      13.806   9.849  30.145  0.00  0.00    +0.000 A 
ATOM      7  C   UNL     1      11.701   8.661  30.232  0.00  0.00    +0.000 A 
ENDROOT
BRANCH   2  10
ATOM      8  O   UNL     1      14.295   5.223  28.779  0.00  0.00    +0.000 OA
ATOM      9  N   UNL     1      14.675   5.328  26.501  0.00  0.00    +0.000 N 
ATOM     10  N   UNL     1      13.880   7.164  27.599  0.00  0.00    +0.000 N 
ATOM     11  C   UNL     1      14.284   5.846  27.726  0.00  0.00    +0.000 C 
ATOM     12  H   UNL     1      14.597   5.924  25.690  0.00  0.00    +0.000 HD
ATOM     13  H   UNL     1      13.941   7.605  26.691  0.00  0.00    +0.000 HD
BRANCH   9  15
ATOM     14 CL   UNL     1      16.804  -0.115  25.555  0.00  0.00    +0.000 Cl
ATOM     15  C   UNL     1      15.150   4.022  26.281  0.00  0.00    +0.000 A 
ATOM     16  C   UNL     1      17.065   2.601  25.768  0.00  0.00    +0.000 A 
ATOM     17  C   UNL     1      16.508   3.863  25.999  0.00  0.00    +0.000 A 
ATOM     18  C   UNL     1      14.334   2.897  26.332  0.00  0.00    +0.000 A 
ATOM     19  C   UNL     1      16.228   1.484  25.823  0.00  0.00    +0.000 A 
ATOM     20  C   UNL     1      14.870   1.633  26.103  0.00  0.00    +0.000 A 
BRANCH  16  24
ATOM     21  F   UNL     1      19.186   1.662  26.324  0.00  0.00    +0.000 F 
ATOM     22  F   UNL     1      18.788   2.024  24.225  0.00  0.00    +0.000 F 
ATOM     23  F   UNL     1      19.174   3.694  25.573  0.00  0.00    +0.000 F 
ATOM     24  C   UNL     1      18.529   2.501  25.472  0.00  0.00    +0.000 C 
ENDBRANCH  16  24
ENDBRANCH   9  15
ENDBRANCH   2  10
BRANCH   3  25
ATOM     25  O   UNL     1      12.077  10.444  31.735  0.00  0.00    +0.000 OA
BRANCH  25  27
ATOM     26  N   UNL     1      14.136  10.231  35.358  0.00  0.00    +0.000 NA
ATOM     27  C   UNL     1      12.723  10.302  32.943  0.00  0.00    +0.000 A 
ATOM     28  C   UNL     1      13.292   9.108  33.372  0.00  0.00    +0.000 A 
ATOM     29  C   UNL     1      13.971   9.125  34.579  0.00  0.00    +0.000 A 
ATOM     30  C   UNL     1      12.884  11.463  33.693  0.00  0.00    +0.000 A 
ATOM     31  C   UNL     1      13.586  11.373  34.884  0.00  0.00    +0.000 A 
BRANCH  29  34
ATOM     32  O   UNL     1      14.526   7.604  36.292  0.00  0.00    +0.000 OA
ATOM     33  N   UNL     1      15.133   7.097  34.092  0.00  0.00    +0.000 N 
ATOM     34  C   UNL     1      14.567   7.866  35.094  0.00  0.00    +0.000 C 
ATOM     35  C   UNL     1      15.811   5.830  34.130  0.00  0.00    +0.000 C 
ATOM     36  H   UNL     1      15.060   7.503  33.160  0.00  0.00    +0.000 HD
ENDBRANCH  29  34
ENDBRANCH  25  27
ENDBRANCH   3  25
TORSDOF 6
ENDMDL
