MODEL 1
REMARK VINA RESULT:      -7.3      0.000      0.000
REMARK  Name = 114778_Kahweol.pdbqt.pdb
REMARK  3 active torsions:
REMARK  status: ('A' for Active; 'I' for Inactive)
REMARK    1  A    between atoms: C_8  and  O_21
REMARK    2  A    between atoms: C_8  and  C_23
REMARK    3  A    between atoms: C_23  and  O_24
REMARK                            x       y       z     vdW  Elec       q    Type
REMARK                         _______ _______ _______ _____ _____    ______ ____
ROOT
ATOM      1  O   UNL     1      48.563  -1.029  11.536  0.00  0.00    +0.000 OA
ATOM      2  C   UNL     1      43.782  -5.017  12.216  0.00  0.00    +0.000 C 
ATOM      3  C   UNL     1      43.871  -3.705  11.321  0.00  0.00    +0.000 C 
ATOM      4  C   UNL     1      41.935  -5.937  11.002  0.00  0.00    +0.000 C 
ATOM      5  C   UNL     1      42.341  -5.375  12.302  0.00  0.00    +0.000 C 
ATOM      6  C   UNL     1      44.189  -6.175  11.389  0.00  0.00    +0.000 C 
ATOM      7  C   UNL     1      44.534  -2.419  11.828  0.00  0.00    +0.000 C 
ATOM      8  C   UNL     1      43.131  -6.928  10.686  0.00  0.00    +0.000 C 
ATOM      9  C   UNL     1      44.533  -4.817  13.428  0.00  0.00    +0.000 C 
ATOM     10  C   UNL     1      42.884  -3.714  10.253  0.00  0.00    +0.000 C 
ATOM     11  C   UNL     1      41.829  -4.814  10.082  0.00  0.00    +0.000 C 
ATOM     12  C   UNL     1      45.645  -2.612  12.999  0.00  0.00    +0.000 C 
ATOM     13  C   UNL     1      45.450  -3.717  13.859  0.00  0.00    +0.000 C 
ATOM     14  C   UNL     1      43.435  -1.475  12.415  0.00  0.00    +0.000 C 
ATOM     15  C   UNL     1      45.260  -1.768  10.702  0.00  0.00    +0.000 C 
ATOM     16  C   UNL     1      46.960  -2.059  12.772  0.00  0.00    +0.000 A 
ATOM     17  C   UNL     1      46.365  -1.337  10.527  0.00  0.00    +0.000 C 
ATOM     18  C   UNL     1      47.290  -1.448  11.580  0.00  0.00    +0.000 A 
ATOM     19  C   UNL     1      48.141  -2.017  13.540  0.00  0.00    +0.000 A 
ATOM     20  C   UNL     1      49.090  -1.373  12.756  0.00  0.00    +0.000 A 
ENDROOT
BRANCH   8  21
ATOM     21  O   UNL     1      42.925  -8.168  11.340  0.00  0.00    +0.000 OA
ATOM     22  H   UNL     1      42.369  -7.972  12.112  0.00  0.00    +0.000 HD
ENDBRANCH   8  21
BRANCH   8  23
ATOM     23  C   UNL     1      43.362  -7.157   9.254  0.00  0.00    +0.000 C 
BRANCH  23  24
ATOM     24  O   UNL     1      43.565  -7.381   7.955  0.00  0.00    +0.000 OA
ATOM     25  H   UNL     1      42.972  -8.079   7.626  0.00  0.00    +0.000 HD
ENDBRANCH  23  24
ENDBRANCH   8  23
TORSDOF 3
ENDMDL
MODEL 2
REMARK VINA RESULT:      -6.8      1.906      2.677
REMARK  Name = 114778_Kahweol.pdbqt.pdb
REMARK  3 active torsions:
REMARK  status: ('A' for Active; 'I' for Inactive)
REMARK    1  A    between atoms: C_8  and  O_21
REMARK    2  A    between atoms: C_8  and  C_23
REMARK    3  A    between atoms: C_23  and  O_24
REMARK                            x       y       z     vdW  Elec       q    Type
REMARK                         _______ _______ _______ _____ _____    ______ ____
ROOT
ATOM      1  O   UNL     1      47.652   0.459   9.390  0.00  0.00    +0.000 OA
ATOM      2  C   UNL     1      45.364  -5.100  11.143  0.00  0.00    +0.000 C 
ATOM      3  C   UNL     1      45.059  -3.659  11.743  0.00  0.00    +0.000 C 
ATOM      4  C   UNL     1      43.393  -6.098  12.065  0.00  0.00    +0.000 C 
ATOM      5  C   UNL     1      44.863  -6.088  12.138  0.00  0.00    +0.000 C 
ATOM      6  C   UNL     1      44.357  -5.394  10.100  0.00  0.00    +0.000 C 
ATOM      7  C   UNL     1      46.163  -2.616  11.953  0.00  0.00    +0.000 C 
ATOM      8  C   UNL     1      43.142  -6.132  10.500  0.00  0.00    +0.000 C 
ATOM      9  C   UNL     1      46.739  -5.158  10.722  0.00  0.00    +0.000 C 
ATOM     10  C   UNL     1      43.804  -3.635  12.477  0.00  0.00    +0.000 C 
ATOM     11  C   UNL     1      42.939  -4.879  12.718  0.00  0.00    +0.000 C 
ATOM     12  C   UNL     1      47.478  -2.781  11.013  0.00  0.00    +0.000 C 
ATOM     13  C   UNL     1      47.791  -4.100  10.614  0.00  0.00    +0.000 C 
ATOM     14  C   UNL     1      46.667  -2.697  13.431  0.00  0.00    +0.000 C 
ATOM     15  C   UNL     1      45.624  -1.264  11.641  0.00  0.00    +0.000 C 
ATOM     16  C   UNL     1      47.882  -1.641  10.222  0.00  0.00    +0.000 A 
ATOM     17  C   UNL     1      45.965  -0.339  10.959  0.00  0.00    +0.000 C 
ATOM     18  C   UNL     1      47.146  -0.474  10.208  0.00  0.00    +0.000 A 
ATOM     19  C   UNL     1      48.945  -1.409   9.325  0.00  0.00    +0.000 A 
ATOM     20  C   UNL     1      48.775  -0.116   8.849  0.00  0.00    +0.000 A 
ENDROOT
BRANCH   8  21
ATOM     21  O   UNL     1      43.223  -7.463  10.020  0.00  0.00    +0.000 OA
ATOM     22  H   UNL     1      44.076  -7.528   9.561  0.00  0.00    +0.000 HD
ENDBRANCH   8  21
BRANCH   8  23
ATOM     23  C   UNL     1      41.870  -5.531  10.080  0.00  0.00    +0.000 C 
BRANCH  23  24
ATOM     24  O   UNL     1      40.715  -4.995   9.684  0.00  0.00    +0.000 OA
ATOM     25  H   UNL     1      39.963  -5.554   9.949  0.00  0.00    +0.000 HD
ENDBRANCH  23  24
ENDBRANCH   8  23
TORSDOF 3
ENDMDL
MODEL 3
REMARK VINA RESULT:      -6.4     34.296     36.318
REMARK  Name = 114778_Kahweol.pdbqt.pdb
REMARK  3 active torsions:
REMARK  status: ('A' for Active; 'I' for Inactive)
REMARK    1  A    between atoms: C_8  and  O_21
REMARK    2  A    between atoms: C_8  and  C_23
REMARK    3  A    between atoms: C_23  and  O_24
REMARK                            x       y       z     vdW  Elec       q    Type
REMARK                         _______ _______ _______ _____ _____    ______ ____
ROOT
ATOM      1  O   UNL     1      17.848  19.787  -3.824  0.00  0.00    +0.000 OA
ATOM      2  C   UNL     1      21.463  19.557   1.284  0.00  0.00    +0.000 C 
ATOM      3  C   UNL     1      20.242  20.526   0.965  0.00  0.00    +0.000 C 
ATOM      4  C   UNL     1      21.378  19.934   3.647  0.00  0.00    +0.000 C 
ATOM      5  C   UNL     1      22.189  20.155   2.438  0.00  0.00    +0.000 C 
ATOM      6  C   UNL     1      20.945  18.377   2.011  0.00  0.00    +0.000 C 
ATOM      7  C   UNL     1      20.041  21.149  -0.421  0.00  0.00    +0.000 C 
ATOM      8  C   UNL     1      20.959  18.413   3.487  0.00  0.00    +0.000 C 
ATOM      9  C   UNL     1      22.180  19.280   0.067  0.00  0.00    +0.000 C 
ATOM     10  C   UNL     1      19.681  21.102   2.176  0.00  0.00    +0.000 C 
ATOM     11  C   UNL     1      20.267  20.871   3.575  0.00  0.00    +0.000 C 
ATOM     12  C   UNL     1      20.708  20.341  -1.663  0.00  0.00    +0.000 C 
ATOM     13  C   UNL     1      21.873  19.599  -1.362  0.00  0.00    +0.000 C 
ATOM     14  C   UNL     1      20.675  22.578  -0.436  0.00  0.00    +0.000 C 
ATOM     15  C   UNL     1      18.584  21.202  -0.725  0.00  0.00    +0.000 C 
ATOM     16  C   UNL     1      19.846  19.972  -2.762  0.00  0.00    +0.000 A 
ATOM     17  C   UNL     1      17.884  20.866  -1.638  0.00  0.00    +0.000 C 
ATOM     18  C   UNL     1      18.492  20.233  -2.737  0.00  0.00    +0.000 A 
ATOM     19  C   UNL     1      20.062  19.298  -3.981  0.00  0.00    +0.000 A 
ATOM     20  C   UNL     1      18.823  19.215  -4.603  0.00  0.00    +0.000 A 
ENDROOT
BRANCH   8  21
ATOM     21  O   UNL     1      21.991  17.568   3.967  0.00  0.00    +0.000 OA
ATOM     22  H   UNL     1      21.628  16.667   3.945  0.00  0.00    +0.000 HD
ENDBRANCH   8  21
BRANCH   8  23
ATOM     23  C   UNL     1      19.691  18.065   4.141  0.00  0.00    +0.000 C 
BRANCH  23  24
ATOM     24  O   UNL     1      18.538  17.767   4.741  0.00  0.00    +0.000 OA
ATOM     25  H   UNL     1      17.892  17.423   4.099  0.00  0.00    +0.000 HD
ENDBRANCH  23  24
ENDBRANCH   8  23
TORSDOF 3
ENDMDL
MODEL 4
REMARK VINA RESULT:      -6.3     33.690     35.362
REMARK  Name = 114778_Kahweol.pdbqt.pdb
REMARK  3 active torsions:
REMARK  status: ('A' for Active; 'I' for Inactive)
REMARK    1  A    between atoms: C_8  and  O_21
REMARK    2  A    between atoms: C_8  and  C_23
REMARK    3  A    between atoms: C_23  and  O_24
REMARK                            x       y       z     vdW  Elec       q    Type
REMARK                         _______ _______ _______ _____ _____    ______ ____
ROOT
ATOM      1  O   UNL     1      26.201  23.275  -2.740  0.00  0.00    +0.000 OA
ATOM      2  C   UNL     1      22.950  21.727   2.384  0.00  0.00    +0.000 C 
ATOM      3  C   UNL     1      22.412  22.160   0.951  0.00  0.00    +0.000 C 
ATOM      4  C   UNL     1      20.891  20.702   3.046  0.00  0.00    +0.000 C 
ATOM      5  C   UNL     1      21.797  21.830   3.319  0.00  0.00    +0.000 C 
ATOM      6  C   UNL     1      23.056  20.252   2.417  0.00  0.00    +0.000 C 
ATOM      7  C   UNL     1      23.056  23.298   0.151  0.00  0.00    +0.000 C 
ATOM      8  C   UNL     1      21.904  19.487   2.936  0.00  0.00    +0.000 C 
ATOM      9  C   UNL     1      24.161  22.450   2.675  0.00  0.00    +0.000 C 
ATOM     10  C   UNL     1      21.042  21.723   0.736  0.00  0.00    +0.000 C 
ATOM     11  C   UNL     1      20.198  21.019   1.806  0.00  0.00    +0.000 C 
ATOM     12  C   UNL     1      24.611  23.617   0.503  0.00  0.00    +0.000 C 
ATOM     13  C   UNL     1      25.012  23.344   1.830  0.00  0.00    +0.000 C 
ATOM     14  C   UNL     1      22.265  24.620   0.417  0.00  0.00    +0.000 C 
ATOM     15  C   UNL     1      23.046  22.945  -1.296  0.00  0.00    +0.000 C 
ATOM     16  C   UNL     1      25.560  23.604  -0.587  0.00  0.00    +0.000 A 
ATOM     17  C   UNL     1      23.855  22.918  -2.180  0.00  0.00    +0.000 C 
ATOM     18  C   UNL     1      25.181  23.269  -1.870  0.00  0.00    +0.000 A 
ATOM     19  C   UNL     1      26.947  23.839  -0.668  0.00  0.00    +0.000 A 
ATOM     20  C   UNL     1      27.296  23.640  -1.997  0.00  0.00    +0.000 A 
ENDROOT
BRANCH   8  21
ATOM     21  O   UNL     1      22.214  18.989   4.225  0.00  0.00    +0.000 OA
ATOM     22  H   UNL     1      22.262  18.023   4.132  0.00  0.00    +0.000 HD
ENDBRANCH   8  21
BRANCH   8  23
ATOM     23  C   UNL     1      21.437  18.389   2.080  0.00  0.00    +0.000 C 
BRANCH  23  24
ATOM     24  O   UNL     1      21.025  17.381   1.311  0.00  0.00    +0.000 OA
ATOM     25  H   UNL     1      20.730  16.628   1.853  0.00  0.00    +0.000 HD
ENDBRANCH  23  24
ENDBRANCH   8  23
TORSDOF 3
ENDMDL
MODEL 5
REMARK VINA RESULT:      -6.2     34.967     36.703
REMARK  Name = 114778_Kahweol.pdbqt.pdb
REMARK  3 active torsions:
REMARK  status: ('A' for Active; 'I' for Inactive)
REMARK    1  A    between atoms: C_8  and  O_21
REMARK    2  A    between atoms: C_8  and  C_23
REMARK    3  A    between atoms: C_23  and  O_24
REMARK                            x       y       z     vdW  Elec       q    Type
REMARK                         _______ _______ _______ _____ _____    ______ ____
ROOT
ATOM      1  O   UNL     1      27.321  19.264  34.011  0.00  0.00    +0.000 OA
ATOM      2  C   UNL     1      21.702  17.091  32.303  0.00  0.00    +0.000 C 
ATOM      3  C   UNL     1      22.976  17.390  31.399  0.00  0.00    +0.000 C 
ATOM      4  C   UNL     1      20.670  15.654  30.689  0.00  0.00    +0.000 C 
ATOM      5  C   UNL     1      20.547  16.952  31.375  0.00  0.00    +0.000 C 
ATOM      6  C   UNL     1      21.748  15.672  32.720  0.00  0.00    +0.000 C 
ATOM      7  C   UNL     1      23.846  18.634  31.607  0.00  0.00    +0.000 C 
ATOM      8  C   UNL     1      21.034  14.683  31.888  0.00  0.00    +0.000 C 
ATOM      9  C   UNL     1      21.639  18.057  33.368  0.00  0.00    +0.000 C 
ATOM     10  C   UNL     1      22.921  16.670  30.136  0.00  0.00    +0.000 C 
ATOM     11  C   UNL     1      21.729  15.809  29.702  0.00  0.00    +0.000 C 
ATOM     12  C   UNL     1      23.810  19.280  33.099  0.00  0.00    +0.000 C 
ATOM     13  C   UNL     1      22.605  19.107  33.817  0.00  0.00    +0.000 C 
ATOM     14  C   UNL     1      23.373  19.759  30.631  0.00  0.00    +0.000 C 
ATOM     15  C   UNL     1      25.272  18.278  31.369  0.00  0.00    +0.000 C 
ATOM     16  C   UNL     1      25.071  19.463  33.780  0.00  0.00    +0.000 A 
ATOM     17  C   UNL     1      26.305  18.419  31.962  0.00  0.00    +0.000 C 
ATOM     18  C   UNL     1      26.261  19.046  33.220  0.00  0.00    +0.000 A 
ATOM     19  C   UNL     1      25.427  19.988  35.039  0.00  0.00    +0.000 A 
ATOM     20  C   UNL     1      26.806  19.859  35.136  0.00  0.00    +0.000 A 
ENDROOT
BRANCH   8  21
ATOM     21  O   UNL     1      19.856  14.270  32.558  0.00  0.00    +0.000 OA
ATOM     22  H   UNL     1      19.387  13.689  31.937  0.00  0.00    +0.000 HD
ENDBRANCH   8  21
BRANCH   8  23
ATOM     23  C   UNL     1      21.817  13.505  31.493  0.00  0.00    +0.000 C 
BRANCH  23  24
ATOM     24  O   UNL     1      22.538  12.446  31.124  0.00  0.00    +0.000 OA
ATOM     25  H   UNL     1      22.942  12.014  31.897  0.00  0.00    +0.000 HD
ENDBRANCH  23  24
ENDBRANCH   8  23
TORSDOF 3
ENDMDL
MODEL 6
REMARK VINA RESULT:      -6.0     35.607     37.614
REMARK  Name = 114778_Kahweol.pdbqt.pdb
REMARK  3 active torsions:
REMARK  status: ('A' for Active; 'I' for Inactive)
REMARK    1  A    between atoms: C_8  and  O_21
REMARK    2  A    between atoms: C_8  and  C_23
REMARK    3  A    between atoms: C_23  and  O_24
REMARK                            x       y       z     vdW  Elec       q    Type
REMARK                         _______ _______ _______ _____ _____    ______ ____
ROOT
ATOM      1  O   UNL     1      28.095  19.830  34.988  0.00  0.00    +0.000 OA
ATOM      2  C   UNL     1      23.153  20.557  31.211  0.00  0.00    +0.000 C 
ATOM      3  C   UNL     1      24.205  19.365  31.264  0.00  0.00    +0.000 C 
ATOM      4  C   UNL     1      21.498  19.284  30.040  0.00  0.00    +0.000 C 
ATOM      5  C   UNL     1      22.424  20.423  29.920  0.00  0.00    +0.000 C 
ATOM      6  C   UNL     1      22.010  20.209  32.082  0.00  0.00    +0.000 C 
ATOM      7  C   UNL     1      25.706  19.614  31.454  0.00  0.00    +0.000 C 
ATOM      8  C   UNL     1      20.848  19.538  31.463  0.00  0.00    +0.000 C 
ATOM      9  C   UNL     1      23.822  21.795  31.517  0.00  0.00    +0.000 C 
ATOM     10  C   UNL     1      23.679  18.155  30.653  0.00  0.00    +0.000 C 
ATOM     11  C   UNL     1      22.313  18.080  29.960  0.00  0.00    +0.000 C 
ATOM     12  C   UNL     1      26.103  21.006  32.193  0.00  0.00    +0.000 C 
ATOM     13  C   UNL     1      25.206  22.082  32.007  0.00  0.00    +0.000 C 
ATOM     14  C   UNL     1      26.400  19.647  30.053  0.00  0.00    +0.000 C 
ATOM     15  C   UNL     1      26.274  18.537  32.311  0.00  0.00    +0.000 C 
ATOM     16  C   UNL     1      26.947  20.924  33.364  0.00  0.00    +0.000 A 
ATOM     17  C   UNL     1      26.955  18.493  33.297  0.00  0.00    +0.000 C 
ATOM     18  C   UNL     1      27.349  19.711  33.881  0.00  0.00    +0.000 A 
ATOM     19  C   UNL     1      27.494  21.888  34.234  0.00  0.00    +0.000 A 
ATOM     20  C   UNL     1      28.195  21.182  35.203  0.00  0.00    +0.000 A 
ENDROOT
BRANCH   8  21
ATOM     21  O   UNL     1      19.777  20.459  31.355  0.00  0.00    +0.000 OA
ATOM     22  H   UNL     1      19.934  20.953  30.533  0.00  0.00    +0.000 HD
ENDBRANCH   8  21
BRANCH   8  23
ATOM     23  C   UNL     1      20.387  18.320  32.141  0.00  0.00    +0.000 C 
BRANCH  23  24
ATOM     24  O   UNL     1      19.952  17.221  32.760  0.00  0.00    +0.000 OA
ATOM     25  H   UNL     1      20.697  16.651  33.021  0.00  0.00    +0.000 HD
ENDBRANCH  23  24
ENDBRANCH   8  23
TORSDOF 3
ENDMDL
MODEL 7
REMARK VINA RESULT:      -6.0     35.550     36.932
REMARK  Name = 114778_Kahweol.pdbqt.pdb
REMARK  3 active torsions:
REMARK  status: ('A' for Active; 'I' for Inactive)
REMARK    1  A    between atoms: C_8  and  O_21
REMARK    2  A    between atoms: C_8  and  C_23
REMARK    3  A    between atoms: C_23  and  O_24
REMARK                            x       y       z     vdW  Elec       q    Type
REMARK                         _______ _______ _______ _____ _____    ______ ____
ROOT
ATOM      1  O   UNL     1      30.560  21.681  34.715  0.00  0.00    +0.000 OA
ATOM      2  C   UNL     1      25.483  18.677  32.615  0.00  0.00    +0.000 C 
ATOM      3  C   UNL     1      25.612  20.169  33.152  0.00  0.00    +0.000 C 
ATOM      4  C   UNL     1      23.422  19.078  31.465  0.00  0.00    +0.000 C 
ATOM      5  C   UNL     1      24.029  18.357  32.596  0.00  0.00    +0.000 C 
ATOM      6  C   UNL     1      25.666  18.691  31.147  0.00  0.00    +0.000 C 
ATOM      7  C   UNL     1      26.464  20.520  34.377  0.00  0.00    +0.000 C 
ATOM      8  C   UNL     1      24.460  18.796  30.301  0.00  0.00    +0.000 C 
ATOM      9  C   UNL     1      26.382  17.827  33.351  0.00  0.00    +0.000 C 
ATOM     10  C   UNL     1      24.516  21.004  32.689  0.00  0.00    +0.000 C 
ATOM     11  C   UNL     1      23.335  20.475  31.865  0.00  0.00    +0.000 C 
ATOM     12  C   UNL     1      27.671  19.487  34.718  0.00  0.00    +0.000 C 
ATOM     13  C   UNL     1      27.456  18.141  34.344  0.00  0.00    +0.000 C 
ATOM     14  C   UNL     1      25.547  20.557  35.643  0.00  0.00    +0.000 C 
ATOM     15  C   UNL     1      27.124  21.835  34.151  0.00  0.00    +0.000 C 
ATOM     16  C   UNL     1      29.005  20.031  34.833  0.00  0.00    +0.000 A 
ATOM     17  C   UNL     1      28.242  22.260  34.230  0.00  0.00    +0.000 C 
ATOM     18  C   UNL     1      29.263  21.365  34.598  0.00  0.00    +0.000 A 
ATOM     19  C   UNL     1      30.263  19.464  35.122  0.00  0.00    +0.000 A 
ATOM     20  C   UNL     1      31.181  20.503  35.051  0.00  0.00    +0.000 A 
ENDROOT
BRANCH   8  21
ATOM     21  O   UNL     1      24.196  17.539  29.703  0.00  0.00    +0.000 OA
ATOM     22  H   UNL     1      24.624  16.879  30.273  0.00  0.00    +0.000 HD
ENDBRANCH   8  21
BRANCH   8  23
ATOM     23  C   UNL     1      24.502  19.837  29.266  0.00  0.00    +0.000 C 
BRANCH  23  24
ATOM     24  O   UNL     1      24.551  20.771  28.316  0.00  0.00    +0.000 OA
ATOM     25  H   UNL     1      24.737  21.647  28.699  0.00  0.00    +0.000 HD
ENDBRANCH  23  24
ENDBRANCH   8  23
TORSDOF 3
ENDMDL
MODEL 8
REMARK VINA RESULT:      -5.9      2.914      6.458
REMARK  Name = 114778_Kahweol.pdbqt.pdb
REMARK  3 active torsions:
REMARK  status: ('A' for Active; 'I' for Inactive)
REMARK    1  A    between atoms: C_8  and  O_21
REMARK    2  A    between atoms: C_8  and  C_23
REMARK    3  A    between atoms: C_23  and  O_24
REMARK                            x       y       z     vdW  Elec       q    Type
REMARK                         _______ _______ _______ _____ _____    ______ ____
ROOT
ATOM      1  O   UNL     1      47.424  -6.211  11.699  0.00  0.00    +0.000 OA
ATOM      2  C   UNL     1      45.746  -0.178  11.681  0.00  0.00    +0.000 C 
ATOM      3  C   UNL     1      45.081  -1.399  12.454  0.00  0.00    +0.000 C 
ATOM      4  C   UNL     1      44.756   1.486  13.089  0.00  0.00    +0.000 C 
ATOM      5  C   UNL     1      44.761   0.937  11.722  0.00  0.00    +0.000 C 
ATOM      6  C   UNL     1      46.744   0.452  12.573  0.00  0.00    +0.000 C 
ATOM      7  C   UNL     1      44.894  -2.771  11.797  0.00  0.00    +0.000 C 
ATOM      8  C   UNL     1      46.305   1.590  13.406  0.00  0.00    +0.000 C 
ATOM      9  C   UNL     1      46.240  -0.635  10.408  0.00  0.00    +0.000 C 
ATOM     10  C   UNL     1      44.281  -0.951  13.583  0.00  0.00    +0.000 C 
ATOM     11  C   UNL     1      44.038   0.527  13.916  0.00  0.00    +0.000 C 
ATOM     12  C   UNL     1      45.908  -3.114  10.574  0.00  0.00    +0.000 C 
ATOM     13  C   UNL     1      46.368  -2.006   9.826  0.00  0.00    +0.000 C 
ATOM     14  C   UNL     1      43.449  -2.862  11.208  0.00  0.00    +0.000 C 
ATOM     15  C   UNL     1      45.130  -3.835  12.812  0.00  0.00    +0.000 C 
ATOM     16  C   UNL     1      46.679  -4.332  10.665  0.00  0.00    +0.000 A 
ATOM     17  C   UNL     1      45.796  -4.829  12.876  0.00  0.00    +0.000 C 
ATOM     18  C   UNL     1      46.613  -5.147  11.776  0.00  0.00    +0.000 A 
ATOM     19  C   UNL     1      47.622  -4.949   9.819  0.00  0.00    +0.000 A 
ATOM     20  C   UNL     1      48.043  -6.096  10.479  0.00  0.00    +0.000 A 
ENDROOT
BRANCH   8  21
ATOM     21  O   UNL     1      46.834   2.792  12.874  0.00  0.00    +0.000 OA
ATOM     22  H   UNL     1      47.568   3.041  13.460  0.00  0.00    +0.000 HD
ENDBRANCH   8  21
BRANCH   8  23
ATOM     23  C   UNL     1      46.636   1.493  14.834  0.00  0.00    +0.000 C 
BRANCH  23  24
ATOM     24  O   UNL     1      46.935   1.423  16.131  0.00  0.00    +0.000 OA
ATOM     25  H   UNL     1      46.143   1.570  16.679  0.00  0.00    +0.000 HD
ENDBRANCH  23  24
ENDBRANCH   8  23
TORSDOF 3
ENDMDL
MODEL 9
REMARK VINA RESULT:      -5.8     34.619     36.560
REMARK  Name = 114778_Kahweol.pdbqt.pdb
REMARK  3 active torsions:
REMARK  status: ('A' for Active; 'I' for Inactive)
REMARK    1  A    between atoms: C_8  and  O_21
REMARK    2  A    between atoms: C_8  and  C_23
REMARK    3  A    between atoms: C_23  and  O_24
REMARK                            x       y       z     vdW  Elec       q    Type
REMARK                         _______ _______ _______ _____ _____    ______ ____
ROOT
ATOM      1  O   UNL     1      23.163  28.670   1.933  0.00  0.00    +0.000 OA
ATOM      2  C   UNL     1      24.166  22.502   1.516  0.00  0.00    +0.000 C 
ATOM      3  C   UNL     1      22.892  23.273   2.077  0.00  0.00    +0.000 C 
ATOM      4  C   UNL     1      22.994  20.442   1.182  0.00  0.00    +0.000 C 
ATOM      5  C   UNL     1      24.046  21.093   1.980  0.00  0.00    +0.000 C 
ATOM      6  C   UNL     1      23.946  22.222   0.081  0.00  0.00    +0.000 C 
ATOM      7  C   UNL     1      23.021  24.524   2.954  0.00  0.00    +0.000 C 
ATOM      8  C   UNL     1      23.352  20.920  -0.287  0.00  0.00    +0.000 C 
ATOM      9  C   UNL     1      25.353  23.252   1.835  0.00  0.00    +0.000 C 
ATOM     10  C   UNL     1      21.709  22.428   2.082  0.00  0.00    +0.000 C 
ATOM     11  C   UNL     1      21.724  20.947   1.683  0.00  0.00    +0.000 C 
ATOM     12  C   UNL     1      24.400  25.367   2.783  0.00  0.00    +0.000 C 
ATOM     13  C   UNL     1      25.540  24.618   2.414  0.00  0.00    +0.000 C 
ATOM     14  C   UNL     1      22.946  24.105   4.458  0.00  0.00    +0.000 C 
ATOM     15  C   UNL     1      21.932  25.479   2.605  0.00  0.00    +0.000 C 
ATOM     16  C   UNL     1      24.291  26.773   2.467  0.00  0.00    +0.000 A 
ATOM     17  C   UNL     1      21.867  26.642   2.322  0.00  0.00    +0.000 C 
ATOM     18  C   UNL     1      23.067  27.371   2.250  0.00  0.00    +0.000 A 
ATOM     19  C   UNL     1      25.236  27.798   2.263  0.00  0.00    +0.000 A 
ATOM     20  C   UNL     1      24.509  28.939   1.951  0.00  0.00    +0.000 A 
ENDROOT
BRANCH   8  21
ATOM     21  O   UNL     1      24.355  20.087  -0.842  0.00  0.00    +0.000 OA
ATOM     22  H   UNL     1      24.763  20.603  -1.557  0.00  0.00    +0.000 HD
ENDBRANCH   8  21
BRANCH   8  23
ATOM     23  C   UNL     1      22.202  20.984  -1.197  0.00  0.00    +0.000 C 
BRANCH  23  24
ATOM     24  O   UNL     1      21.150  21.027  -2.016  0.00  0.00    +0.000 OA
ATOM     25  H   UNL     1      21.399  21.395  -2.882  0.00  0.00    +0.000 HD
ENDBRANCH  23  24
ENDBRANCH   8  23
TORSDOF 3
ENDMDL
