MODEL 1
REMARK VINA RESULT:      -4.1      0.000      0.000
REMARK  Name = 1174_Uracil.pdbqt.pdb
REMARK  0 active torsions:
REMARK  status: ('A' for Active; 'I' for Inactive)
REMARK                            x       y       z     vdW  Elec       q    Type
REMARK                         _______ _______ _______ _____ _____    ______ ____
ROOT
ATOM      1  O   UNL     1      27.108  -1.882  12.650  0.00  0.00    +0.000 OA
ATOM      2  O   UNL     1      30.978  -3.769  14.363  0.00  0.00    +0.000 OA
ATOM      3  N   UNL     1      29.050  -2.764  13.541  0.00  0.00    +0.000 N 
ATOM      4  N   UNL     1      27.744  -4.023  12.057  0.00  0.00    +0.000 N 
ATOM      5  C   UNL     1      27.899  -2.812  12.740  0.00  0.00    +0.000 A 
ATOM      6  C   UNL     1      29.973  -3.800  13.670  0.00  0.00    +0.000 A 
ATOM      7  C   UNL     1      28.643  -5.012  12.192  0.00  0.00    +0.000 A 
ATOM      8  C   UNL     1      29.615  -4.949  12.879  0.00  0.00    +0.000 A 
ATOM      9  H   UNL     1      29.220  -1.918  14.060  0.00  0.00    +0.000 HD
ATOM     10  H   UNL     1      26.936  -4.136  11.457  0.00  0.00    +0.000 HD
ENDROOT
TORSDOF 0
ENDMDL
MODEL 2
REMARK VINA RESULT:      -3.9     15.575     16.645
REMARK  Name = 1174_Uracil.pdbqt.pdb
REMARK  0 active torsions:
REMARK  status: ('A' for Active; 'I' for Inactive)
REMARK                            x       y       z     vdW  Elec       q    Type
REMARK                         _______ _______ _______ _____ _____    ______ ____
ROOT
ATOM      1  O   UNL     1      38.233   8.529  20.884  0.00  0.00    +0.000 OA
ATOM      2  O   UNL     1      33.780   8.287  19.622  0.00  0.00    +0.000 OA
ATOM      3  N   UNL     1      36.009   8.343  20.280  0.00  0.00    +0.000 N 
ATOM      4  N   UNL     1      37.195  10.319  19.854  0.00  0.00    +0.000 N 
ATOM      5  C   UNL     1      37.232   9.024  20.381  0.00  0.00    +0.000 A 
ATOM      6  C   UNL     1      34.849   8.871  19.716  0.00  0.00    +0.000 A 
ATOM      7  C   UNL     1      36.069  10.813  19.313  0.00  0.00    +0.000 A 
ATOM      8  C   UNL     1      35.040  10.215  19.238  0.00  0.00    +0.000 A 
ATOM      9  H   UNL     1      35.968   7.404  20.642  0.00  0.00    +0.000 HD
ATOM     10  H   UNL     1      38.040  10.876  19.889  0.00  0.00    +0.000 HD
ENDROOT
TORSDOF 0
ENDMDL
MODEL 3
REMARK VINA RESULT:      -3.8     24.884     26.249
REMARK  Name = 1174_Uracil.pdbqt.pdb
REMARK  0 active torsions:
REMARK  status: ('A' for Active; 'I' for Inactive)
REMARK                            x       y       z     vdW  Elec       q    Type
REMARK                         _______ _______ _______ _____ _____    ______ ____
ROOT
ATOM      1  O   UNL     1      21.500  17.387   3.569  0.00  0.00    +0.000 OA
ATOM      2  O   UNL     1      19.187  21.388   3.229  0.00  0.00    +0.000 OA
ATOM      3  N   UNL     1      20.390  19.402   3.348  0.00  0.00    +0.000 N 
ATOM      4  N   UNL     1      19.691  17.828   4.938  0.00  0.00    +0.000 N 
ATOM      5  C   UNL     1      20.602  18.141   3.923  0.00  0.00    +0.000 A 
ATOM      6  C   UNL     1      19.381  20.288   3.723  0.00  0.00    +0.000 A 
ATOM      7  C   UNL     1      18.724  18.693   5.287  0.00  0.00    +0.000 A 
ATOM      8  C   UNL     1      18.562  19.761   4.784  0.00  0.00    +0.000 A 
ATOM      9  H   UNL     1      21.013  19.688   2.610  0.00  0.00    +0.000 HD
ATOM     10  H   UNL     1      19.778  16.934   5.403  0.00  0.00    +0.000 HD
ENDROOT
TORSDOF 0
ENDMDL
MODEL 4
REMARK VINA RESULT:      -3.7     13.900     14.898
REMARK  Name = 1174_Uracil.pdbqt.pdb
REMARK  0 active torsions:
REMARK  status: ('A' for Active; 'I' for Inactive)
REMARK                            x       y       z     vdW  Elec       q    Type
REMARK                         _______ _______ _______ _____ _____    ______ ____
ROOT
ATOM      1  O   UNL     1      44.906  -4.095  11.126  0.00  0.00    +0.000 OA
ATOM      2  O   UNL     1      40.608  -4.986   9.639  0.00  0.00    +0.000 OA
ATOM      3  N   UNL     1      42.739  -4.484  10.421  0.00  0.00    +0.000 N 
ATOM      4  N   UNL     1      44.486  -5.881   9.721  0.00  0.00    +0.000 N 
ATOM      5  C   UNL     1      44.112  -4.765  10.477  0.00  0.00    +0.000 A 
ATOM      6  C   UNL     1      41.806  -5.221   9.694  0.00  0.00    +0.000 A 
ATOM      7  C   UNL     1      43.574  -6.581   9.027  0.00  0.00    +0.000 A 
ATOM      8  C   UNL     1      42.410  -6.324   8.993  0.00  0.00    +0.000 A 
ATOM      9  H   UNL     1      42.405  -3.691  10.944  0.00  0.00    +0.000 HD
ATOM     10  H   UNL     1      45.462  -6.149   9.711  0.00  0.00    +0.000 HD
ENDROOT
TORSDOF 0
ENDMDL
MODEL 5
REMARK VINA RESULT:      -3.7     25.317     26.153
REMARK  Name = 1174_Uracil.pdbqt.pdb
REMARK  0 active torsions:
REMARK  status: ('A' for Active; 'I' for Inactive)
REMARK                            x       y       z     vdW  Elec       q    Type
REMARK                         _______ _______ _______ _____ _____    ______ ____
ROOT
ATOM      1  O   UNL     1      18.736  21.181   4.296  0.00  0.00    +0.000 OA
ATOM      2  O   UNL     1      22.799  19.368   3.002  0.00  0.00    +0.000 OA
ATOM      3  N   UNL     1      20.780  20.339   3.623  0.00  0.00    +0.000 N 
ATOM      4  N   UNL     1      19.253  18.979   4.767  0.00  0.00    +0.000 N 
ATOM      5  C   UNL     1      19.522  20.244   4.235  0.00  0.00    +0.000 A 
ATOM      6  C   UNL     1      21.702  19.297   3.533  0.00  0.00    +0.000 A 
ATOM      7  C   UNL     1      20.152  17.985   4.671  0.00  0.00    +0.000 A 
ATOM      8  C   UNL     1      21.217  18.088   4.146  0.00  0.00    +0.000 A 
ATOM      9  H   UNL     1      21.036  21.226   3.219  0.00  0.00    +0.000 HD
ATOM     10  H   UNL     1      18.363  18.830   5.226  0.00  0.00    +0.000 HD
ENDROOT
TORSDOF 0
ENDMDL
MODEL 6
REMARK VINA RESULT:      -3.7     13.058     13.912
REMARK  Name = 1174_Uracil.pdbqt.pdb
REMARK  0 active torsions:
REMARK  status: ('A' for Active; 'I' for Inactive)
REMARK                            x       y       z     vdW  Elec       q    Type
REMARK                         _______ _______ _______ _____ _____    ______ ____
ROOT
ATOM      1  O   UNL     1      42.824  -5.442  13.900  0.00  0.00    +0.000 OA
ATOM      2  O   UNL     1      40.655  -6.558   9.960  0.00  0.00    +0.000 OA
ATOM      3  N   UNL     1      41.705  -6.047  11.970  0.00  0.00    +0.000 N 
ATOM      4  N   UNL     1      43.332  -4.360  11.923  0.00  0.00    +0.000 N 
ATOM      5  C   UNL     1      42.638  -5.294  12.699  0.00  0.00    +0.000 A 
ATOM      6  C   UNL     1      41.464  -5.908  10.605  0.00  0.00    +0.000 A 
ATOM      7  C   UNL     1      43.088  -4.239  10.607  0.00  0.00    +0.000 A 
ATOM      8  C   UNL     1      42.289  -4.891  10.008  0.00  0.00    +0.000 A 
ATOM      9  H   UNL     1      41.171  -6.738  12.472  0.00  0.00    +0.000 HD
ATOM     10  H   UNL     1      44.024  -3.777  12.376  0.00  0.00    +0.000 HD
ENDROOT
TORSDOF 0
ENDMDL
MODEL 7
REMARK VINA RESULT:      -3.5     16.079     16.280
REMARK  Name = 1174_Uracil.pdbqt.pdb
REMARK  0 active torsions:
REMARK  status: ('A' for Active; 'I' for Inactive)
REMARK                            x       y       z     vdW  Elec       q    Type
REMARK                         _______ _______ _______ _____ _____    ______ ____
ROOT
ATOM      1  O   UNL     1      16.230   2.614   5.552  0.00  0.00    +0.000 OA
ATOM      2  O   UNL     1      16.173   5.768   8.946  0.00  0.00    +0.000 OA
ATOM      3  N   UNL     1      16.164   4.143   7.284  0.00  0.00    +0.000 N 
ATOM      4  N   UNL     1      17.293   4.649   5.294  0.00  0.00    +0.000 N 
ATOM      5  C   UNL     1      16.537   3.710   6.003  0.00  0.00    +0.000 A 
ATOM      6  C   UNL     1      16.493   5.381   7.833  0.00  0.00    +0.000 A 
ATOM      7  C   UNL     1      17.602   5.838   5.837  0.00  0.00    +0.000 A 
ATOM      8  C   UNL     1      17.274   6.186   6.929  0.00  0.00    +0.000 A 
ATOM      9  H   UNL     1      15.617   3.512   7.847  0.00  0.00    +0.000 HD
ATOM     10  H   UNL     1      17.602   4.411   4.360  0.00  0.00    +0.000 HD
ENDROOT
TORSDOF 0
ENDMDL
MODEL 8
REMARK VINA RESULT:      -3.4     24.843     25.824
REMARK  Name = 1174_Uracil.pdbqt.pdb
REMARK  0 active torsions:
REMARK  status: ('A' for Active; 'I' for Inactive)
REMARK                            x       y       z     vdW  Elec       q    Type
REMARK                         _______ _______ _______ _____ _____    ______ ____
ROOT
ATOM      1  O   UNL     1      33.882  11.528  35.171  0.00  0.00    +0.000 OA
ATOM      2  O   UNL     1      35.814   8.544  32.199  0.00  0.00    +0.000 OA
ATOM      3  N   UNL     1      34.805   9.989  33.716  0.00  0.00    +0.000 N 
ATOM      4  N   UNL     1      35.488  12.230  33.666  0.00  0.00    +0.000 N 
ATOM      5  C   UNL     1      34.660  11.273  34.261  0.00  0.00    +0.000 A 
ATOM      6  C   UNL     1      35.678   9.658  32.681  0.00  0.00    +0.000 A 
ATOM      7  C   UNL     1      36.324  11.895  32.669  0.00  0.00    +0.000 A 
ATOM      8  C   UNL     1      36.431  10.796  32.221  0.00  0.00    +0.000 A 
ATOM      9  H   UNL     1      34.236   9.252  34.101  0.00  0.00    +0.000 HD
ATOM     10  H   UNL     1      35.441  13.183  34.005  0.00  0.00    +0.000 HD
ENDROOT
TORSDOF 0
ENDMDL
MODEL 9
REMARK VINA RESULT:      -3.3     25.531     26.750
REMARK  Name = 1174_Uracil.pdbqt.pdb
REMARK  0 active torsions:
REMARK  status: ('A' for Active; 'I' for Inactive)
REMARK                            x       y       z     vdW  Elec       q    Type
REMARK                         _______ _______ _______ _____ _____    ______ ____
ROOT
ATOM      1  O   UNL     1      20.297  20.283   0.154  0.00  0.00    +0.000 OA
ATOM      2  O   UNL     1      21.622  17.384   3.518  0.00  0.00    +0.000 OA
ATOM      3  N   UNL     1      20.980  18.793   1.783  0.00  0.00    +0.000 N 
ATOM      4  N   UNL     1      19.994  20.834   2.378  0.00  0.00    +0.000 N 
ATOM      5  C   UNL     1      20.413  19.996   1.338  0.00  0.00    +0.000 A 
ATOM      6  C   UNL     1      21.130  18.429   3.120  0.00  0.00    +0.000 A 
ATOM      7  C   UNL     1      20.146  20.469   3.662  0.00  0.00    +0.000 A 
ATOM      8  C   UNL     1      20.632  19.440   4.017  0.00  0.00    +0.000 A 
ATOM      9  H   UNL     1      21.303  18.144   1.083  0.00  0.00    +0.000 HD
ATOM     10  H   UNL     1      19.574  21.723   2.138  0.00  0.00    +0.000 HD
ENDROOT
TORSDOF 0
ENDMDL
