MODEL 1
REMARK VINA RESULT:      -5.8      0.000      0.000
REMARK  Name = 122180587_TripolinolateA.pdbqt.pdb
REMARK  9 active torsions:
REMARK  status: ('A' for Active; 'I' for Inactive)
REMARK    1  A    between atoms: C_1  and  O_16
REMARK    2  A    between atoms: C_2  and  O_7
REMARK    3  A    between atoms: C_3  and  C_9
REMARK    4  A    between atoms: C_10  and  C_11
REMARK    5  A    between atoms: C_11  and  O_12
REMARK    6  A    between atoms: O_12  and  C_14
REMARK    7  A    between atoms: O_16  and  C_18
REMARK    8  A    between atoms: C_18  and  C_19
REMARK    9  A    between atoms: C_19  and  C_21
REMARK                            x       y       z     vdW  Elec       q    Type
REMARK                         _______ _______ _______ _____ _____    ______ ____
ROOT
ATOM      1  C   UNL     1      43.729  -3.490  13.034  0.00  0.00    +0.000 A 
ATOM      2  C   UNL     1      44.512  -4.623  13.281  0.00  0.00    +0.000 A 
ATOM      3  C   UNL     1      44.328  -5.192  10.930  0.00  0.00    +0.000 A 
ATOM      4  C   UNL     1      43.220  -3.219  11.763  0.00  0.00    +0.000 A 
ATOM      5  C   UNL     1      44.810  -5.469  12.209  0.00  0.00    +0.000 A 
ATOM      6  C   UNL     1      43.530  -4.071  10.707  0.00  0.00    +0.000 A 
ENDROOT
BRANCH   2   7
ATOM      7  O   UNL     1      44.920  -4.836  14.574  0.00  0.00    +0.000 OA
ATOM      8  C   UNL     1      44.244  -5.849  15.264  0.00  0.00    +0.000 C 
ENDBRANCH   2   7
BRANCH   3   9
ATOM      9  C   UNL     1      44.646  -6.065   9.848  0.00  0.00    +0.000 C 
ATOM     10  C   UNL     1      44.913  -6.799   8.936  0.00  0.00    +0.000 C 
BRANCH  10  11
ATOM     11  C   UNL     1      45.250  -7.739   7.774  0.00  0.00    +0.000 C 
BRANCH  11  12
ATOM     12  O   UNL     1      45.541  -8.554   6.763  0.00  0.00    +0.000 OA
BRANCH  12  14
ATOM     13  O   UNL     1      43.564  -9.780   6.524  0.00  0.00    +0.000 OA
ATOM     14  C   UNL     1      44.765  -9.652   6.673  0.00  0.00    +0.000 C 
ATOM     15  C   UNL     1      45.509 -10.942   6.773  0.00  0.00    +0.000 C 
ENDBRANCH  12  14
ENDBRANCH  11  12
ENDBRANCH  10  11
ENDBRANCH   3   9
BRANCH   1  16
ATOM     16  O   UNL     1      43.367  -2.648  14.094  0.00  0.00    +0.000 OA
BRANCH  16  18
ATOM     17  O   UNL     1      45.304  -1.406  14.433  0.00  0.00    +0.000 OA
ATOM     18  C   UNL     1      44.115  -1.478  14.149  0.00  0.00    +0.000 C 
BRANCH  18  19
ATOM     19  C   UNL     1      43.269  -0.301  13.829  0.00  0.00    +0.000 C 
ATOM     20  C   UNL     1      43.771   0.903  13.044  0.00  0.00    +0.000 C 
BRANCH  19  21
ATOM     21  C   UNL     1      41.918  -0.284  14.265  0.00  0.00    +0.000 C 
ATOM     22  C   UNL     1      40.455  -0.266  14.745  0.00  0.00    +0.000 C 
ENDBRANCH  19  21
ENDBRANCH  18  19
ENDBRANCH  16  18
ENDBRANCH   1  16
TORSDOF 9
ENDMDL
MODEL 2
REMARK VINA RESULT:      -4.6     34.683     37.696
REMARK  Name = 122180587_TripolinolateA.pdbqt.pdb
REMARK  9 active torsions:
REMARK  status: ('A' for Active; 'I' for Inactive)
REMARK    1  A    between atoms: C_1  and  O_16
REMARK    2  A    between atoms: C_2  and  O_7
REMARK    3  A    between atoms: C_3  and  C_9
REMARK    4  A    between atoms: C_10  and  C_11
REMARK    5  A    between atoms: C_11  and  O_12
REMARK    6  A    between atoms: O_12  and  C_14
REMARK    7  A    between atoms: O_16  and  C_18
REMARK    8  A    between atoms: C_18  and  C_19
REMARK    9  A    between atoms: C_19  and  C_21
REMARK                            x       y       z     vdW  Elec       q    Type
REMARK                         _______ _______ _______ _____ _____    ______ ____
ROOT
ATOM      1  C   UNL     1      23.768  22.915   2.975  0.00  0.00    +0.000 A 
ATOM      2  C   UNL     1      24.865  23.631   2.486  0.00  0.00    +0.000 A 
ATOM      3  C   UNL     1      24.218  25.485   3.911  0.00  0.00    +0.000 A 
ATOM      4  C   UNL     1      22.882  23.477   3.897  0.00  0.00    +0.000 A 
ATOM      5  C   UNL     1      25.082  24.924   2.971  0.00  0.00    +0.000 A 
ATOM      6  C   UNL     1      23.117  24.764   4.371  0.00  0.00    +0.000 A 
ENDROOT
BRANCH   2   7
ATOM      7  O   UNL     1      25.647  23.016   1.541  0.00  0.00    +0.000 OA
ATOM      8  C   UNL     1      25.636  23.602   0.269  0.00  0.00    +0.000 C 
ENDBRANCH   2   7
BRANCH   3   9
ATOM      9  C   UNL     1      24.459  26.803   4.398  0.00  0.00    +0.000 C 
ATOM     10  C   UNL     1      24.660  27.914   4.807  0.00  0.00    +0.000 C 
BRANCH  10  11
ATOM     11  C   UNL     1      24.916  29.333   5.326  0.00  0.00    +0.000 C 
BRANCH  11  12
ATOM     12  O   UNL     1      25.138  30.565   5.778  0.00  0.00    +0.000 OA
BRANCH  12  14
ATOM     13  O   UNL     1      25.498  31.254   7.983  0.00  0.00    +0.000 OA
ATOM     14  C   UNL     1      24.851  30.756   7.081  0.00  0.00    +0.000 C 
ATOM     15  C   UNL     1      23.502  30.271   7.492  0.00  0.00    +0.000 C 
ENDBRANCH  12  14
ENDBRANCH  11  12
ENDBRANCH  10  11
ENDBRANCH   3   9
BRANCH   1  16
ATOM     16  O   UNL     1      23.490  21.636   2.473  0.00  0.00    +0.000 OA
BRANCH  16  18
ATOM     17  O   UNL     1      22.291  22.419   0.641  0.00  0.00    +0.000 OA
ATOM     18  C   UNL     1      22.448  21.619   1.554  0.00  0.00    +0.000 C 
BRANCH  18  19
ATOM     19  C   UNL     1      21.520  20.495   1.836  0.00  0.00    +0.000 C 
ATOM     20  C   UNL     1      21.616  19.138   1.151  0.00  0.00    +0.000 C 
BRANCH  19  21
ATOM     21  C   UNL     1      20.489  20.676   2.795  0.00  0.00    +0.000 C 
ATOM     22  C   UNL     1      19.376  20.873   3.840  0.00  0.00    +0.000 C 
ENDBRANCH  19  21
ENDBRANCH  18  19
ENDBRANCH  16  18
ENDBRANCH   1  16
TORSDOF 9
ENDMDL
MODEL 3
REMARK VINA RESULT:      -4.6     17.103     21.510
REMARK  Name = 122180587_TripolinolateA.pdbqt.pdb
REMARK  9 active torsions:
REMARK  status: ('A' for Active; 'I' for Inactive)
REMARK    1  A    between atoms: C_1  and  O_16
REMARK    2  A    between atoms: C_2  and  O_7
REMARK    3  A    between atoms: C_3  and  C_9
REMARK    4  A    between atoms: C_10  and  C_11
REMARK    5  A    between atoms: C_11  and  O_12
REMARK    6  A    between atoms: O_12  and  C_14
REMARK    7  A    between atoms: O_16  and  C_18
REMARK    8  A    between atoms: C_18  and  C_19
REMARK    9  A    between atoms: C_19  and  C_21
REMARK                            x       y       z     vdW  Elec       q    Type
REMARK                         _______ _______ _______ _____ _____    ______ ____
ROOT
ATOM      1  C   UNL     1      39.863  12.842  20.317  0.00  0.00    +0.000 A 
ATOM      2  C   UNL     1      40.744  12.685  19.242  0.00  0.00    +0.000 A 
ATOM      3  C   UNL     1      41.006  15.096  19.179  0.00  0.00    +0.000 A 
ATOM      4  C   UNL     1      39.526  14.107  20.805  0.00  0.00    +0.000 A 
ATOM      5  C   UNL     1      41.316  13.830  18.682  0.00  0.00    +0.000 A 
ATOM      6  C   UNL     1      40.110  15.235  20.237  0.00  0.00    +0.000 A 
ENDROOT
BRANCH   2   7
ATOM      7  O   UNL     1      40.971  11.407  18.797  0.00  0.00    +0.000 OA
ATOM      8  C   UNL     1      41.024  11.250  17.406  0.00  0.00    +0.000 C 
ENDBRANCH   2   7
BRANCH   3   9
ATOM      9  C   UNL     1      41.604  16.252  18.597  0.00  0.00    +0.000 C 
ATOM     10  C   UNL     1      42.109  17.225  18.107  0.00  0.00    +0.000 C 
BRANCH  10  11
ATOM     11  C   UNL     1      42.757  18.465  17.482  0.00  0.00    +0.000 C 
BRANCH  11  12
ATOM     12  O   UNL     1      43.319  19.542  16.938  0.00  0.00    +0.000 OA
BRANCH  12  14
ATOM     13  O   UNL     1      45.116  19.713  15.452  0.00  0.00    +0.000 OA
ATOM     14  C   UNL     1      44.025  19.313  15.813  0.00  0.00    +0.000 C 
ATOM     15  C   UNL     1      43.352  18.408  14.837  0.00  0.00    +0.000 C 
ENDBRANCH  12  14
ENDBRANCH  11  12
ENDBRANCH  10  11
ENDBRANCH   3   9
BRANCH   1  16
ATOM     16  O   UNL     1      39.230  11.721  20.871  0.00  0.00    +0.000 OA
BRANCH  16  18
ATOM     17  O   UNL     1      37.154  12.210  19.944  0.00  0.00    +0.000 OA
ATOM     18  C   UNL     1      38.025  11.407  20.254  0.00  0.00    +0.000 C 
BRANCH  18  19
ATOM     19  C   UNL     1      37.918   9.944  20.029  0.00  0.00    +0.000 C 
ATOM     20  C   UNL     1      37.883   8.922  21.158  0.00  0.00    +0.000 C 
BRANCH  19  21
ATOM     21  C   UNL     1      37.837   9.456  18.699  0.00  0.00    +0.000 C 
ATOM     22  C   UNL     1      37.741   8.926  17.256  0.00  0.00    +0.000 C 
ENDBRANCH  19  21
ENDBRANCH  18  19
ENDBRANCH  16  18
ENDBRANCH   1  16
TORSDOF 9
ENDMDL
MODEL 4
REMARK VINA RESULT:      -4.5      6.462      8.138
REMARK  Name = 122180587_TripolinolateA.pdbqt.pdb
REMARK  9 active torsions:
REMARK  status: ('A' for Active; 'I' for Inactive)
REMARK    1  A    between atoms: C_1  and  O_16
REMARK    2  A    between atoms: C_2  and  O_7
REMARK    3  A    between atoms: C_3  and  C_9
REMARK    4  A    between atoms: C_10  and  C_11
REMARK    5  A    between atoms: C_11  and  O_12
REMARK    6  A    between atoms: O_12  and  C_14
REMARK    7  A    between atoms: O_16  and  C_18
REMARK    8  A    between atoms: C_18  and  C_19
REMARK    9  A    between atoms: C_19  and  C_21
REMARK                            x       y       z     vdW  Elec       q    Type
REMARK                         _______ _______ _______ _____ _____    ______ ____
ROOT
ATOM      1  C   UNL     1      46.741  -2.114  11.190  0.00  0.00    +0.000 A 
ATOM      2  C   UNL     1      48.138  -2.088  11.260  0.00  0.00    +0.000 A 
ATOM      3  C   UNL     1      48.135  -0.373   9.545  0.00  0.00    +0.000 A 
ATOM      4  C   UNL     1      46.041  -1.308  10.291  0.00  0.00    +0.000 A 
ATOM      5  C   UNL     1      48.826  -1.201  10.428  0.00  0.00    +0.000 A 
ATOM      6  C   UNL     1      46.744  -0.428   9.473  0.00  0.00    +0.000 A 
ENDROOT
BRANCH   2   7
ATOM      7  O   UNL     1      48.741  -2.956  12.135  0.00  0.00    +0.000 OA
ATOM      8  C   UNL     1      49.798  -2.425  12.885  0.00  0.00    +0.000 C 
ENDBRANCH   2   7
BRANCH   3   9
ATOM      9  C   UNL     1      48.854   0.530   8.707  0.00  0.00    +0.000 C 
ATOM     10  C   UNL     1      49.461   1.289   8.002  0.00  0.00    +0.000 C 
BRANCH  10  11
ATOM     11  C   UNL     1      50.239   2.258   7.105  0.00  0.00    +0.000 C 
BRANCH  11  12
ATOM     12  O   UNL     1      50.915   3.101   6.328  0.00  0.00    +0.000 OA
BRANCH  12  14
ATOM     13  O   UNL     1      50.955   2.015   4.257  0.00  0.00    +0.000 OA
ATOM     14  C   UNL     1      50.713   2.945   5.005  0.00  0.00    +0.000 C 
ATOM     15  C   UNL     1      50.081   4.119   4.335  0.00  0.00    +0.000 C 
ENDBRANCH  12  14
ENDBRANCH  11  12
ENDBRANCH  10  11
ENDBRANCH   3   9
BRANCH   1  16
ATOM     16  O   UNL     1      46.021  -3.027  11.972  0.00  0.00    +0.000 OA
BRANCH  16  18
ATOM     17  O   UNL     1      45.895  -4.765  10.432  0.00  0.00    +0.000 OA
ATOM     18  C   UNL     1      45.364  -3.996  11.224  0.00  0.00    +0.000 C 
BRANCH  18  19
ATOM     19  C   UNL     1      43.906  -3.972  11.500  0.00  0.00    +0.000 C 
ATOM     20  C   UNL     1      42.848  -4.264  10.445  0.00  0.00    +0.000 C 
BRANCH  19  21
ATOM     21  C   UNL     1      43.458  -3.667  12.812  0.00  0.00    +0.000 C 
ATOM     22  C   UNL     1      42.979  -3.332  14.237  0.00  0.00    +0.000 C 
ENDBRANCH  19  21
ENDBRANCH  18  19
ENDBRANCH  16  18
ENDBRANCH   1  16
TORSDOF 9
ENDMDL
MODEL 5
REMARK VINA RESULT:      -4.5      5.919      7.695
REMARK  Name = 122180587_TripolinolateA.pdbqt.pdb
REMARK  9 active torsions:
REMARK  status: ('A' for Active; 'I' for Inactive)
REMARK    1  A    between atoms: C_1  and  O_16
REMARK    2  A    between atoms: C_2  and  O_7
REMARK    3  A    between atoms: C_3  and  C_9
REMARK    4  A    between atoms: C_10  and  C_11
REMARK    5  A    between atoms: C_11  and  O_12
REMARK    6  A    between atoms: O_12  and  C_14
REMARK    7  A    between atoms: O_16  and  C_18
REMARK    8  A    between atoms: C_18  and  C_19
REMARK    9  A    between atoms: C_19  and  C_21
REMARK                            x       y       z     vdW  Elec       q    Type
REMARK                         _______ _______ _______ _____ _____    ______ ____
ROOT
ATOM      1  C   UNL     1      46.041  -2.960  11.062  0.00  0.00    +0.000 A 
ATOM      2  C   UNL     1      47.401  -3.205  10.846  0.00  0.00    +0.000 A 
ATOM      3  C   UNL     1      47.548  -1.065   9.713  0.00  0.00    +0.000 A 
ATOM      4  C   UNL     1      45.424  -1.801  10.586  0.00  0.00    +0.000 A 
ATOM      5  C   UNL     1      48.149  -2.237  10.169  0.00  0.00    +0.000 A 
ATOM      6  C   UNL     1      46.186  -0.848   9.918  0.00  0.00    +0.000 A 
ENDROOT
BRANCH   2   7
ATOM      7  O   UNL     1      47.907  -4.396  11.301  0.00  0.00    +0.000 OA
ATOM      8  C   UNL     1      48.243  -5.330  10.313  0.00  0.00    +0.000 C 
ENDBRANCH   2   7
BRANCH   3   9
ATOM      9  C   UNL     1      48.328  -0.087   9.029  0.00  0.00    +0.000 C 
ATOM     10  C   UNL     1      48.987   0.736   8.453  0.00  0.00    +0.000 C 
BRANCH  10  11
ATOM     11  C   UNL     1      49.830   1.786   7.722  0.00  0.00    +0.000 C 
BRANCH  11  12
ATOM     12  O   UNL     1      50.564   2.697   7.088  0.00  0.00    +0.000 OA
BRANCH  12  14
ATOM     13  O   UNL     1      52.069   2.402   5.323  0.00  0.00    +0.000 OA
ATOM     14  C   UNL     1      51.648   2.216   6.450  0.00  0.00    +0.000 C 
ATOM     15  C   UNL     1      52.484   1.289   7.268  0.00  0.00    +0.000 C 
ENDBRANCH  12  14
ENDBRANCH  11  12
ENDBRANCH  10  11
ENDBRANCH   3   9
BRANCH   1  16
ATOM     16  O   UNL     1      45.249  -3.930  11.691  0.00  0.00    +0.000 OA
BRANCH  16  18
ATOM     17  O   UNL     1      43.161  -3.346  12.532  0.00  0.00    +0.000 OA
ATOM     18  C   UNL     1      44.380  -3.404  12.638  0.00  0.00    +0.000 C 
BRANCH  18  19
ATOM     19  C   UNL     1      45.132  -2.894  13.812  0.00  0.00    +0.000 C 
ATOM     20  C   UNL     1      45.020  -1.465  14.324  0.00  0.00    +0.000 C 
BRANCH  19  21
ATOM     21  C   UNL     1      46.001  -3.775  14.509  0.00  0.00    +0.000 C 
ATOM     22  C   UNL     1      46.937  -4.734  15.268  0.00  0.00    +0.000 C 
ENDBRANCH  19  21
ENDBRANCH  18  19
ENDBRANCH  16  18
ENDBRANCH   1  16
TORSDOF 9
ENDMDL
MODEL 6
REMARK VINA RESULT:      -4.4     33.054     37.338
REMARK  Name = 122180587_TripolinolateA.pdbqt.pdb
REMARK  9 active torsions:
REMARK  status: ('A' for Active; 'I' for Inactive)
REMARK    1  A    between atoms: C_1  and  O_16
REMARK    2  A    between atoms: C_2  and  O_7
REMARK    3  A    between atoms: C_3  and  C_9
REMARK    4  A    between atoms: C_10  and  C_11
REMARK    5  A    between atoms: C_11  and  O_12
REMARK    6  A    between atoms: O_12  and  C_14
REMARK    7  A    between atoms: O_16  and  C_18
REMARK    8  A    between atoms: C_18  and  C_19
REMARK    9  A    between atoms: C_19  and  C_21
REMARK                            x       y       z     vdW  Elec       q    Type
REMARK                         _______ _______ _______ _____ _____    ______ ____
ROOT
ATOM      1  C   UNL     1      12.468  10.609  12.448  0.00  0.00    +0.000 A 
ATOM      2  C   UNL     1      11.491  11.609  12.406  0.00  0.00    +0.000 A 
ATOM      3  C   UNL     1      11.848  11.977  14.777  0.00  0.00    +0.000 A 
ATOM      4  C   UNL     1      13.111  10.268  13.639  0.00  0.00    +0.000 A 
ATOM      5  C   UNL     1      11.192  12.293  13.587  0.00  0.00    +0.000 A 
ATOM      6  C   UNL     1      12.804  10.963  14.805  0.00  0.00    +0.000 A 
ENDROOT
BRANCH   2   7
ATOM      7  O   UNL     1      10.874  11.836  11.202  0.00  0.00    +0.000 OA
ATOM      8  C   UNL     1      10.993  13.136  10.695  0.00  0.00    +0.000 C 
ENDBRANCH   2   7
BRANCH   3   9
ATOM      9  C   UNL     1      11.533  12.690  15.971  0.00  0.00    +0.000 C 
ATOM     10  C   UNL     1      11.268  13.289  16.978  0.00  0.00    +0.000 C 
BRANCH  10  11
ATOM     11  C   UNL     1      10.927  14.050  18.263  0.00  0.00    +0.000 C 
BRANCH  11  12
ATOM     12  O   UNL     1      10.631  14.710  19.381  0.00  0.00    +0.000 OA
BRANCH  12  14
ATOM     13  O   UNL     1      10.604  17.040  19.194  0.00  0.00    +0.000 OA
ATOM     14  C   UNL     1      10.097  15.933  19.198  0.00  0.00    +0.000 C 
ATOM     15  C   UNL     1       8.625  15.934  18.957  0.00  0.00    +0.000 C 
ENDBRANCH  12  14
ENDBRANCH  11  12
ENDBRANCH  10  11
ENDBRANCH   3   9
BRANCH   1  16
ATOM     16  O   UNL     1      12.757   9.867  11.295  0.00  0.00    +0.000 OA
BRANCH  16  18
ATOM     17  O   UNL     1      14.408  11.395  10.707  0.00  0.00    +0.000 OA
ATOM     18  C   UNL     1      13.595  10.530  10.407  0.00  0.00    +0.000 C 
BRANCH  18  19
ATOM     19  C   UNL     1      13.366  10.058   9.019  0.00  0.00    +0.000 C 
ATOM     20  C   UNL     1      12.765  10.930   7.925  0.00  0.00    +0.000 C 
BRANCH  19  21
ATOM     21  C   UNL     1      13.726   8.728   8.675  0.00  0.00    +0.000 C 
ATOM     22  C   UNL     1      14.119   7.285   8.308  0.00  0.00    +0.000 C 
ENDBRANCH  19  21
ENDBRANCH  18  19
ENDBRANCH  16  18
ENDBRANCH   1  16
TORSDOF 9
ENDMDL
MODEL 7
REMARK VINA RESULT:      -4.3     29.445     31.113
REMARK  Name = 122180587_TripolinolateA.pdbqt.pdb
REMARK  9 active torsions:
REMARK  status: ('A' for Active; 'I' for Inactive)
REMARK    1  A    between atoms: C_1  and  O_16
REMARK    2  A    between atoms: C_2  and  O_7
REMARK    3  A    between atoms: C_3  and  C_9
REMARK    4  A    between atoms: C_10  and  C_11
REMARK    5  A    between atoms: C_11  and  O_12
REMARK    6  A    between atoms: O_12  and  C_14
REMARK    7  A    between atoms: O_16  and  C_18
REMARK    8  A    between atoms: C_18  and  C_19
REMARK    9  A    between atoms: C_19  and  C_21
REMARK                            x       y       z     vdW  Elec       q    Type
REMARK                         _______ _______ _______ _____ _____    ______ ____
ROOT
ATOM      1  C   UNL     1      28.184  11.322  -6.880  0.00  0.00    +0.000 A 
ATOM      2  C   UNL     1      27.648  12.369  -7.637  0.00  0.00    +0.000 A 
ATOM      3  C   UNL     1      25.740  10.955  -8.134  0.00  0.00    +0.000 A 
ATOM      4  C   UNL     1      27.532  10.093  -6.770  0.00  0.00    +0.000 A 
ATOM      5  C   UNL     1      26.412  12.171  -8.259  0.00  0.00    +0.000 A 
ATOM      6  C   UNL     1      26.300   9.916  -7.393  0.00  0.00    +0.000 A 
ENDROOT
BRANCH   2   7
ATOM      7  O   UNL     1      28.388  13.520  -7.732  0.00  0.00    +0.000 OA
ATOM      8  C   UNL     1      28.541  14.038  -9.025  0.00  0.00    +0.000 C 
ENDBRANCH   2   7
BRANCH   3   9
ATOM      9  C   UNL     1      24.478  10.774  -8.771  0.00  0.00    +0.000 C 
ATOM     10  C   UNL     1      23.414  10.620  -9.307  0.00  0.00    +0.000 C 
BRANCH  10  11
ATOM     11  C   UNL     1      22.056  10.419  -9.989  0.00  0.00    +0.000 C 
BRANCH  11  12
ATOM     12  O   UNL     1      20.878  10.245 -10.583  0.00  0.00    +0.000 OA
BRANCH  12  14
ATOM     13  O   UNL     1      19.226  11.750  -9.898  0.00  0.00    +0.000 OA
ATOM     14  C   UNL     1      19.814  10.685  -9.883  0.00  0.00    +0.000 C 
ATOM     15  C   UNL     1      19.258   9.693  -8.918  0.00  0.00    +0.000 C 
ENDBRANCH  12  14
ENDBRANCH  11  12
ENDBRANCH  10  11
ENDBRANCH   3   9
BRANCH   1  16
ATOM     16  O   UNL     1      29.445  11.467  -6.285  0.00  0.00    +0.000 OA
BRANCH  16  18
ATOM     17  O   UNL     1      30.677  11.041  -8.212  0.00  0.00    +0.000 OA
ATOM     18  C   UNL     1      30.470  10.878  -7.016  0.00  0.00    +0.000 C 
BRANCH  18  19
ATOM     19  C   UNL     1      31.291   9.997  -6.149  0.00  0.00    +0.000 C 
ATOM     20  C   UNL     1      30.735   8.775  -5.430  0.00  0.00    +0.000 C 
BRANCH  19  21
ATOM     21  C   UNL     1      32.669  10.290  -5.975  0.00  0.00    +0.000 C 
ATOM     22  C   UNL     1      34.164  10.605  -5.778  0.00  0.00    +0.000 C 
ENDBRANCH  19  21
ENDBRANCH  18  19
ENDBRANCH  16  18
ENDBRANCH   1  16
TORSDOF 9
ENDMDL
MODEL 8
REMARK VINA RESULT:      -4.1     19.966     22.984
REMARK  Name = 122180587_TripolinolateA.pdbqt.pdb
REMARK  9 active torsions:
REMARK  status: ('A' for Active; 'I' for Inactive)
REMARK    1  A    between atoms: C_1  and  O_16
REMARK    2  A    between atoms: C_2  and  O_7
REMARK    3  A    between atoms: C_3  and  C_9
REMARK    4  A    between atoms: C_10  and  C_11
REMARK    5  A    between atoms: C_11  and  O_12
REMARK    6  A    between atoms: O_12  and  C_14
REMARK    7  A    between atoms: O_16  and  C_18
REMARK    8  A    between atoms: C_18  and  C_19
REMARK    9  A    between atoms: C_19  and  C_21
REMARK                            x       y       z     vdW  Elec       q    Type
REMARK                         _______ _______ _______ _____ _____    ______ ____
ROOT
ATOM      1  C   UNL     1      44.344  17.618  15.552  0.00  0.00    +0.000 A 
ATOM      2  C   UNL     1      43.642  18.497  16.383  0.00  0.00    +0.000 A 
ATOM      3  C   UNL     1      42.602  16.577  17.439  0.00  0.00    +0.000 A 
ATOM      4  C   UNL     1      44.161  16.236  15.632  0.00  0.00    +0.000 A 
ATOM      5  C   UNL     1      42.771  17.957  17.333  0.00  0.00    +0.000 A 
ATOM      6  C   UNL     1      43.293  15.717  16.587  0.00  0.00    +0.000 A 
ENDROOT
BRANCH   2   7
ATOM      7  O   UNL     1      43.846  19.841  16.193  0.00  0.00    +0.000 OA
ATOM      8  C   UNL     1      44.361  20.538  17.294  0.00  0.00    +0.000 C 
ENDBRANCH   2   7
BRANCH   3   9
ATOM      9  C   UNL     1      41.712  16.044  18.418  0.00  0.00    +0.000 C 
ATOM     10  C   UNL     1      40.961  15.596  19.241  0.00  0.00    +0.000 C 
BRANCH  10  11
ATOM     11  C   UNL     1      40.002  15.029  20.292  0.00  0.00    +0.000 C 
BRANCH  11  12
ATOM     12  O   UNL     1      39.167  14.537  21.204  0.00  0.00    +0.000 OA
BRANCH  12  14
ATOM     13  O   UNL     1      38.754  12.605  19.954  0.00  0.00    +0.000 OA
ATOM     14  C   UNL     1      38.728  13.286  20.963  0.00  0.00    +0.000 C 
ATOM     15  C   UNL     1      38.098  12.616  22.137  0.00  0.00    +0.000 C 
ENDBRANCH  12  14
ENDBRANCH  11  12
ENDBRANCH  10  11
ENDBRANCH   3   9
BRANCH   1  16
ATOM     16  O   UNL     1      45.187  18.126  14.553  0.00  0.00    +0.000 OA
BRANCH  16  18
ATOM     17  O   UNL     1      47.095  18.396  15.856  0.00  0.00    +0.000 OA
ATOM     18  C   UNL     1      46.537  17.983  14.846  0.00  0.00    +0.000 C 
BRANCH  18  19
ATOM     19  C   UNL     1      47.237  17.267  13.751  0.00  0.00    +0.000 C 
ATOM     20  C   UNL     1      48.160  17.956  12.754  0.00  0.00    +0.000 C 
BRANCH  19  21
ATOM     21  C   UNL     1      47.053  15.866  13.615  0.00  0.00    +0.000 C 
ATOM     22  C   UNL     1      46.849  14.347  13.460  0.00  0.00    +0.000 C 
ENDBRANCH  19  21
ENDBRANCH  18  19
ENDBRANCH  16  18
ENDBRANCH   1  16
TORSDOF 9
ENDMDL
MODEL 9
REMARK VINA RESULT:      -4.1     34.122     38.242
REMARK  Name = 122180587_TripolinolateA.pdbqt.pdb
REMARK  9 active torsions:
REMARK  status: ('A' for Active; 'I' for Inactive)
REMARK    1  A    between atoms: C_1  and  O_16
REMARK    2  A    between atoms: C_2  and  O_7
REMARK    3  A    between atoms: C_3  and  C_9
REMARK    4  A    between atoms: C_10  and  C_11
REMARK    5  A    between atoms: C_11  and  O_12
REMARK    6  A    between atoms: O_12  and  C_14
REMARK    7  A    between atoms: O_16  and  C_18
REMARK    8  A    between atoms: C_18  and  C_19
REMARK    9  A    between atoms: C_19  and  C_21
REMARK                            x       y       z     vdW  Elec       q    Type
REMARK                         _______ _______ _______ _____ _____    ______ ____
ROOT
ATOM      1  C   UNL     1      12.408  10.834  14.333  0.00  0.00    +0.000 A 
ATOM      2  C   UNL     1      11.014  10.792  14.431  0.00  0.00    +0.000 A 
ATOM      3  C   UNL     1      11.140  12.498  16.150  0.00  0.00    +0.000 A 
ATOM      4  C   UNL     1      13.172  11.669  15.151  0.00  0.00    +0.000 A 
ATOM      5  C   UNL     1      10.388  11.641  15.347  0.00  0.00    +0.000 A 
ATOM      6  C   UNL     1      12.530  12.511  16.055  0.00  0.00    +0.000 A 
ENDROOT
BRANCH   2   7
ATOM      7  O   UNL     1      10.353   9.899  13.625  0.00  0.00    +0.000 OA
ATOM      8  C   UNL     1       9.298  10.427  12.871  0.00  0.00    +0.000 C 
ENDBRANCH   2   7
BRANCH   3   9
ATOM      9  C   UNL     1      10.483  13.361  17.077  0.00  0.00    +0.000 C 
ATOM     10  C   UNL     1       9.930  14.086  17.858  0.00  0.00    +0.000 C 
BRANCH  10  11
ATOM     11  C   UNL     1       9.222  15.008  18.856  0.00  0.00    +0.000 C 
BRANCH  11  12
ATOM     12  O   UNL     1       8.608  15.808  19.724  0.00  0.00    +0.000 OA
BRANCH  12  14
ATOM     13  O   UNL     1       9.773  17.685  18.956  0.00  0.00    +0.000 OA
ATOM     14  C   UNL     1       8.938  17.112  19.632  0.00  0.00    +0.000 C 
ATOM     15  C   UNL     1       8.141  18.013  20.513  0.00  0.00    +0.000 C 
ENDBRANCH  12  14
ENDBRANCH  11  12
ENDBRANCH  10  11
ENDBRANCH   3   9
BRANCH   1  16
ATOM     16  O   UNL     1      13.073   9.960  13.462  0.00  0.00    +0.000 OA
BRANCH  16  18
ATOM     17  O   UNL     1      14.820  11.153  12.496  0.00  0.00    +0.000 OA
ATOM     18  C   UNL     1      13.725  10.609  12.421  0.00  0.00    +0.000 C 
BRANCH  18  19
ATOM     19  C   UNL     1      12.904  10.574  11.186  0.00  0.00    +0.000 C 
ATOM     20  C   UNL     1      12.167   9.331  10.704  0.00  0.00    +0.000 C 
BRANCH  19  21
ATOM     21  C   UNL     1      12.783  11.753  10.404  0.00  0.00    +0.000 C 
ATOM     22  C   UNL     1      12.656  13.036   9.562  0.00  0.00    +0.000 C 
ENDBRANCH  19  21
ENDBRANCH  18  19
ENDBRANCH  16  18
ENDBRANCH   1  16
TORSDOF 9
ENDMDL
