MODEL 1
REMARK VINA RESULT:      -6.2      0.000      0.000
REMARK  Name = 122178712_SalternamideA.pdbqt.pdb
REMARK  8 active torsions:
REMARK  status: ('A' for Active; 'I' for Inactive)
REMARK    1  A    between atoms: C_3  and  O_24
REMARK    2  A    between atoms: C_3  and  C_26
REMARK    3  A    between atoms: C_6  and  N_10
REMARK    4  A    between atoms: C_11  and  C_14
REMARK    5  A    between atoms: C_13  and  C_15
REMARK    6  A    between atoms: C_27  and  C_28
REMARK    7  A    between atoms: C_29  and  C_31
REMARK    8  A    between atoms: C_31  and  O_32
REMARK                            x       y       z     vdW  Elec       q    Type
REMARK                         _______ _______ _______ _____ _____    ______ ____
ROOT
ATOM      1 CL   UNL     1      13.445  21.453   3.030  0.00  0.00    +0.000 Cl
ATOM      2  O   UNL     1      12.860  19.138   5.089  0.00  0.00    +0.000 OA
ATOM      3  C   UNL     1      15.986  18.376   2.224  0.00  0.00    +0.000 C 
ATOM      4  C   UNL     1      15.479  17.572   3.348  0.00  0.00    +0.000 C 
ATOM      5  C   UNL     1      15.096  19.539   2.373  0.00  0.00    +0.000 C 
ATOM      6  C   UNL     1      14.564  17.650   4.272  0.00  0.00    +0.000 C 
ATOM      7  C   UNL     1      14.119  19.904   3.152  0.00  0.00    +0.000 C 
ATOM      8  C   UNL     1      13.736  18.940   4.257  0.00  0.00    +0.000 C 
ENDROOT
BRANCH   6  10
ATOM      9  O   UNL     1      12.563  15.518   4.248  0.00  0.00    +0.000 OA
ATOM     10  N   UNL     1      14.298  16.707   5.231  0.00  0.00    +0.000 N 
ATOM     11  C   UNL     1      13.343  15.723   5.167  0.00  0.00    +0.000 C 
ATOM     12  H   UNL     1      14.878  16.762   6.065  0.00  0.00    +0.000 HD
BRANCH  11  14
ATOM     13  C   UNL     1      13.235  14.155   7.295  0.00  0.00    +0.000 C 
ATOM     14  C   UNL     1      13.285  14.861   6.324  0.00  0.00    +0.000 C 
BRANCH  13  15
ATOM     15  C   UNL     1      13.171  13.327   8.442  0.00  0.00    +0.000 C 
ATOM     16  C   UNL     1      13.183  11.838   8.243  0.00  0.00    +0.000 C 
ATOM     17  C   UNL     1      13.044  13.796   9.765  0.00  0.00    +0.000 C 
ATOM     18  C   UNL     1      12.921  14.251  11.094  0.00  0.00    +0.000 C 
ATOM     19  C   UNL     1      13.288  15.678  11.374  0.00  0.00    +0.000 C 
ATOM     20  C   UNL     1      12.456  13.470  12.165  0.00  0.00    +0.000 C 
ATOM     21  C   UNL     1      12.024  12.757  13.148  0.00  0.00    +0.000 C 
ATOM     22  C   UNL     1      12.989  11.926  13.935  0.00  0.00    +0.000 C 
ATOM     23  C   UNL     1      10.553  12.503  13.274  0.00  0.00    +0.000 C 
ENDBRANCH  13  15
ENDBRANCH  11  14
ENDBRANCH   6  10
BRANCH   3  24
ATOM     24  O   UNL     1      15.694  17.719   1.009  0.00  0.00    +0.000 OA
ATOM     25  H   UNL     1      16.382  17.041   0.900  0.00  0.00    +0.000 HD
ENDBRANCH   3  24
BRANCH   3  26
ATOM     26  C   UNL     1      17.407  18.695   2.304  0.00  0.00    +0.000 C 
ATOM     27  C   UNL     1      18.898  19.034   2.385  0.00  0.00    +0.000 C 
BRANCH  27  28
ATOM     28  C   UNL     1      20.388  19.378   2.463  0.00  0.00    +0.000 C 
ATOM     29  C   UNL     1      21.879  19.720   2.539  0.00  0.00    +0.000 C 
BRANCH  29  31
ATOM     30  O   UNL     1      23.798  20.908   1.932  0.00  0.00    +0.000 OA
ATOM     31  C   UNL     1      23.272  20.041   2.609  0.00  0.00    +0.000 C 
BRANCH  31  32
ATOM     32  O   UNL     1      23.960  19.299   3.495  0.00  0.00    +0.000 OA
ATOM     33  H   UNL     1      24.271  19.954   4.153  0.00  0.00    +0.000 HD
ENDBRANCH  31  32
ENDBRANCH  29  31
ENDBRANCH  27  28
ENDBRANCH   3  26
TORSDOF 8
ENDMDL
MODEL 2
REMARK VINA RESULT:      -5.8     27.527     31.259
REMARK  Name = 122178712_SalternamideA.pdbqt.pdb
REMARK  8 active torsions:
REMARK  status: ('A' for Active; 'I' for Inactive)
REMARK    1  A    between atoms: C_3  and  O_24
REMARK    2  A    between atoms: C_3  and  C_26
REMARK    3  A    between atoms: C_6  and  N_10
REMARK    4  A    between atoms: C_11  and  C_14
REMARK    5  A    between atoms: C_13  and  C_15
REMARK    6  A    between atoms: C_27  and  C_28
REMARK    7  A    between atoms: C_29  and  C_31
REMARK    8  A    between atoms: C_31  and  O_32
REMARK                            x       y       z     vdW  Elec       q    Type
REMARK                         _______ _______ _______ _____ _____    ______ ____
ROOT
ATOM      1 CL   UNL     1      24.824  -9.235  26.462  0.00  0.00    +0.000 Cl
ATOM      2  O   UNL     1      26.159  -8.894  23.625  0.00  0.00    +0.000 OA
ATOM      3  C   UNL     1      23.984  -5.486  25.115  0.00  0.00    +0.000 C 
ATOM      4  C   UNL     1      24.767  -5.679  23.883  0.00  0.00    +0.000 C 
ATOM      5  C   UNL     1      24.169  -6.825  25.698  0.00  0.00    +0.000 C 
ATOM      6  C   UNL     1      25.454  -6.617  23.297  0.00  0.00    +0.000 C 
ATOM      7  C   UNL     1      24.765  -7.935  25.376  0.00  0.00    +0.000 C 
ATOM      8  C   UNL     1      25.525  -7.943  24.065  0.00  0.00    +0.000 C 
ENDROOT
BRANCH   6  10
ATOM      9  O   UNL     1      24.644  -7.629  20.677  0.00  0.00    +0.000 OA
ATOM     10  N   UNL     1      26.105  -6.516  22.095  0.00  0.00    +0.000 N 
ATOM     11  C   UNL     1      25.677  -7.011  20.889  0.00  0.00    +0.000 C 
ATOM     12  H   UNL     1      26.994  -6.021  22.125  0.00  0.00    +0.000 HD
BRANCH  11  14
ATOM     13  C   UNL     1      27.293  -6.538  18.850  0.00  0.00    +0.000 C 
ATOM     14  C   UNL     1      26.565  -6.753  19.780  0.00  0.00    +0.000 C 
BRANCH  13  15
ATOM     15  C   UNL     1      28.147  -6.279  17.749  0.00  0.00    +0.000 C 
ATOM     16  C   UNL     1      29.615  -6.104  18.018  0.00  0.00    +0.000 C 
ATOM     17  C   UNL     1      27.715  -6.121  16.417  0.00  0.00    +0.000 C 
ATOM     18  C   UNL     1      27.298  -5.964  15.080  0.00  0.00    +0.000 C 
ATOM     19  C   UNL     1      25.947  -6.500  14.708  0.00  0.00    +0.000 C 
ATOM     20  C   UNL     1      28.047  -5.322  14.080  0.00  0.00    +0.000 C 
ATOM     21  C   UNL     1      28.730  -4.726  13.163  0.00  0.00    +0.000 C 
ATOM     22  C   UNL     1      29.715  -5.511  12.353  0.00  0.00    +0.000 C 
ATOM     23  C   UNL     1      28.782  -3.230  13.147  0.00  0.00    +0.000 C 
ENDBRANCH  13  15
ENDBRANCH  11  14
ENDBRANCH   6  10
BRANCH   3  24
ATOM     24  O   UNL     1      22.623  -5.309  24.781  0.00  0.00    +0.000 OA
ATOM     25  H   UNL     1      22.232  -4.801  25.513  0.00  0.00    +0.000 HD
ENDBRANCH   3  24
BRANCH   3  26
ATOM     26  C   UNL     1      24.449  -4.394  25.960  0.00  0.00    +0.000 C 
ATOM     27  C   UNL     1      24.933  -3.246  26.851  0.00  0.00    +0.000 C 
BRANCH  27  28
ATOM     28  C   UNL     1      25.414  -2.099  27.745  0.00  0.00    +0.000 C 
ATOM     29  C   UNL     1      25.891  -0.950  28.638  0.00  0.00    +0.000 C 
BRANCH  29  31
ATOM     30  O   UNL     1      26.156   1.299  29.213  0.00  0.00    +0.000 OA
ATOM     31  C   UNL     1      26.338   0.123  29.474  0.00  0.00    +0.000 C 
BRANCH  31  32
ATOM     32  O   UNL     1      26.982  -0.281  30.584  0.00  0.00    +0.000 OA
ATOM     33  H   UNL     1      26.687   0.357  31.266  0.00  0.00    +0.000 HD
ENDBRANCH  31  32
ENDBRANCH  29  31
ENDBRANCH  27  28
ENDBRANCH   3  26
TORSDOF 8
ENDMDL
MODEL 3
REMARK VINA RESULT:      -5.4      1.511      1.943
REMARK  Name = 122178712_SalternamideA.pdbqt.pdb
REMARK  8 active torsions:
REMARK  status: ('A' for Active; 'I' for Inactive)
REMARK    1  A    between atoms: C_3  and  O_24
REMARK    2  A    between atoms: C_3  and  C_26
REMARK    3  A    between atoms: C_6  and  N_10
REMARK    4  A    between atoms: C_11  and  C_14
REMARK    5  A    between atoms: C_13  and  C_15
REMARK    6  A    between atoms: C_27  and  C_28
REMARK    7  A    between atoms: C_29  and  C_31
REMARK    8  A    between atoms: C_31  and  O_32
REMARK                            x       y       z     vdW  Elec       q    Type
REMARK                         _______ _______ _______ _____ _____    ______ ____
ROOT
ATOM      1 CL   UNL     1      11.768  19.967   3.957  0.00  0.00    +0.000 Cl
ATOM      2  O   UNL     1      11.691  17.630   6.072  0.00  0.00    +0.000 OA
ATOM      3  C   UNL     1      14.848  17.430   3.148  0.00  0.00    +0.000 C 
ATOM      4  C   UNL     1      14.531  16.569   4.299  0.00  0.00    +0.000 C 
ATOM      5  C   UNL     1      13.750  18.399   3.296  0.00  0.00    +0.000 C 
ATOM      6  C   UNL     1      13.638  16.487   5.243  0.00  0.00    +0.000 C 
ATOM      7  C   UNL     1      12.736  18.583   4.091  0.00  0.00    +0.000 C 
ATOM      8  C   UNL     1      12.572  17.589   5.224  0.00  0.00    +0.000 C 
ENDROOT
BRANCH   6  10
ATOM      9  O   UNL     1      12.666  13.734   5.077  0.00  0.00    +0.000 OA
ATOM     10  N   UNL     1      13.581  15.532   6.225  0.00  0.00    +0.000 N 
ATOM     11  C   UNL     1      13.113  14.248   6.092  0.00  0.00    +0.000 C 
ATOM     12  H   UNL     1      13.923  15.829   7.137  0.00  0.00    +0.000 HD
BRANCH  11  14
ATOM     13  C   UNL     1      13.226  12.783   8.291  0.00  0.00    +0.000 C 
ATOM     14  C   UNL     1      13.175  13.455   7.296  0.00  0.00    +0.000 C 
BRANCH  13  15
ATOM     15  C   UNL     1      13.289  11.986   9.460  0.00  0.00    +0.000 C 
ATOM     16  C   UNL     1      13.929  10.630   9.358  0.00  0.00    +0.000 C 
ATOM     17  C   UNL     1      12.749  12.347  10.710  0.00  0.00    +0.000 C 
ATOM     18  C   UNL     1      12.216  12.697  11.967  0.00  0.00    +0.000 C 
ATOM     19  C   UNL     1      11.926  14.148  12.217  0.00  0.00    +0.000 C 
ATOM     20  C   UNL     1      11.914  11.782  12.989  0.00  0.00    +0.000 C 
ATOM     21  C   UNL     1      11.631  10.943  13.926  0.00  0.00    +0.000 C 
ATOM     22  C   UNL     1      12.688  10.562  14.917  0.00  0.00    +0.000 C 
ATOM     23  C   UNL     1      10.388  10.116  13.815  0.00  0.00    +0.000 C 
ENDBRANCH  13  15
ENDBRANCH  11  14
ENDBRANCH   6  10
BRANCH   3  24
ATOM     24  O   UNL     1      14.666  16.700   1.953  0.00  0.00    +0.000 OA
ATOM     25  H   UNL     1      15.406  16.949   1.373  0.00  0.00    +0.000 HD
ENDBRANCH   3  24
BRANCH   3  26
ATOM     26  C   UNL     1      16.180  18.023   3.188  0.00  0.00    +0.000 C 
ATOM     27  C   UNL     1      17.577  18.649   3.226  0.00  0.00    +0.000 C 
BRANCH  27  28
ATOM     28  C   UNL     1      18.972  19.278   3.260  0.00  0.00    +0.000 C 
ATOM     29  C   UNL     1      20.370  19.904   3.294  0.00  0.00    +0.000 C 
BRANCH  29  31
ATOM     30  O   UNL     1      22.657  19.973   2.819  0.00  0.00    +0.000 OA
ATOM     31  C   UNL     1      21.675  20.490   3.324  0.00  0.00    +0.000 C 
BRANCH  31  32
ATOM     32  O   UNL     1      21.730  21.671   3.965  0.00  0.00    +0.000 OA
ATOM     33  H   UNL     1      22.670  21.749   4.226  0.00  0.00    +0.000 HD
ENDBRANCH  31  32
ENDBRANCH  29  31
ENDBRANCH  27  28
ENDBRANCH   3  26
TORSDOF 8
ENDMDL
MODEL 4
REMARK VINA RESULT:      -5.4     25.913     31.385
REMARK  Name = 122178712_SalternamideA.pdbqt.pdb
REMARK  8 active torsions:
REMARK  status: ('A' for Active; 'I' for Inactive)
REMARK    1  A    between atoms: C_3  and  O_24
REMARK    2  A    between atoms: C_3  and  C_26
REMARK    3  A    between atoms: C_6  and  N_10
REMARK    4  A    between atoms: C_11  and  C_14
REMARK    5  A    between atoms: C_13  and  C_15
REMARK    6  A    between atoms: C_27  and  C_28
REMARK    7  A    between atoms: C_29  and  C_31
REMARK    8  A    between atoms: C_31  and  O_32
REMARK                            x       y       z     vdW  Elec       q    Type
REMARK                         _______ _______ _______ _____ _____    ______ ____
ROOT
ATOM      1 CL   UNL     1      38.256  15.749  22.314  0.00  0.00    +0.000 Cl
ATOM      2  O   UNL     1      40.656  15.962  20.280  0.00  0.00    +0.000 OA
ATOM      3  C   UNL     1      39.373  11.973  21.282  0.00  0.00    +0.000 C 
ATOM      4  C   UNL     1      40.403  12.459  20.349  0.00  0.00    +0.000 C 
ATOM      5  C   UNL     1      38.901  13.276  21.778  0.00  0.00    +0.000 C 
ATOM      6  C   UNL     1      40.906  13.592  19.951  0.00  0.00    +0.000 C 
ATOM      7  C   UNL     1      39.188  14.532  21.594  0.00  0.00    +0.000 C 
ATOM      8  C   UNL     1      40.281  14.838  20.590  0.00  0.00    +0.000 C 
ENDROOT
BRANCH   6  10
ATOM      9  O   UNL     1      43.800  13.453  20.339  0.00  0.00    +0.000 OA
ATOM     10  N   UNL     1      41.908  13.756  19.030  0.00  0.00    +0.000 N 
ATOM     11  C   UNL     1      43.258  13.678  19.267  0.00  0.00    +0.000 C 
ATOM     12  H   UNL     1      41.596  13.956  18.081  0.00  0.00    +0.000 HD
BRANCH  11  14
ATOM     13  C   UNL     1      44.785  14.053  17.141  0.00  0.00    +0.000 C 
ATOM     14  C   UNL     1      44.089  13.890  18.106  0.00  0.00    +0.000 C 
BRANCH  13  15
ATOM     15  C   UNL     1      45.606  14.237  16.001  0.00  0.00    +0.000 C 
ATOM     16  C   UNL     1      46.288  13.033  15.417  0.00  0.00    +0.000 C 
ATOM     17  C   UNL     1      45.874  15.482  15.397  0.00  0.00    +0.000 C 
ATOM     18  C   UNL     1      46.150  16.719  14.781  0.00  0.00    +0.000 C 
ATOM     19  C   UNL     1      45.217  17.859  15.069  0.00  0.00    +0.000 C 
ATOM     20  C   UNL     1      47.246  16.966  13.939  0.00  0.00    +0.000 C 
ATOM     21  C   UNL     1      48.255  17.196  13.170  0.00  0.00    +0.000 C 
ATOM     22  C   UNL     1      48.136  16.934  11.701  0.00  0.00    +0.000 C 
ATOM     23  C   UNL     1      49.609  17.388  13.781  0.00  0.00    +0.000 C 
ENDBRANCH  13  15
ENDBRANCH  11  14
ENDBRANCH   6  10
BRANCH   3  24
ATOM     24  O   UNL     1      39.993  11.270  22.338  0.00  0.00    +0.000 OA
ATOM     25  H   UNL     1      40.080  11.907  23.068  0.00  0.00    +0.000 HD
ENDBRANCH   3  24
BRANCH   3  26
ATOM     26  C   UNL     1      38.337  11.156  20.663  0.00  0.00    +0.000 C 
ATOM     27  C   UNL     1      37.250  10.293  20.015  0.00  0.00    +0.000 C 
BRANCH  27  28
ATOM     28  C   UNL     1      36.165   9.426  19.369  0.00  0.00    +0.000 C 
ATOM     29  C   UNL     1      35.082   8.557  18.725  0.00  0.00    +0.000 C 
BRANCH  29  31
ATOM     30  O   UNL     1      34.160   6.536  17.999  0.00  0.00    +0.000 OA
ATOM     31  C   UNL     1      34.068   7.744  18.124  0.00  0.00    +0.000 C 
BRANCH  31  32
ATOM     32  O   UNL     1      32.993   8.434  17.702  0.00  0.00    +0.000 OA
ATOM     33  H   UNL     1      33.340   8.970  16.959  0.00  0.00    +0.000 HD
ENDBRANCH  31  32
ENDBRANCH  29  31
ENDBRANCH  27  28
ENDBRANCH   3  26
TORSDOF 8
ENDMDL
MODEL 5
REMARK VINA RESULT:      -5.3     26.318     31.631
REMARK  Name = 122178712_SalternamideA.pdbqt.pdb
REMARK  8 active torsions:
REMARK  status: ('A' for Active; 'I' for Inactive)
REMARK    1  A    between atoms: C_3  and  O_24
REMARK    2  A    between atoms: C_3  and  C_26
REMARK    3  A    between atoms: C_6  and  N_10
REMARK    4  A    between atoms: C_11  and  C_14
REMARK    5  A    between atoms: C_13  and  C_15
REMARK    6  A    between atoms: C_27  and  C_28
REMARK    7  A    between atoms: C_29  and  C_31
REMARK    8  A    between atoms: C_31  and  O_32
REMARK                            x       y       z     vdW  Elec       q    Type
REMARK                         _______ _______ _______ _____ _____    ______ ____
ROOT
ATOM      1 CL   UNL     1      39.058  16.285  21.048  0.00  0.00    +0.000 Cl
ATOM      2  O   UNL     1      41.426  15.898  19.002  0.00  0.00    +0.000 OA
ATOM      3  C   UNL     1      39.784  12.295  20.700  0.00  0.00    +0.000 C 
ATOM      4  C   UNL     1      40.838  12.505  19.692  0.00  0.00    +0.000 C 
ATOM      5  C   UNL     1      39.451  13.705  20.958  0.00  0.00    +0.000 C 
ATOM      6  C   UNL     1      41.439  13.495  19.098  0.00  0.00    +0.000 C 
ATOM      7  C   UNL     1      39.853  14.874  20.553  0.00  0.00    +0.000 C 
ATOM      8  C   UNL     1      40.951  14.889  19.507  0.00  0.00    +0.000 C 
ENDROOT
BRANCH   6  10
ATOM      9  O   UNL     1      44.311  13.121  19.496  0.00  0.00    +0.000 OA
ATOM     10  N   UNL     1      42.433  13.394  18.160  0.00  0.00    +0.000 N 
ATOM     11  C   UNL     1      43.773  13.217  18.403  0.00  0.00    +0.000 C 
ATOM     12  H   UNL     1      42.124  13.461  17.192  0.00  0.00    +0.000 HD
BRANCH  11  14
ATOM     13  C   UNL     1      45.273  13.067  16.230  0.00  0.00    +0.000 C 
ATOM     14  C   UNL     1      44.597  13.140  17.220  0.00  0.00    +0.000 C 
BRANCH  13  15
ATOM     15  C   UNL     1      46.063  12.982  15.057  0.00  0.00    +0.000 C 
ATOM     16  C   UNL     1      45.895  14.047  14.011  0.00  0.00    +0.000 C 
ATOM     17  C   UNL     1      46.966  11.939  14.771  0.00  0.00    +0.000 C 
ATOM     18  C   UNL     1      47.876  10.904  14.473  0.00  0.00    +0.000 C 
ATOM     19  C   UNL     1      48.358  10.056  15.613  0.00  0.00    +0.000 C 
ATOM     20  C   UNL     1      48.342  10.596  13.184  0.00  0.00    +0.000 C 
ATOM     21  C   UNL     1      48.765  10.309  12.001  0.00  0.00    +0.000 C 
ATOM     22  C   UNL     1      49.980  11.001  11.466  0.00  0.00    +0.000 C 
ATOM     23  C   UNL     1      47.866   9.562  11.066  0.00  0.00    +0.000 C 
ENDBRANCH  13  15
ENDBRANCH  11  14
ENDBRANCH   6  10
BRANCH   3  24
ATOM     24  O   UNL     1      40.355  11.732  21.862  0.00  0.00    +0.000 OA
ATOM     25  H   UNL     1      40.236  10.770  21.779  0.00  0.00    +0.000 HD
ENDBRANCH   3  24
BRANCH   3  26
ATOM     26  C   UNL     1      38.662  11.488  20.239  0.00  0.00    +0.000 C 
ATOM     27  C   UNL     1      37.483  10.636  19.759  0.00  0.00    +0.000 C 
BRANCH  27  28
ATOM     28  C   UNL     1      36.304   9.782  19.283  0.00  0.00    +0.000 C 
ATOM     29  C   UNL     1      35.127   8.927  18.805  0.00  0.00    +0.000 C 
BRANCH  29  31
ATOM     30  O   UNL     1      32.963   8.592  17.988  0.00  0.00    +0.000 OA
ATOM     31  C   UNL     1      34.027   8.127  18.359  0.00  0.00    +0.000 C 
BRANCH  31  32
ATOM     32  O   UNL     1      34.267   6.804  18.385  0.00  0.00    +0.000 OA
ATOM     33  H   UNL     1      33.699   6.480  19.113  0.00  0.00    +0.000 HD
ENDBRANCH  31  32
ENDBRANCH  29  31
ENDBRANCH  27  28
ENDBRANCH   3  26
TORSDOF 8
ENDMDL
MODEL 6
REMARK VINA RESULT:      -5.3     26.781     30.487
REMARK  Name = 122178712_SalternamideA.pdbqt.pdb
REMARK  8 active torsions:
REMARK  status: ('A' for Active; 'I' for Inactive)
REMARK    1  A    between atoms: C_3  and  O_24
REMARK    2  A    between atoms: C_3  and  C_26
REMARK    3  A    between atoms: C_6  and  N_10
REMARK    4  A    between atoms: C_11  and  C_14
REMARK    5  A    between atoms: C_13  and  C_15
REMARK    6  A    between atoms: C_27  and  C_28
REMARK    7  A    between atoms: C_29  and  C_31
REMARK    8  A    between atoms: C_31  and  O_32
REMARK                            x       y       z     vdW  Elec       q    Type
REMARK                         _______ _______ _______ _____ _____    ______ ____
ROOT
ATOM      1 CL   UNL     1      24.402  -9.006  25.711  0.00  0.00    +0.000 Cl
ATOM      2  O   UNL     1      24.885  -8.234  22.692  0.00  0.00    +0.000 OA
ATOM      3  C   UNL     1      23.147  -5.171  25.173  0.00  0.00    +0.000 C 
ATOM      4  C   UNL     1      23.558  -5.162  23.760  0.00  0.00    +0.000 C 
ATOM      5  C   UNL     1      23.513  -6.560  25.495  0.00  0.00    +0.000 C 
ATOM      6  C   UNL     1      24.072  -5.978  22.885  0.00  0.00    +0.000 C 
ATOM      7  C   UNL     1      24.017  -7.586  24.873  0.00  0.00    +0.000 C 
ATOM      8  C   UNL     1      24.380  -7.384  23.415  0.00  0.00    +0.000 C 
ENDROOT
BRANCH   6  10
ATOM      9  O   UNL     1      22.443  -6.435  20.501  0.00  0.00    +0.000 OA
ATOM     10  N   UNL     1      24.360  -5.689  21.577  0.00  0.00    +0.000 N 
ATOM     11  C   UNL     1      23.554  -5.925  20.491  0.00  0.00    +0.000 C 
ATOM     12  H   UNL     1      25.269  -5.258  21.418  0.00  0.00    +0.000 HD
BRANCH  11  14
ATOM     13  C   UNL     1      24.587  -5.173  18.175  0.00  0.00    +0.000 C 
ATOM     14  C   UNL     1      24.111  -5.513  19.224  0.00  0.00    +0.000 C 
BRANCH  13  15
ATOM     15  C   UNL     1      25.155  -4.777  16.939  0.00  0.00    +0.000 C 
ATOM     16  C   UNL     1      24.266  -4.092  15.940  0.00  0.00    +0.000 C 
ATOM     17  C   UNL     1      26.486  -5.025  16.550  0.00  0.00    +0.000 C 
ATOM     18  C   UNL     1      27.816  -5.263  16.148  0.00  0.00    +0.000 C 
ATOM     19  C   UNL     1      28.817  -5.580  17.220  0.00  0.00    +0.000 C 
ATOM     20  C   UNL     1      28.263  -5.248  14.817  0.00  0.00    +0.000 C 
ATOM     21  C   UNL     1      28.674  -5.242  13.595  0.00  0.00    +0.000 C 
ATOM     22  C   UNL     1      29.131  -3.955  12.980  0.00  0.00    +0.000 C 
ATOM     23  C   UNL     1      28.375  -6.418  12.718  0.00  0.00    +0.000 C 
ENDBRANCH  13  15
ENDBRANCH  11  14
ENDBRANCH   6  10
BRANCH   3  24
ATOM     24  O   UNL     1      21.743  -5.030  25.253  0.00  0.00    +0.000 OA
ATOM     25  H   UNL     1      21.514  -5.165  26.188  0.00  0.00    +0.000 HD
ENDBRANCH   3  24
BRANCH   3  26
ATOM     26  C   UNL     1      23.808  -4.169  26.000  0.00  0.00    +0.000 C 
ATOM     27  C   UNL     1      24.502  -3.120  26.874  0.00  0.00    +0.000 C 
BRANCH  27  28
ATOM     28  C   UNL     1      25.194  -2.073  27.751  0.00  0.00    +0.000 C 
ATOM     29  C   UNL     1      25.886  -1.027  28.630  0.00  0.00    +0.000 C 
BRANCH  29  31
ATOM     30  O   UNL     1      26.367   1.150  29.329  0.00  0.00    +0.000 OA
ATOM     31  C   UNL     1      26.535  -0.051  29.451  0.00  0.00    +0.000 C 
BRANCH  31  32
ATOM     32  O   UNL     1      27.355  -0.574  30.379  0.00  0.00    +0.000 OA
ATOM     33  H   UNL     1      28.248  -0.450  29.996  0.00  0.00    +0.000 HD
ENDBRANCH  31  32
ENDBRANCH  29  31
ENDBRANCH  27  28
ENDBRANCH   3  26
TORSDOF 8
ENDMDL
MODEL 7
REMARK VINA RESULT:      -5.2     28.911     33.568
REMARK  Name = 122178712_SalternamideA.pdbqt.pdb
REMARK  8 active torsions:
REMARK  status: ('A' for Active; 'I' for Inactive)
REMARK    1  A    between atoms: C_3  and  O_24
REMARK    2  A    between atoms: C_3  and  C_26
REMARK    3  A    between atoms: C_6  and  N_10
REMARK    4  A    between atoms: C_11  and  C_14
REMARK    5  A    between atoms: C_13  and  C_15
REMARK    6  A    between atoms: C_27  and  C_28
REMARK    7  A    between atoms: C_29  and  C_31
REMARK    8  A    between atoms: C_31  and  O_32
REMARK                            x       y       z     vdW  Elec       q    Type
REMARK                         _______ _______ _______ _____ _____    ______ ____
ROOT
ATOM      1 CL   UNL     1      24.259   7.009  40.975  0.00  0.00    +0.000 Cl
ATOM      2  O   UNL     1      23.508   9.355  39.007  0.00  0.00    +0.000 OA
ATOM      3  C   UNL     1      24.641   5.630  37.163  0.00  0.00    +0.000 C 
ATOM      4  C   UNL     1      24.184   6.904  36.584  0.00  0.00    +0.000 C 
ATOM      5  C   UNL     1      24.593   6.011  38.584  0.00  0.00    +0.000 C 
ATOM      6  C   UNL     1      23.825   8.089  36.986  0.00  0.00    +0.000 C 
ATOM      7  C   UNL     1      24.298   7.069  39.282  0.00  0.00    +0.000 C 
ATOM      8  C   UNL     1      23.845   8.290  38.506  0.00  0.00    +0.000 C 
ENDROOT
BRANCH   6  10
ATOM      9  O   UNL     1      25.423  10.298  35.934  0.00  0.00    +0.000 OA
ATOM     10  N   UNL     1      23.433   9.132  36.189  0.00  0.00    +0.000 N 
ATOM     11  C   UNL     1      24.230  10.147  35.720  0.00  0.00    +0.000 C 
ATOM     12  H   UNL     1      22.448   9.134  35.932  0.00  0.00    +0.000 HD
BRANCH  11  14
ATOM     13  C   UNL     1      22.994  11.918  34.193  0.00  0.00    +0.000 C 
ATOM     14  C   UNL     1      23.550  11.115  34.892  0.00  0.00    +0.000 C 
BRANCH  13  15
ATOM     15  C   UNL     1      22.340  12.861  33.362  0.00  0.00    +0.000 C 
ATOM     16  C   UNL     1      22.201  12.541  31.900  0.00  0.00    +0.000 C 
ATOM     17  C   UNL     1      21.851  14.110  33.794  0.00  0.00    +0.000 C 
ATOM     18  C   UNL     1      21.354  15.360  34.213  0.00  0.00    +0.000 C 
ATOM     19  C   UNL     1      21.120  15.557  35.682  0.00  0.00    +0.000 C 
ATOM     20  C   UNL     1      21.086  16.441  33.356  0.00  0.00    +0.000 C 
ATOM     21  C   UNL     1      20.845  17.435  32.572  0.00  0.00    +0.000 C 
ATOM     22  C   UNL     1      19.499  17.555  31.926  0.00  0.00    +0.000 C 
ATOM     23  C   UNL     1      21.990  18.250  32.055  0.00  0.00    +0.000 C 
ENDBRANCH  13  15
ENDBRANCH  11  14
ENDBRANCH   6  10
BRANCH   3  24
ATOM     24  O   UNL     1      25.983   5.400  36.789  0.00  0.00    +0.000 OA
ATOM     25  H   UNL     1      25.975   4.591  36.248  0.00  0.00    +0.000 HD
ENDBRANCH   3  24
BRANCH   3  26
ATOM     26  C   UNL     1      23.811   4.481  36.823  0.00  0.00    +0.000 C 
ATOM     27  C   UNL     1      22.944   3.271  36.462  0.00  0.00    +0.000 C 
BRANCH  27  28
ATOM     28  C   UNL     1      22.081   2.059  36.101  0.00  0.00    +0.000 C 
ATOM     29  C   UNL     1      21.215   0.849  35.737  0.00  0.00    +0.000 C 
BRANCH  29  31
ATOM     30  O   UNL     1      19.188  -0.264  35.399  0.00  0.00    +0.000 OA
ATOM     31  C   UNL     1      20.407  -0.282  35.396  0.00  0.00    +0.000 C 
BRANCH  31  32
ATOM     32  O   UNL     1      21.112  -1.379  35.069  0.00  0.00    +0.000 OA
ATOM     33  H   UNL     1      21.887  -1.343  35.667  0.00  0.00    +0.000 HD
ENDBRANCH  31  32
ENDBRANCH  29  31
ENDBRANCH  27  28
ENDBRANCH   3  26
TORSDOF 8
ENDMDL
MODEL 8
REMARK VINA RESULT:      -5.2     27.021     31.266
REMARK  Name = 122178712_SalternamideA.pdbqt.pdb
REMARK  8 active torsions:
REMARK  status: ('A' for Active; 'I' for Inactive)
REMARK    1  A    between atoms: C_3  and  O_24
REMARK    2  A    between atoms: C_3  and  C_26
REMARK    3  A    between atoms: C_6  and  N_10
REMARK    4  A    between atoms: C_11  and  C_14
REMARK    5  A    between atoms: C_13  and  C_15
REMARK    6  A    between atoms: C_27  and  C_28
REMARK    7  A    between atoms: C_29  and  C_31
REMARK    8  A    between atoms: C_31  and  O_32
REMARK                            x       y       z     vdW  Elec       q    Type
REMARK                         _______ _______ _______ _____ _____    ______ ____
ROOT
ATOM      1 CL   UNL     1      26.013  13.529  37.955  0.00  0.00    +0.000 Cl
ATOM      2  O   UNL     1      23.250  14.812  37.139  0.00  0.00    +0.000 OA
ATOM      3  C   UNL     1      24.380  11.240  35.011  0.00  0.00    +0.000 C 
ATOM      4  C   UNL     1      23.166  12.071  34.944  0.00  0.00    +0.000 C 
ATOM      5  C   UNL     1      25.105  12.003  36.040  0.00  0.00    +0.000 C 
ATOM      6  C   UNL     1      22.688  13.151  35.493  0.00  0.00    +0.000 C 
ATOM      7  C   UNL     1      24.915  13.079  36.746  0.00  0.00    +0.000 C 
ATOM      8  C   UNL     1      23.599  13.802  36.540  0.00  0.00    +0.000 C 
ENDROOT
BRANCH   6  10
ATOM      9  O   UNL     1      21.802  14.534  33.075  0.00  0.00    +0.000 OA
ATOM     10  N   UNL     1      21.473  13.727  35.226  0.00  0.00    +0.000 N 
ATOM     11  C   UNL     1      21.109  14.366  34.067  0.00  0.00    +0.000 C 
ATOM     12  H   UNL     1      20.790  13.663  35.977  0.00  0.00    +0.000 HD
BRANCH  11  14
ATOM     13  C   UNL     1      18.630  15.289  34.048  0.00  0.00    +0.000 C 
ATOM     14  C   UNL     1      19.758  14.877  34.058  0.00  0.00    +0.000 C 
BRANCH  13  15
ATOM     15  C   UNL     1      17.297  15.768  34.041  0.00  0.00    +0.000 C 
ATOM     16  C   UNL     1      16.207  14.838  34.494  0.00  0.00    +0.000 C 
ATOM     17  C   UNL     1      16.904  17.043  33.588  0.00  0.00    +0.000 C 
ATOM     18  C   UNL     1      16.497  18.317  33.142  0.00  0.00    +0.000 C 
ATOM     19  C   UNL     1      17.544  19.387  33.052  0.00  0.00    +0.000 C 
ATOM     20  C   UNL     1      15.188  18.646  32.753  0.00  0.00    +0.000 C 
ATOM     21  C   UNL     1      13.988  18.948  32.389  0.00  0.00    +0.000 C 
ATOM     22  C   UNL     1      13.007  19.424  33.415  0.00  0.00    +0.000 C 
ATOM     23  C   UNL     1      13.499  18.504  31.045  0.00  0.00    +0.000 C 
ENDBRANCH  13  15
ENDBRANCH  11  14
ENDBRANCH   6  10
BRANCH   3  24
ATOM     24  O   UNL     1      25.077  11.332  33.786  0.00  0.00    +0.000 OA
ATOM     25  H   UNL     1      25.768  12.003  33.922  0.00  0.00    +0.000 HD
ENDBRANCH   3  24
BRANCH   3  26
ATOM     26  C   UNL     1      24.138   9.845  35.358  0.00  0.00    +0.000 C 
ATOM     27  C   UNL     1      23.882   8.382  35.729  0.00  0.00    +0.000 C 
BRANCH  27  28
ATOM     28  C   UNL     1      23.625   6.919  36.103  0.00  0.00    +0.000 C 
ATOM     29  C   UNL     1      23.371   5.456  36.476  0.00  0.00    +0.000 C 
BRANCH  29  31
ATOM     30  O   UNL     1      23.411   3.614  37.914  0.00  0.00    +0.000 OA
ATOM     31  C   UNL     1      23.133   4.088  36.826  0.00  0.00    +0.000 C 
BRANCH  31  32
ATOM     32  O   UNL     1      22.573   3.361  35.843  0.00  0.00    +0.000 OA
ATOM     33  H   UNL     1      23.088   2.529  35.848  0.00  0.00    +0.000 HD
ENDBRANCH  31  32
ENDBRANCH  29  31
ENDBRANCH  27  28
ENDBRANCH   3  26
TORSDOF 8
ENDMDL
MODEL 9
REMARK VINA RESULT:      -5.2     35.249     36.946
REMARK  Name = 122178712_SalternamideA.pdbqt.pdb
REMARK  8 active torsions:
REMARK  status: ('A' for Active; 'I' for Inactive)
REMARK    1  A    between atoms: C_3  and  O_24
REMARK    2  A    between atoms: C_3  and  C_26
REMARK    3  A    between atoms: C_6  and  N_10
REMARK    4  A    between atoms: C_11  and  C_14
REMARK    5  A    between atoms: C_13  and  C_15
REMARK    6  A    between atoms: C_27  and  C_28
REMARK    7  A    between atoms: C_29  and  C_31
REMARK    8  A    between atoms: C_31  and  O_32
REMARK                            x       y       z     vdW  Elec       q    Type
REMARK                         _______ _______ _______ _____ _____    ______ ____
ROOT
ATOM      1 CL   UNL     1      33.748  19.729  41.477  0.00  0.00    +0.000 Cl
ATOM      2  O   UNL     1      33.530  16.816  40.292  0.00  0.00    +0.000 OA
ATOM      3  C   UNL     1      34.082  19.987  37.428  0.00  0.00    +0.000 C 
ATOM      4  C   UNL     1      33.993  18.527  37.260  0.00  0.00    +0.000 C 
ATOM      5  C   UNL     1      33.925  20.043  38.891  0.00  0.00    +0.000 C 
ATOM      6  C   UNL     1      33.823  17.465  37.994  0.00  0.00    +0.000 C 
ATOM      7  C   UNL     1      33.739  19.204  39.867  0.00  0.00    +0.000 C 
ATOM      8  C   UNL     1      33.675  17.735  39.496  0.00  0.00    +0.000 C 
ENDROOT
BRANCH   6  10
ATOM      9  O   UNL     1      31.720  16.119  36.474  0.00  0.00    +0.000 OA
ATOM     10  N   UNL     1      33.776  16.170  37.550  0.00  0.00    +0.000 N 
ATOM     11  C   UNL     1      32.759  15.587  36.835  0.00  0.00    +0.000 C 
ATOM     12  H   UNL     1      34.587  15.602  37.786  0.00  0.00    +0.000 HD
BRANCH  11  14
ATOM     13  C   UNL     1      33.151  13.049  36.200  0.00  0.00    +0.000 C 
ATOM     14  C   UNL     1      32.979  14.201  36.493  0.00  0.00    +0.000 C 
BRANCH  13  15
ATOM     15  C   UNL     1      33.352  11.692  35.847  0.00  0.00    +0.000 C 
ATOM     16  C   UNL     1      32.535  10.648  36.554  0.00  0.00    +0.000 C 
ATOM     17  C   UNL     1      34.304  11.237  34.912  0.00  0.00    +0.000 C 
ATOM     18  C   UNL     1      35.249  10.768  33.978  0.00  0.00    +0.000 C 
ATOM     19  C   UNL     1      35.797  11.757  32.991  0.00  0.00    +0.000 C 
ATOM     20  C   UNL     1      35.730   9.450  33.922  0.00  0.00    +0.000 C 
ATOM     21  C   UNL     1      36.178   8.242  33.873  0.00  0.00    +0.000 C 
ATOM     22  C   UNL     1      35.447   7.219  33.060  0.00  0.00    +0.000 C 
ATOM     23  C   UNL     1      37.198   7.801  34.876  0.00  0.00    +0.000 C 
ENDBRANCH  13  15
ENDBRANCH  11  14
ENDBRANCH   6  10
BRANCH   3  24
ATOM     24  O   UNL     1      32.964  20.596  36.817  0.00  0.00    +0.000 OA
ATOM     25  H   UNL     1      32.189  20.086  37.109  0.00  0.00    +0.000 HD
ENDBRANCH   3  24
BRANCH   3  26
ATOM     26  C   UNL     1      35.320  20.577  36.934  0.00  0.00    +0.000 C 
ATOM     27  C   UNL     1      36.619  21.194  36.410  0.00  0.00    +0.000 C 
BRANCH  27  28
ATOM     28  C   UNL     1      37.918  21.810  35.881  0.00  0.00    +0.000 C 
ATOM     29  C   UNL     1      39.218  22.424  35.355  0.00  0.00    +0.000 C 
BRANCH  29  31
ATOM     30  O   UNL     1      41.310  22.350  34.314  0.00  0.00    +0.000 OA
ATOM     31  C   UNL     1      40.434  22.997  34.861  0.00  0.00    +0.000 C 
BRANCH  31  32
ATOM     32  O   UNL     1      40.530  24.325  35.055  0.00  0.00    +0.000 OA
ATOM     33  H   UNL     1      39.601  24.608  35.174  0.00  0.00    +0.000 HD
ENDBRANCH  31  32
ENDBRANCH  29  31
ENDBRANCH  27  28
ENDBRANCH   3  26
TORSDOF 8
ENDMDL
