MODEL 1
REMARK VINA RESULT:      -7.2      0.000      0.000
REMARK  Name = 135423438_Nintedanib.pdbqt.pdb
REMARK  9 active torsions:
REMARK  status: ('A' for Active; 'I' for Inactive)
REMARK    1  A    between atoms: N_1  and  C_22
REMARK    2  A    between atoms: C_2  and  C_4
REMARK    3  A    between atoms: C_2  and  C_37
REMARK    4  A    between atoms: C_7  and  O_13
REMARK    5  A    between atoms: C_10  and  C_16
REMARK    6  A    between atoms: C_16  and  O_17
REMARK    7  A    between atoms: C_19  and  N_26
REMARK    8  A    between atoms: C_27  and  C_29
REMARK    9  A    between atoms: C_29  and  N_30
REMARK                            x       y       z     vdW  Elec       q    Type
REMARK                         _______ _______ _______ _____ _____    ______ ____
ROOT
ATOM      1  N   UNL     1      21.122  20.776   3.453  0.00  0.00    +0.000 NA
ATOM      2  C   UNL     1      21.498  21.493   2.433  0.00  0.00    +0.000 C 
ENDROOT
BRANCH   2   4
ATOM      3  N   UNL     1      25.054  22.362   2.578  0.00  0.00    +0.000 N 
ATOM      4  C   UNL     1      22.834  22.098   2.512  0.00  0.00    +0.000 A 
ATOM      5  C   UNL     1      23.142  23.495   2.674  0.00  0.00    +0.000 A 
ATOM      6  C   UNL     1      24.529  23.624   2.708  0.00  0.00    +0.000 A 
ATOM      7  C   UNL     1      24.052  21.433   2.464  0.00  0.00    +0.000 A 
ATOM      8  C   UNL     1      22.363  24.665   2.786  0.00  0.00    +0.000 A 
ATOM      9  C   UNL     1      25.178  24.854   2.853  0.00  0.00    +0.000 A 
ATOM     10  C   UNL     1      24.376  25.997   2.967  0.00  0.00    +0.000 A 
ATOM     11  C   UNL     1      22.989  25.904   2.933  0.00  0.00    +0.000 A 
ATOM     12  H   UNL     1      26.043  22.160   2.574  0.00  0.00    +0.000 HD
BRANCH   7  13
ATOM     13  O   UNL     1      24.321  20.137   2.343  0.00  0.00    +0.000 OA
ATOM     14  H   UNL     1      23.702  19.711   1.725  0.00  0.00    +0.000 HD
ENDBRANCH   7  13
BRANCH  10  16
ATOM     15  O   UNL     1      25.168  28.090   2.178  0.00  0.00    +0.000 OA
ATOM     16  C   UNL     1      24.974  27.341   3.124  0.00  0.00    +0.000 C 
BRANCH  16  17
ATOM     17  O   UNL     1      25.240  27.549   4.444  0.00  0.00    +0.000 OA
ATOM     18  C   UNL     1      24.735  28.712   5.047  0.00  0.00    +0.000 C 
ENDBRANCH  16  17
ENDBRANCH  10  16
ENDBRANCH   2   4
BRANCH   1  22
ATOM     19  C   UNL     1      17.247  19.077   3.470  0.00  0.00    +0.000 A 
ATOM     20  C   UNL     1      17.535  20.248   4.175  0.00  0.00    +0.000 A 
ATOM     21  C   UNL     1      18.298  18.485   2.757  0.00  0.00    +0.000 A 
ATOM     22  C   UNL     1      19.852  20.187   3.485  0.00  0.00    +0.000 A 
ATOM     23  C   UNL     1      18.813  20.806   4.178  0.00  0.00    +0.000 A 
ATOM     24  C   UNL     1      19.579  19.034   2.752  0.00  0.00    +0.000 A 
BRANCH  19  26
ATOM     25  O   UNL     1      16.445  16.757   5.006  0.00  0.00    +0.000 OA
ATOM     26  N   UNL     1      15.925  18.491   3.470  0.00  0.00    +0.000 N 
ATOM     27  C   UNL     1      15.662  17.350   4.270  0.00  0.00    +0.000 C 
ATOM     28  C   UNL     1      14.948  19.154   2.602  0.00  0.00    +0.000 C 
BRANCH  27  29
ATOM     29  C   UNL     1      14.310  16.812   4.210  0.00  0.00    +0.000 C 
BRANCH  29  30
ATOM     30  N   UNL     1      12.957  16.267   4.122  0.00  0.00    +0.000 N 
ATOM     31  N   UNL     1      12.183  13.720   6.470  0.00  0.00    +0.000 N 
ATOM     32  C   UNL     1      13.094  14.785   4.068  0.00  0.00    +0.000 C 
ATOM     33  C   UNL     1      12.389  16.318   5.498  0.00  0.00    +0.000 C 
ATOM     34  C   UNL     1      12.758  13.668   5.099  0.00  0.00    +0.000 C 
ATOM     35  C   UNL     1      12.053  15.201   6.528  0.00  0.00    +0.000 C 
ATOM     36  C   UNL     1      13.251  13.352   7.390  0.00  0.00    +0.000 C 
ENDBRANCH  29  30
ENDBRANCH  27  29
ENDBRANCH  19  26
ENDBRANCH   1  22
BRANCH   2  37
ATOM     37  C   UNL     1      20.686  21.739   1.228  0.00  0.00    +0.000 A 
ATOM     38  C   UNL     1      19.712  22.736   1.248  0.00  0.00    +0.000 A 
ATOM     39  C   UNL     1      20.933  20.989   0.079  0.00  0.00    +0.000 A 
ATOM     40  C   UNL     1      18.969  22.979   0.097  0.00  0.00    +0.000 A 
ATOM     41  C   UNL     1      20.183  21.240  -1.066  0.00  0.00    +0.000 A 
ATOM     42  C   UNL     1      19.203  22.232  -1.057  0.00  0.00    +0.000 A 
ENDBRANCH   2  37
TORSDOF 9
ENDMDL
MODEL 2
REMARK VINA RESULT:      -7.0      4.459     13.685
REMARK  Name = 135423438_Nintedanib.pdbqt.pdb
REMARK  9 active torsions:
REMARK  status: ('A' for Active; 'I' for Inactive)
REMARK    1  A    between atoms: N_1  and  C_22
REMARK    2  A    between atoms: C_2  and  C_4
REMARK    3  A    between atoms: C_2  and  C_37
REMARK    4  A    between atoms: C_7  and  O_13
REMARK    5  A    between atoms: C_10  and  C_16
REMARK    6  A    between atoms: C_16  and  O_17
REMARK    7  A    between atoms: C_19  and  N_26
REMARK    8  A    between atoms: C_27  and  C_29
REMARK    9  A    between atoms: C_29  and  N_30
REMARK                            x       y       z     vdW  Elec       q    Type
REMARK                         _______ _______ _______ _____ _____    ______ ____
ROOT
ATOM      1  N   UNL     1      24.907  23.276   1.695  0.00  0.00    +0.000 NA
ATOM      2  C   UNL     1      23.654  23.105   1.387  0.00  0.00    +0.000 C 
ENDROOT
BRANCH   2   4
ATOM      3  N   UNL     1      22.886  19.577   0.768  0.00  0.00    +0.000 N 
ATOM      4  C   UNL     1      23.170  21.719   1.345  0.00  0.00    +0.000 A 
ATOM      5  C   UNL     1      22.151  21.134   2.177  0.00  0.00    +0.000 A 
ATOM      6  C   UNL     1      22.002  19.803   1.794  0.00  0.00    +0.000 A 
ATOM      7  C   UNL     1      23.593  20.717   0.482  0.00  0.00    +0.000 A 
ATOM      8  C   UNL     1      21.346  21.618   3.229  0.00  0.00    +0.000 A 
ATOM      9  C   UNL     1      21.090  18.932   2.400  0.00  0.00    +0.000 A 
ATOM     10  C   UNL     1      20.302  19.444   3.439  0.00  0.00    +0.000 A 
ATOM     11  C   UNL     1      20.429  20.767   3.849  0.00  0.00    +0.000 A 
ATOM     12  H   UNL     1      22.987  18.691   0.296  0.00  0.00    +0.000 HD
BRANCH   7  13
ATOM     13  O   UNL     1      24.498  20.742  -0.490  0.00  0.00    +0.000 OA
ATOM     14  H   UNL     1      25.350  20.391  -0.177  0.00  0.00    +0.000 HD
ENDBRANCH   7  13
BRANCH  10  16
ATOM     15  O   UNL     1      19.540  17.437   4.450  0.00  0.00    +0.000 OA
ATOM     16  C   UNL     1      19.312  18.597   4.139  0.00  0.00    +0.000 C 
BRANCH  16  17
ATOM     17  O   UNL     1      18.181  19.329   4.347  0.00  0.00    +0.000 OA
ATOM     18  C   UNL     1      16.948  18.657   4.350  0.00  0.00    +0.000 C 
ENDBRANCH  16  17
ENDBRANCH  10  16
ENDBRANCH   2   4
BRANCH   1  22
ATOM     19  C   UNL     1      26.499  27.196   1.762  0.00  0.00    +0.000 A 
ATOM     20  C   UNL     1      26.289  26.512   0.563  0.00  0.00    +0.000 A 
ATOM     21  C   UNL     1      26.160  26.528   2.947  0.00  0.00    +0.000 A 
ATOM     22  C   UNL     1      25.469  24.558   1.728  0.00  0.00    +0.000 A 
ATOM     23  C   UNL     1      25.773  25.217   0.537  0.00  0.00    +0.000 A 
ATOM     24  C   UNL     1      25.643  25.233   2.934  0.00  0.00    +0.000 A 
BRANCH  19  26
ATOM     25  O   UNL     1      29.159  27.905   2.658  0.00  0.00    +0.000 OA
ATOM     26  N   UNL     1      27.040  28.536   1.794  0.00  0.00    +0.000 N 
ATOM     27  C   UNL     1      28.363  28.749   2.258  0.00  0.00    +0.000 C 
ATOM     28  C   UNL     1      26.131  29.589   1.331  0.00  0.00    +0.000 C 
BRANCH  27  29
ATOM     29  C   UNL     1      28.835  30.126   2.267  0.00  0.00    +0.000 C 
BRANCH  29  30
ATOM     30  N   UNL     1      29.334  31.500   2.261  0.00  0.00    +0.000 N 
ATOM     31  N   UNL     1      31.661  32.266  -0.307  0.00  0.00    +0.000 N 
ATOM     32  C   UNL     1      30.819  31.418   2.204  0.00  0.00    +0.000 C 
ATOM     33  C   UNL     1      29.155  32.008   0.872  0.00  0.00    +0.000 C 
ATOM     34  C   UNL     1      31.840  31.750   1.077  0.00  0.00    +0.000 C 
ATOM     35  C   UNL     1      30.177  32.340  -0.255  0.00  0.00    +0.000 C 
ATOM     36  C   UNL     1      31.999  31.174  -1.211  0.00  0.00    +0.000 C 
ENDBRANCH  29  30
ENDBRANCH  27  29
ENDBRANCH  19  26
ENDBRANCH   1  22
BRANCH   2  37
ATOM     37  C   UNL     1      22.705  24.190   1.077  0.00  0.00    +0.000 A 
ATOM     38  C   UNL     1      22.301  24.392  -0.241  0.00  0.00    +0.000 A 
ATOM     39  C   UNL     1      22.204  24.971   2.117  0.00  0.00    +0.000 A 
ATOM     40  C   UNL     1      21.385  25.401  -0.521  0.00  0.00    +0.000 A 
ATOM     41  C   UNL     1      21.289  25.978   1.826  0.00  0.00    +0.000 A 
ATOM     42  C   UNL     1      20.880  26.192   0.510  0.00  0.00    +0.000 A 
ENDBRANCH   2  37
TORSDOF 9
ENDMDL
MODEL 3
REMARK VINA RESULT:      -7.0      5.080     12.876
REMARK  Name = 135423438_Nintedanib.pdbqt.pdb
REMARK  9 active torsions:
REMARK  status: ('A' for Active; 'I' for Inactive)
REMARK    1  A    between atoms: N_1  and  C_22
REMARK    2  A    between atoms: C_2  and  C_4
REMARK    3  A    between atoms: C_2  and  C_37
REMARK    4  A    between atoms: C_7  and  O_13
REMARK    5  A    between atoms: C_10  and  C_16
REMARK    6  A    between atoms: C_16  and  O_17
REMARK    7  A    between atoms: C_19  and  N_26
REMARK    8  A    between atoms: C_27  and  C_29
REMARK    9  A    between atoms: C_29  and  N_30
REMARK                            x       y       z     vdW  Elec       q    Type
REMARK                         _______ _______ _______ _____ _____    ______ ____
ROOT
ATOM      1  N   UNL     1      23.546  20.717   1.180  0.00  0.00    +0.000 NA
ATOM      2  C   UNL     1      22.714  21.242   2.033  0.00  0.00    +0.000 C 
ENDROOT
BRANCH   2   4
ATOM      3  N   UNL     1      21.263  18.624   4.145  0.00  0.00    +0.000 N 
ATOM      4  C   UNL     1      21.894  20.307   2.813  0.00  0.00    +0.000 A 
ATOM      5  C   UNL     1      20.458  20.290   2.909  0.00  0.00    +0.000 A 
ATOM      6  C   UNL     1      20.100  19.234   3.746  0.00  0.00    +0.000 A 
ATOM      7  C   UNL     1      22.350  19.251   3.592  0.00  0.00    +0.000 A 
ATOM      8  C   UNL     1      19.428  21.084   2.364  0.00  0.00    +0.000 A 
ATOM      9  C   UNL     1      18.772  18.927   4.062  0.00  0.00    +0.000 A 
ATOM     10  C   UNL     1      17.772  19.733   3.500  0.00  0.00    +0.000 A 
ATOM     11  C   UNL     1      18.096  20.796   2.665  0.00  0.00    +0.000 A 
ATOM     12  H   UNL     1      21.298  17.822   4.756  0.00  0.00    +0.000 HD
BRANCH   7  13
ATOM     13  O   UNL     1      23.587  18.824   3.824  0.00  0.00    +0.000 OA
ATOM     14  H   UNL     1      24.230  19.323   3.291  0.00  0.00    +0.000 HD
ENDBRANCH   7  13
BRANCH  10  16
ATOM     15  O   UNL     1      15.962  18.638   4.576  0.00  0.00    +0.000 OA
ATOM     16  C   UNL     1      16.341  19.484   3.779  0.00  0.00    +0.000 C 
BRANCH  16  17
ATOM     17  O   UNL     1      15.595  20.333   3.017  0.00  0.00    +0.000 OA
ATOM     18  C   UNL     1      14.694  19.776   2.094  0.00  0.00    +0.000 C 
ENDBRANCH  16  17
ENDBRANCH  10  16
ENDBRANCH   2   4
BRANCH   1  22
ATOM     19  C   UNL     1      25.878  23.251  -1.278  0.00  0.00    +0.000 A 
ATOM     20  C   UNL     1      24.822  22.498  -1.797  0.00  0.00    +0.000 A 
ATOM     21  C   UNL     1      26.134  23.132   0.095  0.00  0.00    +0.000 A 
ATOM     22  C   UNL     1      24.346  21.528   0.366  0.00  0.00    +0.000 A 
ATOM     23  C   UNL     1      24.057  21.655  -0.992  0.00  0.00    +0.000 A 
ATOM     24  C   UNL     1      25.376  22.293   0.910  0.00  0.00    +0.000 A 
BRANCH  19  26
ATOM     25  O   UNL     1      28.548  22.664  -2.229  0.00  0.00    +0.000 OA
ATOM     26  N   UNL     1      26.678  24.121  -2.111  0.00  0.00    +0.000 N 
ATOM     27  C   UNL     1      27.976  23.713  -2.508  0.00  0.00    +0.000 C 
ATOM     28  C   UNL     1      26.048  25.394  -2.472  0.00  0.00    +0.000 C 
BRANCH  27  29
ATOM     29  C   UNL     1      28.725  24.646  -3.339  0.00  0.00    +0.000 C 
BRANCH  29  30
ATOM     30  N   UNL     1      29.473  25.562  -4.197  0.00  0.00    +0.000 N 
ATOM     31  N   UNL     1      32.528  24.293  -5.484  0.00  0.00    +0.000 N 
ATOM     32  C   UNL     1      30.868  25.597  -3.675  0.00  0.00    +0.000 C 
ATOM     33  C   UNL     1      29.795  24.809  -5.441  0.00  0.00    +0.000 C 
ATOM     34  C   UNL     1      32.207  25.039  -4.237  0.00  0.00    +0.000 C 
ATOM     35  C   UNL     1      31.135  24.250  -6.003  0.00  0.00    +0.000 C 
ATOM     36  C   UNL     1      32.874  22.935  -5.087  0.00  0.00    +0.000 C 
ENDBRANCH  29  30
ENDBRANCH  27  29
ENDBRANCH  19  26
ENDBRANCH   1  22
BRANCH   2  37
ATOM     37  C   UNL     1      22.540  22.688   2.261  0.00  0.00    +0.000 A 
ATOM     38  C   UNL     1      23.078  23.272   3.406  0.00  0.00    +0.000 A 
ATOM     39  C   UNL     1      21.867  23.450   1.307  0.00  0.00    +0.000 A 
ATOM     40  C   UNL     1      22.932  24.641   3.601  0.00  0.00    +0.000 A 
ATOM     41  C   UNL     1      21.726  24.819   1.512  0.00  0.00    +0.000 A 
ATOM     42  C   UNL     1      22.258  25.413   2.656  0.00  0.00    +0.000 A 
ENDBRANCH   2  37
TORSDOF 9
ENDMDL
MODEL 4
REMARK VINA RESULT:      -6.9     34.253     36.981
REMARK  Name = 135423438_Nintedanib.pdbqt.pdb
REMARK  9 active torsions:
REMARK  status: ('A' for Active; 'I' for Inactive)
REMARK    1  A    between atoms: N_1  and  C_22
REMARK    2  A    between atoms: C_2  and  C_4
REMARK    3  A    between atoms: C_2  and  C_37
REMARK    4  A    between atoms: C_7  and  O_13
REMARK    5  A    between atoms: C_10  and  C_16
REMARK    6  A    between atoms: C_16  and  O_17
REMARK    7  A    between atoms: C_19  and  N_26
REMARK    8  A    between atoms: C_27  and  C_29
REMARK    9  A    between atoms: C_29  and  N_30
REMARK                            x       y       z     vdW  Elec       q    Type
REMARK                         _______ _______ _______ _____ _____    ______ ____
ROOT
ATOM      1  N   UNL     1      26.999  -2.389  28.109  0.00  0.00    +0.000 NA
ATOM      2  C   UNL     1      27.878  -3.349  28.094  0.00  0.00    +0.000 C 
ENDROOT
BRANCH   2   4
ATOM      3  N   UNL     1      30.027  -3.704  25.149  0.00  0.00    +0.000 N 
ATOM      4  C   UNL     1      28.528  -3.626  26.807  0.00  0.00    +0.000 A 
ATOM      5  C   UNL     1      27.954  -4.311  25.678  0.00  0.00    +0.000 A 
ATOM      6  C   UNL     1      28.912  -4.345  24.668  0.00  0.00    +0.000 A 
ATOM      7  C   UNL     1      29.814  -3.262  26.430  0.00  0.00    +0.000 A 
ATOM      8  C   UNL     1      26.704  -4.914  25.429  0.00  0.00    +0.000 A 
ATOM      9  C   UNL     1      28.689  -4.941  23.423  0.00  0.00    +0.000 A 
ATOM     10  C   UNL     1      27.435  -5.528  23.205  0.00  0.00    +0.000 A 
ATOM     11  C   UNL     1      26.458  -5.516  24.193  0.00  0.00    +0.000 A 
ATOM     12  H   UNL     1      30.878  -3.579  24.621  0.00  0.00    +0.000 HD
BRANCH   7  13
ATOM     13  O   UNL     1      30.752  -2.597  27.096  0.00  0.00    +0.000 OA
ATOM     14  H   UNL     1      30.926  -1.735  26.679  0.00  0.00    +0.000 HD
ENDBRANCH   7  13
BRANCH  10  16
ATOM     15  O   UNL     1      25.975  -6.207  21.461  0.00  0.00    +0.000 OA
ATOM     16  C   UNL     1      27.108  -6.183  21.919  0.00  0.00    +0.000 C 
BRANCH  16  17
ATOM     17  O   UNL     1      28.251  -6.712  21.397  0.00  0.00    +0.000 OA
ATOM     18  C   UNL     1      28.286  -6.982  20.019  0.00  0.00    +0.000 C 
ENDBRANCH  16  17
ENDBRANCH  10  16
ENDBRANCH   2   4
BRANCH   1  22
ATOM     19  C   UNL     1      24.841  -1.341  31.595  0.00  0.00    +0.000 A 
ATOM     20  C   UNL     1      25.996  -0.652  31.214  0.00  0.00    +0.000 A 
ATOM     21  C   UNL     1      24.427  -2.397  30.772  0.00  0.00    +0.000 A 
ATOM     22  C   UNL     1      26.302  -2.073  29.281  0.00  0.00    +0.000 A 
ATOM     23  C   UNL     1      26.714  -1.001  30.071  0.00  0.00    +0.000 A 
ATOM     24  C   UNL     1      25.136  -2.754  29.626  0.00  0.00    +0.000 A 
BRANCH  19  26
ATOM     25  O   UNL     1      25.160  -2.573  34.195  0.00  0.00    +0.000 OA
ATOM     26  N   UNL     1      24.098  -0.988  32.783  0.00  0.00    +0.000 N 
ATOM     27  C   UNL     1      24.351  -1.672  33.999  0.00  0.00    +0.000 C 
ATOM     28  C   UNL     1      23.110   0.080  32.607  0.00  0.00    +0.000 C 
BRANCH  27  29
ATOM     29  C   UNL     1      23.557  -1.266  35.150  0.00  0.00    +0.000 C 
BRANCH  29  30
ATOM     30  N   UNL     1      22.784  -0.865  36.324  0.00  0.00    +0.000 N 
ATOM     31  N   UNL     1      22.599   2.632  36.905  0.00  0.00    +0.000 N 
ATOM     32  C   UNL     1      23.644   0.063  37.108  0.00  0.00    +0.000 C 
ATOM     33  C   UNL     1      21.821   0.174  35.861  0.00  0.00    +0.000 C 
ATOM     34  C   UNL     1      23.566   1.597  37.361  0.00  0.00    +0.000 C 
ATOM     35  C   UNL     1      21.743   1.708  36.114  0.00  0.00    +0.000 C 
ATOM     36  C   UNL     1      23.305   3.477  35.950  0.00  0.00    +0.000 C 
ENDBRANCH  29  30
ENDBRANCH  27  29
ENDBRANCH  19  26
ENDBRANCH   1  22
BRANCH   2  37
ATOM     37  C   UNL     1      28.255  -4.165  29.261  0.00  0.00    +0.000 A 
ATOM     38  C   UNL     1      27.768  -5.466  29.376  0.00  0.00    +0.000 A 
ATOM     39  C   UNL     1      29.123  -3.630  30.213  0.00  0.00    +0.000 A 
ATOM     40  C   UNL     1      28.150  -6.239  30.468  0.00  0.00    +0.000 A 
ATOM     41  C   UNL     1      29.498  -4.411  31.301  0.00  0.00    +0.000 A 
ATOM     42  C   UNL     1      29.014  -5.713  31.428  0.00  0.00    +0.000 A 
ENDBRANCH   2  37
TORSDOF 9
ENDMDL
MODEL 5
REMARK VINA RESULT:      -6.8     27.245     30.335
REMARK  Name = 135423438_Nintedanib.pdbqt.pdb
REMARK  9 active torsions:
REMARK  status: ('A' for Active; 'I' for Inactive)
REMARK    1  A    between atoms: N_1  and  C_22
REMARK    2  A    between atoms: C_2  and  C_4
REMARK    3  A    between atoms: C_2  and  C_37
REMARK    4  A    between atoms: C_7  and  O_13
REMARK    5  A    between atoms: C_10  and  C_16
REMARK    6  A    between atoms: C_16  and  O_17
REMARK    7  A    between atoms: C_19  and  N_26
REMARK    8  A    between atoms: C_27  and  C_29
REMARK    9  A    between atoms: C_29  and  N_30
REMARK                            x       y       z     vdW  Elec       q    Type
REMARK                         _______ _______ _______ _____ _____    ______ ____
ROOT
ATOM      1  N   UNL     1      15.700   5.284  25.994  0.00  0.00    +0.000 NA
ATOM      2  C   UNL     1      14.854   5.655  26.912  0.00  0.00    +0.000 C 
ENDROOT
BRANCH   2   4
ATOM      3  N   UNL     1      14.667   9.311  26.772  0.00  0.00    +0.000 N 
ATOM      4  C   UNL     1      14.696   7.101  27.115  0.00  0.00    +0.000 A 
ATOM      5  C   UNL     1      14.294   7.765  28.327  0.00  0.00    +0.000 A 
ATOM      6  C   UNL     1      14.284   9.136  28.078  0.00  0.00    +0.000 A 
ATOM      7  C   UNL     1      14.923   8.101  26.178  0.00  0.00    +0.000 A 
ATOM      8  C   UNL     1      13.930   7.321  29.615  0.00  0.00    +0.000 A 
ATOM      9  C   UNL     1      13.936  10.085  29.045  0.00  0.00    +0.000 A 
ATOM     10  C   UNL     1      13.583   9.611  30.316  0.00  0.00    +0.000 A 
ATOM     11  C   UNL     1      13.579   8.249  30.596  0.00  0.00    +0.000 A 
ATOM     12  H   UNL     1      14.750  10.212  26.324  0.00  0.00    +0.000 HD
BRANCH   7  13
ATOM     13  O   UNL     1      15.326   8.023  24.914  0.00  0.00    +0.000 OA
ATOM     14  H   UNL     1      16.180   7.561  24.853  0.00  0.00    +0.000 HD
ENDBRANCH   7  13
BRANCH  10  16
ATOM     15  O   UNL     1      12.419  11.465  31.231  0.00  0.00    +0.000 OA
ATOM     16  C   UNL     1      13.200  10.540  31.401  0.00  0.00    +0.000 C 
BRANCH  16  17
ATOM     17  O   UNL     1      13.852  10.173  32.540  0.00  0.00    +0.000 OA
ATOM     18  C   UNL     1      13.133  10.177  33.746  0.00  0.00    +0.000 C 
ENDBRANCH  16  17
ENDBRANCH  10  16
ENDBRANCH   2   4
BRANCH   1  22
ATOM     19  C   UNL     1      16.397   1.158  25.369  0.00  0.00    +0.000 A 
ATOM     20  C   UNL     1      17.277   1.943  26.118  0.00  0.00    +0.000 A 
ATOM     21  C   UNL     1      15.271   1.795  24.831  0.00  0.00    +0.000 A 
ATOM     22  C   UNL     1      15.944   3.927  25.751  0.00  0.00    +0.000 A 
ATOM     23  C   UNL     1      17.055   3.305  26.318  0.00  0.00    +0.000 A 
ATOM     24  C   UNL     1      15.038   3.156  25.025  0.00  0.00    +0.000 A 
BRANCH  19  26
ATOM     25  O   UNL     1      18.048   0.035  23.273  0.00  0.00    +0.000 OA
ATOM     26  N   UNL     1      16.628  -0.253  25.153  0.00  0.00    +0.000 N 
ATOM     27  C   UNL     1      17.460  -0.673  24.085  0.00  0.00    +0.000 C 
ATOM     28  C   UNL     1      15.944  -1.148  26.090  0.00  0.00    +0.000 C 
BRANCH  27  29
ATOM     29  C   UNL     1      17.638  -2.109  23.925  0.00  0.00    +0.000 C 
BRANCH  29  30
ATOM     30  N   UNL     1      17.841  -3.550  23.783  0.00  0.00    +0.000 N 
ATOM     31  N   UNL     1      19.871  -4.540  21.045  0.00  0.00    +0.000 N 
ATOM     32  C   UNL     1      17.515  -3.892  22.371  0.00  0.00    +0.000 C 
ATOM     33  C   UNL     1      19.310  -3.759  23.655  0.00  0.00    +0.000 C 
ATOM     34  C   UNL     1      18.404  -4.323  21.169  0.00  0.00    +0.000 C 
ATOM     35  C   UNL     1      20.201  -4.190  22.453  0.00  0.00    +0.000 C 
ATOM     36  C   UNL     1      20.387  -3.464  20.210  0.00  0.00    +0.000 C 
ENDBRANCH  29  30
ENDBRANCH  27  29
ENDBRANCH  19  26
ENDBRANCH   1  22
BRANCH   2  37
ATOM     37  C   UNL     1      14.061   4.738  27.749  0.00  0.00    +0.000 A 
ATOM     38  C   UNL     1      12.725   4.500  27.431  0.00  0.00    +0.000 A 
ATOM     39  C   UNL     1      14.674   4.100  28.826  0.00  0.00    +0.000 A 
ATOM     40  C   UNL     1      11.991   3.612  28.212  0.00  0.00    +0.000 A 
ATOM     41  C   UNL     1      13.931   3.215  29.600  0.00  0.00    +0.000 A 
ATOM     42  C   UNL     1      12.593   2.971  29.294  0.00  0.00    +0.000 A 
ENDBRANCH   2  37
TORSDOF 9
ENDMDL
MODEL 6
REMARK VINA RESULT:      -6.8      4.620     12.701
REMARK  Name = 135423438_Nintedanib.pdbqt.pdb
REMARK  9 active torsions:
REMARK  status: ('A' for Active; 'I' for Inactive)
REMARK    1  A    between atoms: N_1  and  C_22
REMARK    2  A    between atoms: C_2  and  C_4
REMARK    3  A    between atoms: C_2  and  C_37
REMARK    4  A    between atoms: C_7  and  O_13
REMARK    5  A    between atoms: C_10  and  C_16
REMARK    6  A    between atoms: C_16  and  O_17
REMARK    7  A    between atoms: C_19  and  N_26
REMARK    8  A    between atoms: C_27  and  C_29
REMARK    9  A    between atoms: C_29  and  N_30
REMARK                            x       y       z     vdW  Elec       q    Type
REMARK                         _______ _______ _______ _____ _____    ______ ____
ROOT
ATOM      1  N   UNL     1      23.760  20.804   1.125  0.00  0.00    +0.000 NA
ATOM      2  C   UNL     1      22.897  21.236   1.998  0.00  0.00    +0.000 C 
ENDROOT
BRANCH   2   4
ATOM      3  N   UNL     1      21.668  18.468   4.059  0.00  0.00    +0.000 N 
ATOM      4  C   UNL     1      22.157  20.216   2.753  0.00  0.00    +0.000 A 
ATOM      5  C   UNL     1      20.728  20.051   2.811  0.00  0.00    +0.000 A 
ATOM      6  C   UNL     1      20.459  18.958   3.632  0.00  0.00    +0.000 A 
ATOM      7  C   UNL     1      22.699  19.207   3.538  0.00  0.00    +0.000 A 
ATOM      8  C   UNL     1      19.637  20.739   2.242  0.00  0.00    +0.000 A 
ATOM      9  C   UNL     1      19.162  18.514   3.912  0.00  0.00    +0.000 A 
ATOM     10  C   UNL     1      18.100  19.217   3.328  0.00  0.00    +0.000 A 
ATOM     11  C   UNL     1      18.334  20.314   2.507  0.00  0.00    +0.000 A 
ATOM     12  H   UNL     1      21.770  17.669   4.668  0.00  0.00    +0.000 HD
BRANCH   7  13
ATOM     13  O   UNL     1      23.967  18.907   3.801  0.00  0.00    +0.000 OA
ATOM     14  H   UNL     1      24.034  18.028   4.214  0.00  0.00    +0.000 HD
ENDBRANCH   7  13
BRANCH  10  16
ATOM     15  O   UNL     1      16.017  19.306   4.462  0.00  0.00    +0.000 OA
ATOM     16  C   UNL     1      16.695  18.821   3.568  0.00  0.00    +0.000 C 
BRANCH  16  17
ATOM     17  O   UNL     1      16.347  17.875   2.650  0.00  0.00    +0.000 OA
ATOM     18  C   UNL     1      15.434  18.232   1.645  0.00  0.00    +0.000 C 
ENDBRANCH  16  17
ENDBRANCH  10  16
ENDBRANCH   2   4
BRANCH   1  22
ATOM     19  C   UNL     1      26.053  23.431  -1.272  0.00  0.00    +0.000 A 
ATOM     20  C   UNL     1      26.294  23.290   0.097  0.00  0.00    +0.000 A 
ATOM     21  C   UNL     1      25.015  22.665  -1.819  0.00  0.00    +0.000 A 
ATOM     22  C   UNL     1      24.488  21.699   0.333  0.00  0.00    +0.000 A 
ATOM     23  C   UNL     1      25.535  22.432   0.891  0.00  0.00    +0.000 A 
ATOM     24  C   UNL     1      24.249  21.803  -1.036  0.00  0.00    +0.000 A 
BRANCH  19  26
ATOM     25  O   UNL     1      28.676  22.852  -2.349  0.00  0.00    +0.000 OA
ATOM     26  N   UNL     1      26.833  24.325  -2.097  0.00  0.00    +0.000 N 
ATOM     27  C   UNL     1      28.109  23.919  -2.561  0.00  0.00    +0.000 C 
ATOM     28  C   UNL     1      26.207  25.620  -2.380  0.00  0.00    +0.000 C 
BRANCH  27  29
ATOM     29  C   UNL     1      28.838  24.877  -3.381  0.00  0.00    +0.000 C 
BRANCH  29  30
ATOM     30  N   UNL     1      29.570  25.857  -4.180  0.00  0.00    +0.000 N 
ATOM     31  N   UNL     1      27.973  29.003  -4.572  0.00  0.00    +0.000 N 
ATOM     32  C   UNL     1      28.620  26.373  -5.204  0.00  0.00    +0.000 C 
ATOM     33  C   UNL     1      29.620  27.108  -3.373  0.00  0.00    +0.000 C 
ATOM     34  C   UNL     1      27.917  27.751  -5.374  0.00  0.00    +0.000 C 
ATOM     35  C   UNL     1      28.916  28.486  -3.544  0.00  0.00    +0.000 C 
ATOM     36  C   UNL     1      26.677  29.147  -3.923  0.00  0.00    +0.000 C 
ENDBRANCH  29  30
ENDBRANCH  27  29
ENDBRANCH  19  26
ENDBRANCH   1  22
BRANCH   2  37
ATOM     37  C   UNL     1      22.614  22.656   2.274  0.00  0.00    +0.000 A 
ATOM     38  C   UNL     1      23.109  23.241   3.438  0.00  0.00    +0.000 A 
ATOM     39  C   UNL     1      21.884  23.396   1.345  0.00  0.00    +0.000 A 
ATOM     40  C   UNL     1      22.859  24.588   3.678  0.00  0.00    +0.000 A 
ATOM     41  C   UNL     1      21.639  24.742   1.595  0.00  0.00    +0.000 A 
ATOM     42  C   UNL     1      22.126  25.337   2.758  0.00  0.00    +0.000 A 
ENDBRANCH   2  37
TORSDOF 9
ENDMDL
MODEL 7
REMARK VINA RESULT:      -6.6     33.365     35.902
REMARK  Name = 135423438_Nintedanib.pdbqt.pdb
REMARK  9 active torsions:
REMARK  status: ('A' for Active; 'I' for Inactive)
REMARK    1  A    between atoms: N_1  and  C_22
REMARK    2  A    between atoms: C_2  and  C_4
REMARK    3  A    between atoms: C_2  and  C_37
REMARK    4  A    between atoms: C_7  and  O_13
REMARK    5  A    between atoms: C_10  and  C_16
REMARK    6  A    between atoms: C_16  and  O_17
REMARK    7  A    between atoms: C_19  and  N_26
REMARK    8  A    between atoms: C_27  and  C_29
REMARK    9  A    between atoms: C_29  and  N_30
REMARK                            x       y       z     vdW  Elec       q    Type
REMARK                         _______ _______ _______ _____ _____    ______ ____
ROOT
ATOM      1  N   UNL     1      24.949  -2.084  27.686  0.00  0.00    +0.000 NA
ATOM      2  C   UNL     1      25.557  -2.117  28.837  0.00  0.00    +0.000 C 
ENDROOT
BRANCH   2   4
ATOM      3  N   UNL     1      25.132   1.015  30.689  0.00  0.00    +0.000 N 
ATOM      4  C   UNL     1      25.266  -1.019  29.767  0.00  0.00    +0.000 A 
ATOM      5  C   UNL     1      24.634  -1.122  31.056  0.00  0.00    +0.000 A 
ATOM      6  C   UNL     1      24.564   0.159  31.600  0.00  0.00    +0.000 A 
ATOM      7  C   UNL     1      25.563   0.326  29.584  0.00  0.00    +0.000 A 
ATOM      8  C   UNL     1      24.107  -2.193  31.807  0.00  0.00    +0.000 A 
ATOM      9  C   UNL     1      24.002   0.427  32.852  0.00  0.00    +0.000 A 
ATOM     10  C   UNL     1      23.491  -0.659  33.576  0.00  0.00    +0.000 A 
ATOM     11  C   UNL     1      23.541  -1.949  33.060  0.00  0.00    +0.000 A 
ATOM     12  H   UNL     1      25.219   2.011  30.828  0.00  0.00    +0.000 HD
BRANCH   7  13
ATOM     13  O   UNL     1      26.163   0.946  28.573  0.00  0.00    +0.000 OA
ATOM     14  H   UNL     1      27.092   1.141  28.790  0.00  0.00    +0.000 HD
ENDBRANCH   7  13
BRANCH  10  16
ATOM     15  O   UNL     1      22.711  -1.394  35.693  0.00  0.00    +0.000 OA
ATOM     16  C   UNL     1      22.878  -0.471  34.909  0.00  0.00    +0.000 C 
BRANCH  16  17
ATOM     17  O   UNL     1      22.564   0.846  35.063  0.00  0.00    +0.000 OA
ATOM     18  C   UNL     1      21.384   1.170  35.752  0.00  0.00    +0.000 C 
ENDBRANCH  16  17
ENDBRANCH  10  16
ENDBRANCH   2   4
BRANCH   1  22
ATOM     19  C   UNL     1      25.609  -4.995  24.688  0.00  0.00    +0.000 A 
ATOM     20  C   UNL     1      24.392  -4.909  25.368  0.00  0.00    +0.000 A 
ATOM     21  C   UNL     1      26.606  -4.076  25.041  0.00  0.00    +0.000 A 
ATOM     22  C   UNL     1      25.188  -3.069  26.720  0.00  0.00    +0.000 A 
ATOM     23  C   UNL     1      24.174  -3.956  26.363  0.00  0.00    +0.000 A 
ATOM     24  C   UNL     1      26.400  -3.119  26.034  0.00  0.00    +0.000 A 
BRANCH  19  26
ATOM     25  O   UNL     1      24.897  -4.710  21.896  0.00  0.00    +0.000 OA
ATOM     26  N   UNL     1      25.841  -5.986  23.661  0.00  0.00    +0.000 N 
ATOM     27  C   UNL     1      25.442  -5.722  22.327  0.00  0.00    +0.000 C 
ATOM     28  C   UNL     1      26.486  -7.220  24.118  0.00  0.00    +0.000 C 
BRANCH  27  29
ATOM     29  C   UNL     1      25.703  -6.770  21.350  0.00  0.00    +0.000 C 
BRANCH  29  30
ATOM     30  N   UNL     1      25.990  -7.827  20.383  0.00  0.00    +0.000 N 
ATOM     31  N   UNL     1      29.205  -7.688  18.883  0.00  0.00    +0.000 N 
ATOM     32  C   UNL     1      26.488  -7.158  19.149  0.00  0.00    +0.000 C 
ATOM     33  C   UNL     1      27.301  -8.415  20.777  0.00  0.00    +0.000 C 
ATOM     34  C   UNL     1      27.897  -7.094  18.493  0.00  0.00    +0.000 C 
ATOM     35  C   UNL     1      28.711  -8.351  20.120  0.00  0.00    +0.000 C 
ATOM     36  C   UNL     1      30.060  -6.587  19.305  0.00  0.00    +0.000 C 
ENDBRANCH  29  30
ENDBRANCH  27  29
ENDBRANCH  19  26
ENDBRANCH   1  22
BRANCH   2  37
ATOM     37  C   UNL     1      26.505  -3.163  29.261  0.00  0.00    +0.000 A 
ATOM     38  C   UNL     1      27.866  -2.870  29.327  0.00  0.00    +0.000 A 
ATOM     39  C   UNL     1      26.016  -4.418  29.620  0.00  0.00    +0.000 A 
ATOM     40  C   UNL     1      28.751  -3.855  29.754  0.00  0.00    +0.000 A 
ATOM     41  C   UNL     1      26.909  -5.396  30.044  0.00  0.00    +0.000 A 
ATOM     42  C   UNL     1      28.273  -5.116  30.111  0.00  0.00    +0.000 A 
ENDBRANCH   2  37
TORSDOF 9
ENDMDL
MODEL 8
REMARK VINA RESULT:      -6.5     27.441     30.960
REMARK  Name = 135423438_Nintedanib.pdbqt.pdb
REMARK  9 active torsions:
REMARK  status: ('A' for Active; 'I' for Inactive)
REMARK    1  A    between atoms: N_1  and  C_22
REMARK    2  A    between atoms: C_2  and  C_4
REMARK    3  A    between atoms: C_2  and  C_37
REMARK    4  A    between atoms: C_7  and  O_13
REMARK    5  A    between atoms: C_10  and  C_16
REMARK    6  A    between atoms: C_16  and  O_17
REMARK    7  A    between atoms: C_19  and  N_26
REMARK    8  A    between atoms: C_27  and  C_29
REMARK    9  A    between atoms: C_29  and  N_30
REMARK                            x       y       z     vdW  Elec       q    Type
REMARK                         _______ _______ _______ _____ _____    ______ ____
ROOT
ATOM      1  N   UNL     1      15.585   5.404  25.966  0.00  0.00    +0.000 NA
ATOM      2  C   UNL     1      14.739   5.652  26.923  0.00  0.00    +0.000 C 
ENDROOT
BRANCH   2   4
ATOM      3  N   UNL     1      14.262   9.282  27.033  0.00  0.00    +0.000 N 
ATOM      4  C   UNL     1      14.489   7.066  27.230  0.00  0.00    +0.000 A 
ATOM      5  C   UNL     1      14.143   7.624  28.511  0.00  0.00    +0.000 A 
ATOM      6  C   UNL     1      14.007   9.002  28.352  0.00  0.00    +0.000 A 
ATOM      7  C   UNL     1      14.558   8.133  26.344  0.00  0.00    +0.000 A 
ATOM      8  C   UNL     1      13.926   7.079  29.793  0.00  0.00    +0.000 A 
ATOM      9  C   UNL     1      13.671   9.862  29.403  0.00  0.00    +0.000 A 
ATOM     10  C   UNL     1      13.466   9.289  30.665  0.00  0.00    +0.000 A 
ATOM     11  C   UNL     1      13.590   7.918  30.857  0.00  0.00    +0.000 A 
ATOM     12  H   UNL     1      14.237  10.211  26.638  0.00  0.00    +0.000 HD
BRANCH   7  13
ATOM     13  O   UNL     1      14.856   8.161  25.050  0.00  0.00    +0.000 OA
ATOM     14  H   UNL     1      15.735   7.774  24.890  0.00  0.00    +0.000 HD
ENDBRANCH   7  13
BRANCH  10  16
ATOM     15  O   UNL     1      12.155  10.887  31.831  0.00  0.00    +0.000 OA
ATOM     16  C   UNL     1      13.107  10.121  31.835  0.00  0.00    +0.000 C 
BRANCH  16  17
ATOM     17  O   UNL     1      13.995   9.869  32.838  0.00  0.00    +0.000 OA
ATOM     18  C   UNL     1      13.490   9.625  34.125  0.00  0.00    +0.000 C 
ENDBRANCH  16  17
ENDBRANCH  10  16
ENDBRANCH   2   4
BRANCH   1  22
ATOM     19  C   UNL     1      16.556   1.390  25.043  0.00  0.00    +0.000 A 
ATOM     20  C   UNL     1      17.448   2.220  25.726  0.00  0.00    +0.000 A 
ATOM     21  C   UNL     1      15.323   1.944  24.673  0.00  0.00    +0.000 A 
ATOM     22  C   UNL     1      15.914   4.087  25.623  0.00  0.00    +0.000 A 
ATOM     23  C   UNL     1      17.135   3.545  26.024  0.00  0.00    +0.000 A 
ATOM     24  C   UNL     1      14.998   3.268  24.966  0.00  0.00    +0.000 A 
BRANCH  19  26
ATOM     25  O   UNL     1      16.076  -0.884  26.769  0.00  0.00    +0.000 OA
ATOM     26  N   UNL     1      16.879   0.017  24.725  0.00  0.00    +0.000 N 
ATOM     27  C   UNL     1      16.592  -1.007  25.662  0.00  0.00    +0.000 C 
ATOM     28  C   UNL     1      17.505  -0.190  23.416  0.00  0.00    +0.000 C 
BRANCH  27  29
ATOM     29  C   UNL     1      16.953  -2.363  25.275  0.00  0.00    +0.000 C 
BRANCH  29  30
ATOM     30  N   UNL     1      17.290  -3.727  24.870  0.00  0.00    +0.000 N 
ATOM     31  N   UNL     1      15.786  -6.303  26.794  0.00  0.00    +0.000 N 
ATOM     32  C   UNL     1      17.732  -4.442  26.099  0.00  0.00    +0.000 C 
ATOM     33  C   UNL     1      16.000  -4.456  24.725  0.00  0.00    +0.000 C 
ATOM     34  C   UNL     1      17.072  -5.570  26.944  0.00  0.00    +0.000 C 
ATOM     35  C   UNL     1      15.339  -5.583  25.571  0.00  0.00    +0.000 C 
ATOM     36  C   UNL     1      14.921  -5.867  27.881  0.00  0.00    +0.000 C 
ENDBRANCH  29  30
ENDBRANCH  27  29
ENDBRANCH  19  26
ENDBRANCH   1  22
BRANCH   2  37
ATOM     37  C   UNL     1      14.031   4.627  27.710  0.00  0.00    +0.000 A 
ATOM     38  C   UNL     1      12.693   4.352  27.432  0.00  0.00    +0.000 A 
ATOM     39  C   UNL     1      14.725   3.927  28.696  0.00  0.00    +0.000 A 
ATOM     40  C   UNL     1      12.039   3.364  28.162  0.00  0.00    +0.000 A 
ATOM     41  C   UNL     1      14.061   2.942  29.421  0.00  0.00    +0.000 A 
ATOM     42  C   UNL     1      12.722   2.661  29.154  0.00  0.00    +0.000 A 
ENDBRANCH   2  37
TORSDOF 9
ENDMDL
MODEL 9
REMARK VINA RESULT:      -6.5     34.124     37.035
REMARK  Name = 135423438_Nintedanib.pdbqt.pdb
REMARK  9 active torsions:
REMARK  status: ('A' for Active; 'I' for Inactive)
REMARK    1  A    between atoms: N_1  and  C_22
REMARK    2  A    between atoms: C_2  and  C_4
REMARK    3  A    between atoms: C_2  and  C_37
REMARK    4  A    between atoms: C_7  and  O_13
REMARK    5  A    between atoms: C_10  and  C_16
REMARK    6  A    between atoms: C_16  and  O_17
REMARK    7  A    between atoms: C_19  and  N_26
REMARK    8  A    between atoms: C_27  and  C_29
REMARK    9  A    between atoms: C_29  and  N_30
REMARK                            x       y       z     vdW  Elec       q    Type
REMARK                         _______ _______ _______ _____ _____    ______ ____
ROOT
ATOM      1  N   UNL     1      29.050  -3.117  28.193  0.00  0.00    +0.000 NA
ATOM      2  C   UNL     1      28.218  -3.503  27.269  0.00  0.00    +0.000 C 
ENDROOT
BRANCH   2   4
ATOM      3  N   UNL     1      30.038  -3.444  24.090  0.00  0.00    +0.000 N 
ATOM      4  C   UNL     1      28.768  -3.669  25.917  0.00  0.00    +0.000 A 
ATOM      5  C   UNL     1      28.269  -4.536  24.882  0.00  0.00    +0.000 A 
ATOM      6  C   UNL     1      29.083  -4.374  23.762  0.00  0.00    +0.000 A 
ATOM      7  C   UNL     1      29.863  -3.007  25.379  0.00  0.00    +0.000 A 
ATOM      8  C   UNL     1      27.201  -5.452  24.800  0.00  0.00    +0.000 A 
ATOM      9  C   UNL     1      28.884  -5.071  22.567  0.00  0.00    +0.000 A 
ATOM     10  C   UNL     1      27.811  -5.971  22.515  0.00  0.00    +0.000 A 
ATOM     11  C   UNL     1      26.983  -6.160  23.616  0.00  0.00    +0.000 A 
ATOM     12  H   UNL     1      30.761  -3.131  23.459  0.00  0.00    +0.000 HD
BRANCH   7  13
ATOM     13  O   UNL     1      30.664  -2.089  25.911  0.00  0.00    +0.000 OA
ATOM     14  H   UNL     1      31.283  -1.743  25.245  0.00  0.00    +0.000 HD
ENDBRANCH   7  13
BRANCH  10  16
ATOM     15  O   UNL     1      26.506  -6.596  20.635  0.00  0.00    +0.000 OA
ATOM     16  C   UNL     1      27.523  -6.753  21.293  0.00  0.00    +0.000 C 
BRANCH  16  17
ATOM     17  O   UNL     1      28.555  -7.617  21.076  0.00  0.00    +0.000 OA
ATOM     18  C   UNL     1      28.277  -8.994  21.078  0.00  0.00    +0.000 C 
ENDBRANCH  16  17
ENDBRANCH  10  16
ENDBRANCH   2   4
BRANCH   1  22
ATOM     19  C   UNL     1      27.617  -2.484  32.124  0.00  0.00    +0.000 A 
ATOM     20  C   UNL     1      27.437  -1.531  31.117  0.00  0.00    +0.000 A 
ATOM     21  C   UNL     1      28.294  -3.660  31.777  0.00  0.00    +0.000 A 
ATOM     22  C   UNL     1      28.613  -2.898  29.505  0.00  0.00    +0.000 A 
ATOM     23  C   UNL     1      27.916  -1.733  29.824  0.00  0.00    +0.000 A 
ATOM     24  C   UNL     1      28.777  -3.874  30.487  0.00  0.00    +0.000 A 
BRANCH  19  26
ATOM     25  O   UNL     1      24.937  -3.083  33.042  0.00  0.00    +0.000 OA
ATOM     26  N   UNL     1      27.128  -2.275  33.468  0.00  0.00    +0.000 N 
ATOM     27  C   UNL     1      25.789  -2.611  33.789  0.00  0.00    +0.000 C 
ATOM     28  C   UNL     1      28.102  -1.708  34.405  0.00  0.00    +0.000 C 
BRANCH  27  29
ATOM     29  C   UNL     1      25.368  -2.366  35.161  0.00  0.00    +0.000 C 
BRANCH  29  30
ATOM     30  N   UNL     1      24.931  -2.146  36.539  0.00  0.00    +0.000 N 
ATOM     31  N   UNL     1      22.504   0.407  36.979  0.00  0.00    +0.000 N 
ATOM     32  C   UNL     1      25.055  -0.685  36.801  0.00  0.00    +0.000 C 
ATOM     33  C   UNL     1      23.441  -2.171  36.519  0.00  0.00    +0.000 C 
ATOM     34  C   UNL     1      23.992   0.435  36.991  0.00  0.00    +0.000 C 
ATOM     35  C   UNL     1      22.378  -1.050  36.709  0.00  0.00    +0.000 C 
ATOM     36  C   UNL     1      22.079   1.101  35.771  0.00  0.00    +0.000 C 
ENDBRANCH  29  30
ENDBRANCH  27  29
ENDBRANCH  19  26
ENDBRANCH   1  22
BRANCH   2  37
ATOM     37  C   UNL     1      26.786  -3.776  27.483  0.00  0.00    +0.000 A 
ATOM     38  C   UNL     1      25.838  -2.863  27.025  0.00  0.00    +0.000 A 
ATOM     39  C   UNL     1      26.407  -4.961  28.111  0.00  0.00    +0.000 A 
ATOM     40  C   UNL     1      24.487  -3.141  27.207  0.00  0.00    +0.000 A 
ATOM     41  C   UNL     1      25.053  -5.229  28.289  0.00  0.00    +0.000 A 
ATOM     42  C   UNL     1      24.095  -4.321  27.838  0.00  0.00    +0.000 A 
ENDBRANCH   2  37
TORSDOF 9
ENDMDL
