MODEL 1
REMARK VINA RESULT:      -6.8      0.000      0.000
REMARK  Name = 135403648_CalciumFolinate.pdbqt.pdb
REMARK  10 active torsions:
REMARK  status: ('A' for Active; 'I' for Inactive)
REMARK    1  A    between atoms: N_1  and  C_3
REMARK    2  A    between atoms: N_1  and  C_24
REMARK    3  A    between atoms: C_6  and  C_11
REMARK    4  A    between atoms: CA_13  and  C_15
REMARK    5  A    between atoms: CA_13  and  CB_18
REMARK    6  A    between atoms: C_15  and  O_16
REMARK    7  A    between atoms: CG_19  and  CD_21
REMARK    8  A    between atoms: CD_21  and  OE1_22
REMARK    9  A    between atoms: C_24  and  C_32
REMARK   10  A    between atoms: N_27  and  C_37
REMARK                            x       y       z     vdW  Elec       q    Type
REMARK                         _______ _______ _______ _____ _____    ______ ____
ROOT
ATOM      1  N   UNL     1      21.799  18.423   3.813  0.00  0.00    +0.000 N 
ATOM      2  H   UNL     1      22.187  18.249   4.739  0.00  0.00    +0.000 HD
ENDROOT
BRANCH   1   3
ATOM      3  C   UNL     1      20.389  18.451   3.822  0.00  0.00    +0.000 A 
ATOM      4  C   UNL     1      19.709  18.920   2.694  0.00  0.00    +0.000 A 
ATOM      5  C   UNL     1      19.646  18.197   4.981  0.00  0.00    +0.000 A 
ATOM      6  C   UNL     1      17.591  18.761   3.844  0.00  0.00    +0.000 A 
ATOM      7  C   UNL     1      18.322  19.059   2.696  0.00  0.00    +0.000 A 
ATOM      8  C   UNL     1      18.260  18.333   4.991  0.00  0.00    +0.000 A 
BRANCH   6  11
ATOM      9  O   UNL     1      15.604  19.953   3.555  0.00  0.00    +0.000 OA
ATOM     10  N   UNL     1      15.419  17.777   4.327  0.00  0.00    +0.000 N 
ATOM     11  C   ACE A   0      16.113  18.890   3.893  0.00  0.00    +0.000 C 
ATOM     12  H   UNL     1      15.932  16.939   4.591  0.00  0.00    +0.000 HD
ATOM     13  CA  UNL     1      14.048  17.649   4.462  0.00  0.00    +0.000 C 
BRANCH  13  15
ATOM     14  OXT UNL     1      14.208  15.298   4.863  0.00  0.00    +0.000 OA
ATOM     15  C   UNL     1      13.568  16.335   4.956  0.00  0.00    +0.000 C 
BRANCH  15  16
ATOM     16  O   UNL     1      12.355  16.372   5.527  0.00  0.00    +0.000 OA
ATOM     17  H   UNL     1      11.730  16.150   4.805  0.00  0.00    +0.000 HD
ENDBRANCH  15  16
ENDBRANCH  13  15
BRANCH  13  18
ATOM     18  CB  UNL     1      13.153  18.705   4.147  0.00  0.00    +0.000 C 
ATOM     19  CG  UNL     1      12.183  19.839   3.797  0.00  0.00    +0.000 C 
BRANCH  19  21
ATOM     20  OE2 UNL     1      10.423  20.788   2.587  0.00  0.00    +0.000 OA
ATOM     21  CD  UNL     1      11.268  20.886   3.459  0.00  0.00    +0.000 C 
BRANCH  21  22
ATOM     22  OE1 UNL     1      11.433  22.012   4.176  0.00  0.00    +0.000 OA
ATOM     23  HE1 UNL     1      10.518  22.269   4.407  0.00  0.00    +0.000 HD
ENDBRANCH  21  22
ENDBRANCH  19  21
ENDBRANCH  13  18
ENDBRANCH   6  11
ENDBRANCH   1   3
BRANCH   1  24
ATOM     24  C   UNL     1      22.512  19.399   2.998  0.00  0.00    +0.000 C 
BRANCH  24  31
ATOM     25  O   UNL     1      23.379  20.379  -2.098  0.00  0.00    +0.000 OA
ATOM     26  N   UNL     1      23.162  20.318   0.800  0.00  0.00    +0.000 N 
ATOM     27  N   UNL     1      24.820  22.370   2.045  0.00  0.00    +0.000 N 
ATOM     28  N   UNL     1      25.606  23.021  -0.081  0.00  0.00    +0.000 NA
ATOM     29  N   UNL     1      24.772  22.126  -2.044  0.00  0.00    +0.000 N 
ATOM     30  N   UNL     1      26.363  23.789  -2.109  0.00  0.00    +0.000 N 
ATOM     31  C   UNL     1      23.239  20.313   2.189  0.00  0.00    +0.000 C 
ATOM     32  C   UNL     1      24.087  21.319   2.678  0.00  0.00    +0.000 C 
ATOM     33  C   UNL     1      23.965  21.242   0.076  0.00  0.00    +0.000 A 
ATOM     34  C   UNL     1      24.777  22.196   0.649  0.00  0.00    +0.000 A 
ATOM     35  C   UNL     1      23.993  21.198  -1.423  0.00  0.00    +0.000 A 
ATOM     36  C   UNL     1      25.577  22.974  -1.368  0.00  0.00    +0.000 A 
ATOM     37  H   UNL     1      25.750  22.648   2.344  0.00  0.00    +0.000 HD
ATOM     38  H   UNL     1      24.823  22.060  -3.048  0.00  0.00    +0.000 HD
ATOM     39  H   UNL     1      26.777  24.532  -1.552  0.00  0.00    +0.000 HD
ATOM     40  H   UNL     1      25.978  24.127  -2.981  0.00  0.00    +0.000 HD
BRANCH  26  42
ATOM     41  O   UNL     1      21.706  18.584  -0.318  0.00  0.00    +0.000 OA
ATOM     42  C   UNL     1      22.358  19.418   0.192  0.00  0.00    +0.000 C 
ENDBRANCH  26  42
ENDBRANCH  24  31
ENDBRANCH   1  24
TORSDOF 10
ENDMDL
MODEL 2
REMARK VINA RESULT:      -6.8     27.740     31.154
REMARK  Name = 135403648_CalciumFolinate.pdbqt.pdb
REMARK  10 active torsions:
REMARK  status: ('A' for Active; 'I' for Inactive)
REMARK    1  A    between atoms: N_1  and  C_3
REMARK    2  A    between atoms: N_1  and  C_24
REMARK    3  A    between atoms: C_6  and  C_11
REMARK    4  A    between atoms: CA_13  and  C_15
REMARK    5  A    between atoms: CA_13  and  CB_18
REMARK    6  A    between atoms: C_15  and  O_16
REMARK    7  A    between atoms: CG_19  and  CD_21
REMARK    8  A    between atoms: CD_21  and  OE1_22
REMARK    9  A    between atoms: C_24  and  C_32
REMARK   10  A    between atoms: N_27  and  C_37
REMARK                            x       y       z     vdW  Elec       q    Type
REMARK                         _______ _______ _______ _____ _____    ______ ____
ROOT
ATOM      1  N   UNL     1      23.697  -5.776  22.074  0.00  0.00    +0.000 N 
ATOM      2  H   UNL     1      22.820  -5.909  22.577  0.00  0.00    +0.000 HD
ENDROOT
BRANCH   1   3
ATOM      3  C   UNL     1      23.500  -5.186  20.807  0.00  0.00    +0.000 A 
ATOM      4  C   UNL     1      24.088  -5.775  19.683  0.00  0.00    +0.000 A 
ATOM      5  C   UNL     1      22.889  -3.937  20.654  0.00  0.00    +0.000 A 
ATOM      6  C   UNL     1      23.354  -3.949  18.284  0.00  0.00    +0.000 A 
ATOM      7  C   UNL     1      24.003  -5.172  18.429  0.00  0.00    +0.000 A 
ATOM      8  C   UNL     1      22.800  -3.328  19.403  0.00  0.00    +0.000 A 
BRANCH   6  11
ATOM      9  O   UNL     1      24.129  -2.509  16.617  0.00  0.00    +0.000 OA
ATOM     10  N   UNL     1      22.101  -3.560  16.234  0.00  0.00    +0.000 N 
ATOM     11  C   ACE A   0      23.235  -3.271  16.968  0.00  0.00    +0.000 C 
ATOM     12  H   UNL     1      21.411  -4.204  16.614  0.00  0.00    +0.000 HD
ATOM     13  CA  UNL     1      21.761  -3.058  14.990  0.00  0.00    +0.000 C 
BRANCH  13  15
ATOM     14  OXT UNL     1      19.724  -2.845  13.758  0.00  0.00    +0.000 OA
ATOM     15  C   UNL     1      20.474  -3.537  14.430  0.00  0.00    +0.000 C 
BRANCH  15  16
ATOM     16  O   UNL     1      20.189  -4.816  14.722  0.00  0.00    +0.000 OA
ATOM     17  H   UNL     1      20.162  -5.271  13.855  0.00  0.00    +0.000 HD
ENDBRANCH  15  16
ENDBRANCH  13  15
BRANCH  13  18
ATOM     18  CB  UNL     1      22.591  -2.143  14.290  0.00  0.00    +0.000 C 
ATOM     19  CG  UNL     1      23.486  -1.161  13.525  0.00  0.00    +0.000 C 
BRANCH  19  21
ATOM     20  OE2 UNL     1      25.443  -0.531  12.414  0.00  0.00    +0.000 OA
ATOM     21  CD  UNL     1      24.319  -0.255  12.794  0.00  0.00    +0.000 C 
BRANCH  21  22
ATOM     22  OE1 UNL     1      23.761   0.949  12.577  0.00  0.00    +0.000 OA
ATOM     23  HE1 UNL     1      22.811   0.792  12.749  0.00  0.00    +0.000 HD
ENDBRANCH  21  22
ENDBRANCH  19  21
ENDBRANCH  13  18
ENDBRANCH   6  11
ENDBRANCH   1   3
BRANCH   1  24
ATOM     24  C   UNL     1      24.832  -5.340  22.878  0.00  0.00    +0.000 C 
BRANCH  24  31
ATOM     25  O   UNL     1      25.966  -3.181  27.540  0.00  0.00    +0.000 OA
ATOM     26  N   UNL     1      25.886  -4.449  24.925  0.00  0.00    +0.000 N 
ATOM     27  N   UNL     1      28.554  -4.707  23.774  0.00  0.00    +0.000 N 
ATOM     28  N   UNL     1      29.467  -3.604  25.648  0.00  0.00    +0.000 NA
ATOM     29  N   UNL     1      28.195  -3.022  27.490  0.00  0.00    +0.000 N 
ATOM     30  N   UNL     1      30.462  -2.621  27.470  0.00  0.00    +0.000 N 
ATOM     31  C   UNL     1      25.970  -4.931  23.623  0.00  0.00    +0.000 C 
ATOM     32  C   UNL     1      27.294  -4.983  23.159  0.00  0.00    +0.000 C 
ATOM     33  C   UNL     1      27.079  -4.020  25.572  0.00  0.00    +0.000 A 
ATOM     34  C   UNL     1      28.342  -4.106  25.029  0.00  0.00    +0.000 A 
ATOM     35  C   UNL     1      27.010  -3.390  26.931  0.00  0.00    +0.000 A 
ATOM     36  C   UNL     1      29.370  -3.099  26.829  0.00  0.00    +0.000 A 
ATOM     37  H   UNL     1      29.318  -4.251  23.283  0.00  0.00    +0.000 HD
ATOM     38  H   UNL     1      28.138  -2.556  28.382  0.00  0.00    +0.000 HD
ATOM     39  H   UNL     1      31.327  -2.898  27.013  0.00  0.00    +0.000 HD
ATOM     40  H   UNL     1      30.496  -2.746  28.473  0.00  0.00    +0.000 HD
BRANCH  26  42
ATOM     41  O   UNL     1      23.593  -4.359  25.979  0.00  0.00    +0.000 OA
ATOM     42  C   UNL     1      24.671  -4.371  25.511  0.00  0.00    +0.000 C 
ENDBRANCH  26  42
ENDBRANCH  24  31
ENDBRANCH   1  24
TORSDOF 10
ENDMDL
MODEL 3
REMARK VINA RESULT:      -6.7     40.366     42.779
REMARK  Name = 135403648_CalciumFolinate.pdbqt.pdb
REMARK  10 active torsions:
REMARK  status: ('A' for Active; 'I' for Inactive)
REMARK    1  A    between atoms: N_1  and  C_3
REMARK    2  A    between atoms: N_1  and  C_24
REMARK    3  A    between atoms: C_6  and  C_11
REMARK    4  A    between atoms: CA_13  and  C_15
REMARK    5  A    between atoms: CA_13  and  CB_18
REMARK    6  A    between atoms: C_15  and  O_16
REMARK    7  A    between atoms: CG_19  and  CD_21
REMARK    8  A    between atoms: CD_21  and  OE1_22
REMARK    9  A    between atoms: C_24  and  C_32
REMARK   10  A    between atoms: N_27  and  C_37
REMARK                            x       y       z     vdW  Elec       q    Type
REMARK                         _______ _______ _______ _____ _____    ______ ____
ROOT
ATOM      1  N   UNL     1      41.690 -11.679  25.355  0.00  0.00    +0.000 N 
ATOM      2  H   UNL     1      41.729 -12.543  25.896  0.00  0.00    +0.000 HD
ENDROOT
BRANCH   1   3
ATOM      3  C   UNL     1      41.285 -11.904  24.023  0.00  0.00    +0.000 A 
ATOM      4  C   UNL     1      42.085 -11.431  22.979  0.00  0.00    +0.000 A 
ATOM      5  C   UNL     1      40.024 -12.423  23.705  0.00  0.00    +0.000 A 
ATOM      6  C   UNL     1      40.436 -12.100  21.347  0.00  0.00    +0.000 A 
ATOM      7  C   UNL     1      41.674 -11.541  21.651  0.00  0.00    +0.000 A 
ATOM      8  C   UNL     1      39.607 -12.537  22.380  0.00  0.00    +0.000 A 
BRANCH   6  11
ATOM      9  O   UNL     1      40.786 -12.338  19.050  0.00  0.00    +0.000 OA
ATOM     10  N   UNL     1      38.586 -12.252  19.772  0.00  0.00    +0.000 N 
ATOM     11  C   ACE A   0      39.957 -12.242  19.949  0.00  0.00    +0.000 C 
ATOM     12  H   UNL     1      37.978 -12.162  20.582  0.00  0.00    +0.000 HD
ATOM     13  CA  UNL     1      37.900 -12.370  18.576  0.00  0.00    +0.000 C 
BRANCH  13  15
ATOM     14  OXT UNL     1      35.676 -12.167  17.724  0.00  0.00    +0.000 OA
ATOM     15  C   UNL     1      36.421 -12.348  18.677  0.00  0.00    +0.000 C 
BRANCH  15  16
ATOM     16  O   UNL     1      35.950 -12.546  19.917  0.00  0.00    +0.000 OA
ATOM     17  H   UNL     1      35.195 -13.160  19.805  0.00  0.00    +0.000 HD
ENDBRANCH  15  16
ENDBRANCH  13  15
BRANCH  13  18
ATOM     18  CB  UNL     1      38.567 -12.506  17.330  0.00  0.00    +0.000 C 
ATOM     19  CG  UNL     1      39.293 -12.661  15.989  0.00  0.00    +0.000 C 
BRANCH  19  21
ATOM     20  OE2 UNL     1      40.610 -13.821  14.445  0.00  0.00    +0.000 OA
ATOM     21  CD  UNL     1      39.979 -12.822  14.743  0.00  0.00    +0.000 C 
BRANCH  21  22
ATOM     22  OE1 UNL     1      39.888 -11.757  13.925  0.00  0.00    +0.000 OA
ATOM     23  HE1 UNL     1      38.932 -11.547  13.934  0.00  0.00    +0.000 HD
ENDBRANCH  21  22
ENDBRANCH  19  21
ENDBRANCH  13  18
ENDBRANCH   6  11
ENDBRANCH   1   3
BRANCH   1  24
ATOM     24  C   UNL     1      41.170 -10.512  26.057  0.00  0.00    +0.000 C 
BRANCH  24  31
ATOM     25  O   UNL     1      36.711  -9.020  28.418  0.00  0.00    +0.000 OA
ATOM     26  N   UNL     1      39.390  -9.395  27.354  0.00  0.00    +0.000 N 
ATOM     27  N   UNL     1      41.062  -7.046  27.799  0.00  0.00    +0.000 N 
ATOM     28  N   UNL     1      39.234  -5.936  28.792  0.00  0.00    +0.000 NA
ATOM     29  N   UNL     1      37.210  -6.983  29.191  0.00  0.00    +0.000 N 
ATOM     30  N   UNL     1      37.541  -4.803  29.854  0.00  0.00    +0.000 N 
ATOM     31  C   UNL     1      40.659  -9.404  26.783  0.00  0.00    +0.000 C 
ATOM     32  C   UNL     1      41.362  -8.215  27.033  0.00  0.00    +0.000 C 
ATOM     33  C   UNL     1      38.951  -8.219  28.023  0.00  0.00    +0.000 A 
ATOM     34  C   UNL     1      39.718  -7.090  28.213  0.00  0.00    +0.000 A 
ATOM     35  C   UNL     1      37.549  -8.134  28.549  0.00  0.00    +0.000 A 
ATOM     36  C   UNL     1      38.033  -5.915  29.260  0.00  0.00    +0.000 A 
ATOM     37  H   UNL     1      41.314  -6.110  27.496  0.00  0.00    +0.000 HD
ATOM     38  H   UNL     1      36.253  -6.914  29.500  0.00  0.00    +0.000 HD
ATOM     39  H   UNL     1      38.269  -4.123  30.058  0.00  0.00    +0.000 HD
ATOM     40  H   UNL     1      36.911  -4.941  30.633  0.00  0.00    +0.000 HD
BRANCH  26  42
ATOM     41  O   UNL     1      37.915 -11.419  27.030  0.00  0.00    +0.000 OA
ATOM     42  C   UNL     1      38.610 -10.490  27.216  0.00  0.00    +0.000 C 
ENDBRANCH  26  42
ENDBRANCH  24  31
ENDBRANCH   1  24
TORSDOF 10
ENDMDL
MODEL 4
REMARK VINA RESULT:      -6.6     40.372     43.060
REMARK  Name = 135403648_CalciumFolinate.pdbqt.pdb
REMARK  10 active torsions:
REMARK  status: ('A' for Active; 'I' for Inactive)
REMARK    1  A    between atoms: N_1  and  C_3
REMARK    2  A    between atoms: N_1  and  C_24
REMARK    3  A    between atoms: C_6  and  C_11
REMARK    4  A    between atoms: CA_13  and  C_15
REMARK    5  A    between atoms: CA_13  and  CB_18
REMARK    6  A    between atoms: C_15  and  O_16
REMARK    7  A    between atoms: CG_19  and  CD_21
REMARK    8  A    between atoms: CD_21  and  OE1_22
REMARK    9  A    between atoms: C_24  and  C_32
REMARK   10  A    between atoms: N_27  and  C_37
REMARK                            x       y       z     vdW  Elec       q    Type
REMARK                         _______ _______ _______ _____ _____    ______ ____
ROOT
ATOM      1  N   UNL     1      41.689 -11.662  25.305  0.00  0.00    +0.000 N 
ATOM      2  H   UNL     1      41.972 -12.521  25.776  0.00  0.00    +0.000 HD
ENDROOT
BRANCH   1   3
ATOM      3  C   UNL     1      41.288 -11.893  23.972  0.00  0.00    +0.000 A 
ATOM      4  C   UNL     1      42.100 -11.439  22.928  0.00  0.00    +0.000 A 
ATOM      5  C   UNL     1      40.023 -12.400  23.652  0.00  0.00    +0.000 A 
ATOM      6  C   UNL     1      40.451 -12.102  21.293  0.00  0.00    +0.000 A 
ATOM      7  C   UNL     1      41.694 -11.555  21.599  0.00  0.00    +0.000 A 
ATOM      8  C   UNL     1      39.611 -12.521  22.326  0.00  0.00    +0.000 A 
BRANCH   6  11
ATOM      9  O   UNL     1      40.810 -12.360  19.001  0.00  0.00    +0.000 OA
ATOM     10  N   UNL     1      38.608 -12.250  19.711  0.00  0.00    +0.000 N 
ATOM     11  C   ACE A   0      39.978 -12.250  19.894  0.00  0.00    +0.000 C 
ATOM     12  H   UNL     1      37.996 -12.148  20.517  0.00  0.00    +0.000 HD
ATOM     13  CA  UNL     1      37.926 -12.371  18.513  0.00  0.00    +0.000 C 
BRANCH  13  15
ATOM     14  OXT UNL     1      35.707 -12.208  17.641  0.00  0.00    +0.000 OA
ATOM     15  C   UNL     1      36.447 -12.335  18.606  0.00  0.00    +0.000 C 
BRANCH  15  16
ATOM     16  O   UNL     1      35.971 -12.455  19.854  0.00  0.00    +0.000 OA
ATOM     17  H   UNL     1      36.766 -12.541  20.420  0.00  0.00    +0.000 HD
ENDBRANCH  15  16
ENDBRANCH  13  15
BRANCH  13  18
ATOM     18  CB  UNL     1      38.598 -12.522  17.271  0.00  0.00    +0.000 C 
ATOM     19  CG  UNL     1      39.312 -12.682  15.924  0.00  0.00    +0.000 C 
BRANCH  19  21
ATOM     20  OE2 UNL     1      40.548 -13.839  14.313  0.00  0.00    +0.000 OA
ATOM     21  CD  UNL     1      39.963 -12.828  14.657  0.00  0.00    +0.000 C 
BRANCH  21  22
ATOM     22  OE1 UNL     1      39.894 -11.734  13.877  0.00  0.00    +0.000 OA
ATOM     23  HE1 UNL     1      40.405 -11.066  14.377  0.00  0.00    +0.000 HD
ENDBRANCH  21  22
ENDBRANCH  19  21
ENDBRANCH  13  18
ENDBRANCH   6  11
ENDBRANCH   1   3
BRANCH   1  24
ATOM     24  C   UNL     1      40.927 -10.715  26.110  0.00  0.00    +0.000 C 
BRANCH  24  31
ATOM     25  O   UNL     1      41.851  -7.078  29.798  0.00  0.00    +0.000 OA
ATOM     26  N   UNL     1      40.834  -8.864  27.742  0.00  0.00    +0.000 N 
ATOM     27  N   UNL     1      37.943  -8.619  27.439  0.00  0.00    +0.000 N 
ATOM     28  N   UNL     1      37.894  -7.047  29.195  0.00  0.00    +0.000 NA
ATOM     29  N   UNL     1      39.817  -6.238  30.195  0.00  0.00    +0.000 N 
ATOM     30  N   UNL     1      37.753  -5.442  30.832  0.00  0.00    +0.000 N 
ATOM     31  C   UNL     1      40.212  -9.754  26.873  0.00  0.00    +0.000 C 
ATOM     32  C   UNL     1      38.821  -9.569  26.829  0.00  0.00    +0.000 C 
ATOM     33  C   UNL     1      40.026  -7.970  28.497  0.00  0.00    +0.000 A 
ATOM     34  C   UNL     1      38.657  -7.865  28.388  0.00  0.00    +0.000 A 
ATOM     35  C   UNL     1      40.654  -7.077  29.526  0.00  0.00    +0.000 A 
ATOM     36  C   UNL     1      38.476  -6.272  30.044  0.00  0.00    +0.000 A 
ATOM     37  H   UNL     1      37.025  -8.869  27.794  0.00  0.00    +0.000 HD
ATOM     38  H   UNL     1      40.239  -5.676  30.917  0.00  0.00    +0.000 HD
ATOM     39  H   UNL     1      36.787  -5.366  30.524  0.00  0.00    +0.000 HD
ATOM     40  H   UNL     1      38.163  -4.543  31.048  0.00  0.00    +0.000 HD
BRANCH  26  42
ATOM     41  O   UNL     1      43.347  -8.884  27.993  0.00  0.00    +0.000 OA
ATOM     42  C   UNL     1      42.179  -8.911  27.864  0.00  0.00    +0.000 C 
ENDBRANCH  26  42
ENDBRANCH  24  31
ENDBRANCH   1  24
TORSDOF 10
ENDMDL
MODEL 5
REMARK VINA RESULT:      -6.2     28.098     31.630
REMARK  Name = 135403648_CalciumFolinate.pdbqt.pdb
REMARK  10 active torsions:
REMARK  status: ('A' for Active; 'I' for Inactive)
REMARK    1  A    between atoms: N_1  and  C_3
REMARK    2  A    between atoms: N_1  and  C_24
REMARK    3  A    between atoms: C_6  and  C_11
REMARK    4  A    between atoms: CA_13  and  C_15
REMARK    5  A    between atoms: CA_13  and  CB_18
REMARK    6  A    between atoms: C_15  and  O_16
REMARK    7  A    between atoms: CG_19  and  CD_21
REMARK    8  A    between atoms: CD_21  and  OE1_22
REMARK    9  A    between atoms: C_24  and  C_32
REMARK   10  A    between atoms: N_27  and  C_37
REMARK                            x       y       z     vdW  Elec       q    Type
REMARK                         _______ _______ _______ _____ _____    ______ ____
ROOT
ATOM      1  N   UNL     1      23.423  -6.309  21.639  0.00  0.00    +0.000 N 
ATOM      2  H   UNL     1      22.541  -6.814  21.707  0.00  0.00    +0.000 HD
ENDROOT
BRANCH   1   3
ATOM      3  C   UNL     1      23.634  -5.778  20.348  0.00  0.00    +0.000 A 
ATOM      4  C   UNL     1      24.635  -6.328  19.541  0.00  0.00    +0.000 A 
ATOM      5  C   UNL     1      23.003  -4.608  19.911  0.00  0.00    +0.000 A 
ATOM      6  C   UNL     1      24.277  -4.632  17.860  0.00  0.00    +0.000 A 
ATOM      7  C   UNL     1      24.945  -5.771  18.301  0.00  0.00    +0.000 A 
ATOM      8  C   UNL     1      23.306  -4.047  18.673  0.00  0.00    +0.000 A 
BRANCH   6  11
ATOM      9  O   UNL     1      24.235  -2.841  16.362  0.00  0.00    +0.000 OA
ATOM     10  N   UNL     1      25.208  -4.807  15.618  0.00  0.00    +0.000 N 
ATOM     11  C   ACE A   0      24.570  -4.006  16.546  0.00  0.00    +0.000 C 
ATOM     12  H   UNL     1      25.442  -5.766  15.863  0.00  0.00    +0.000 HD
ATOM     13  CA  UNL     1      25.583  -4.459  14.332  0.00  0.00    +0.000 C 
BRANCH  13  15
ATOM     14  OXT UNL     1      26.894  -6.437  14.044  0.00  0.00    +0.000 OA
ATOM     15  C   UNL     1      26.253  -5.523  13.546  0.00  0.00    +0.000 C 
BRANCH  15  16
ATOM     16  O   UNL     1      26.098  -5.407  12.218  0.00  0.00    +0.000 OA
ATOM     17  H   UNL     1      26.735  -6.044  11.834  0.00  0.00    +0.000 HD
ENDBRANCH  15  16
ENDBRANCH  13  15
BRANCH  13  18
ATOM     18  CB  UNL     1      25.344  -3.166  13.797  0.00  0.00    +0.000 C 
ATOM     19  CG  UNL     1      25.094  -1.772  13.210  0.00  0.00    +0.000 C 
BRANCH  19  21
ATOM     20  OE2 UNL     1      25.457  -0.058  11.663  0.00  0.00    +0.000 OA
ATOM     21  CD  UNL     1      24.871  -0.476  12.646  0.00  0.00    +0.000 C 
BRANCH  21  22
ATOM     22  OE1 UNL     1      23.964   0.262  13.311  0.00  0.00    +0.000 OA
ATOM     23  HE1 UNL     1      23.943   1.101  12.808  0.00  0.00    +0.000 HD
ENDBRANCH  21  22
ENDBRANCH  19  21
ENDBRANCH  13  18
ENDBRANCH   6  11
ENDBRANCH   1   3
BRANCH   1  24
ATOM     24  C   UNL     1      23.785  -5.498  22.795  0.00  0.00    +0.000 C 
BRANCH  24  31
ATOM     25  O   UNL     1      27.930  -4.265  25.792  0.00  0.00    +0.000 OA
ATOM     26  N   UNL     1      25.381  -4.551  24.424  0.00  0.00    +0.000 N 
ATOM     27  N   UNL     1      23.261  -3.075  25.781  0.00  0.00    +0.000 N 
ATOM     28  N   UNL     1      24.789  -2.426  27.456  0.00  0.00    +0.000 NA
ATOM     29  N   UNL     1      27.048  -2.907  27.334  0.00  0.00    +0.000 N 
ATOM     30  N   UNL     1      26.217  -1.666  29.086  0.00  0.00    +0.000 N 
ATOM     31  C   UNL     1      24.088  -4.707  23.935  0.00  0.00    +0.000 C 
ATOM     32  C   UNL     1      23.146  -3.980  24.680  0.00  0.00    +0.000 C 
ATOM     33  C   UNL     1      25.576  -3.776  25.601  0.00  0.00    +0.000 A 
ATOM     34  C   UNL     1      24.580  -3.099  26.271  0.00  0.00    +0.000 A 
ATOM     35  C   UNL     1      26.939  -3.682  26.220  0.00  0.00    +0.000 A 
ATOM     36  C   UNL     1      25.981  -2.341  27.937  0.00  0.00    +0.000 A 
ATOM     37  H   UNL     1      22.594  -3.053  26.546  0.00  0.00    +0.000 HD
ATOM     38  H   UNL     1      27.955  -2.887  27.771  0.00  0.00    +0.000 HD
ATOM     39  H   UNL     1      25.423  -1.098  29.367  0.00  0.00    +0.000 HD
ATOM     40  H   UNL     1      27.094  -1.165  29.151  0.00  0.00    +0.000 HD
BRANCH  26  42
ATOM     41  O   UNL     1      27.296  -5.653  23.202  0.00  0.00    +0.000 OA
ATOM     42  C   UNL     1      26.395  -5.175  23.786  0.00  0.00    +0.000 C 
ENDBRANCH  26  42
ENDBRANCH  24  31
ENDBRANCH   1  24
TORSDOF 10
ENDMDL
MODEL 6
REMARK VINA RESULT:      -6.2      6.798     11.959
REMARK  Name = 135403648_CalciumFolinate.pdbqt.pdb
REMARK  10 active torsions:
REMARK  status: ('A' for Active; 'I' for Inactive)
REMARK    1  A    between atoms: N_1  and  C_3
REMARK    2  A    between atoms: N_1  and  C_24
REMARK    3  A    between atoms: C_6  and  C_11
REMARK    4  A    between atoms: CA_13  and  C_15
REMARK    5  A    between atoms: CA_13  and  CB_18
REMARK    6  A    between atoms: C_15  and  O_16
REMARK    7  A    between atoms: CG_19  and  CD_21
REMARK    8  A    between atoms: CD_21  and  OE1_22
REMARK    9  A    between atoms: C_24  and  C_32
REMARK   10  A    between atoms: N_27  and  C_37
REMARK                            x       y       z     vdW  Elec       q    Type
REMARK                         _______ _______ _______ _____ _____    ______ ____
ROOT
ATOM      1  N   UNL     1      29.747  25.494  -3.951  0.00  0.00    +0.000 N 
ATOM      2  H   UNL     1      29.304  26.006  -4.713  0.00  0.00    +0.000 HD
ENDROOT
BRANCH   1   3
ATOM      3  C   UNL     1      28.804  24.974  -3.039  0.00  0.00    +0.000 A 
ATOM      4  C   UNL     1      28.183  25.840  -2.134  0.00  0.00    +0.000 A 
ATOM      5  C   UNL     1      28.597  23.599  -2.884  0.00  0.00    +0.000 A 
ATOM      6  C   UNL     1      27.091  23.987  -1.036  0.00  0.00    +0.000 A 
ATOM      7  C   UNL     1      27.321  25.356  -1.151  0.00  0.00    +0.000 A 
ATOM      8  C   UNL     1      27.737  23.107  -1.905  0.00  0.00    +0.000 A 
BRANCH   6  11
ATOM      9  O   UNL     1      25.657  22.336  -0.219  0.00  0.00    +0.000 OA
ATOM     10  N   UNL     1      25.991  24.194   1.125  0.00  0.00    +0.000 N 
ATOM     11  C   ACE A   0      26.180  23.425  -0.008  0.00  0.00    +0.000 C 
ATOM     12  H   UNL     1      26.467  25.089   1.206  0.00  0.00    +0.000 HD
ATOM     13  CA  UNL     1      25.194  23.891   2.215  0.00  0.00    +0.000 C 
BRANCH  13  15
ATOM     14  OXT UNL     1      25.901  25.884   3.328  0.00  0.00    +0.000 OA
ATOM     15  C   UNL     1      25.171  24.904   3.298  0.00  0.00    +0.000 C 
BRANCH  15  16
ATOM     16  O   UNL     1      24.270  24.660   4.261  0.00  0.00    +0.000 OA
ATOM     17  H   UNL     1      23.577  24.121   3.826  0.00  0.00    +0.000 HD
ENDBRANCH  15  16
ENDBRANCH  13  15
BRANCH  13  18
ATOM     18  CB  UNL     1      24.444  22.688   2.295  0.00  0.00    +0.000 C 
ATOM     19  CG  UNL     1      23.643  21.384   2.376  0.00  0.00    +0.000 C 
BRANCH  19  21
ATOM     20  OE2 UNL     1      21.980  19.887   1.700  0.00  0.00    +0.000 OA
ATOM     21  CD  UNL     1      22.909  20.157   2.441  0.00  0.00    +0.000 C 
BRANCH  21  22
ATOM     22  OE1 UNL     1      23.319  19.323   3.414  0.00  0.00    +0.000 OA
ATOM     23  HE1 UNL     1      22.855  18.487   3.205  0.00  0.00    +0.000 HD
ENDBRANCH  21  22
ENDBRANCH  19  21
ENDBRANCH  13  18
ENDBRANCH   6  11
ENDBRANCH   1   3
BRANCH   1  24
ATOM     24  C   UNL     1      30.892  24.669  -4.318  0.00  0.00    +0.000 C 
BRANCH  24  31
ATOM     25  O   UNL     1      31.734  19.822  -6.182  0.00  0.00    +0.000 OA
ATOM     26  N   UNL     1      31.813  22.567  -5.228  0.00  0.00    +0.000 N 
ATOM     27  N   UNL     1      34.552  23.493  -4.845  0.00  0.00    +0.000 N 
ATOM     28  N   UNL     1      35.356  21.366  -5.471  0.00  0.00    +0.000 NA
ATOM     29  N   UNL     1      33.964  19.686  -6.240  0.00  0.00    +0.000 N 
ATOM     30  N   UNL     1      36.242  19.359  -6.152  0.00  0.00    +0.000 N 
ATOM     31  C   UNL     1      31.982  23.824  -4.659  0.00  0.00    +0.000 C 
ATOM     32  C   UNL     1      33.336  24.155  -4.491  0.00  0.00    +0.000 C 
ATOM     33  C   UNL     1      32.966  21.776  -5.491  0.00  0.00    +0.000 A 
ATOM     34  C   UNL     1      34.265  22.187  -5.285  0.00  0.00    +0.000 A 
ATOM     35  C   UNL     1      32.814  20.372  -5.997  0.00  0.00    +0.000 A 
ATOM     36  C   UNL     1      35.185  20.178  -5.938  0.00  0.00    +0.000 A 
ATOM     37  H   UNL     1      35.374  23.498  -4.249  0.00  0.00    +0.000 HD
ATOM     38  H   UNL     1      33.855  18.729  -6.534  0.00  0.00    +0.000 HD
ATOM     39  H   UNL     1      37.127  19.856  -6.105  0.00  0.00    +0.000 HD
ATOM     40  H   UNL     1      36.186  18.739  -6.949  0.00  0.00    +0.000 HD
BRANCH  26  42
ATOM     41  O   UNL     1      29.459  21.737  -5.615  0.00  0.00    +0.000 OA
ATOM     42  C   UNL     1      30.558  22.129  -5.473  0.00  0.00    +0.000 C 
ENDBRANCH  26  42
ENDBRANCH  24  31
ENDBRANCH   1  24
TORSDOF 10
ENDMDL
MODEL 7
REMARK VINA RESULT:      -6.2     18.987     23.627
REMARK  Name = 135403648_CalciumFolinate.pdbqt.pdb
REMARK  10 active torsions:
REMARK  status: ('A' for Active; 'I' for Inactive)
REMARK    1  A    between atoms: N_1  and  C_3
REMARK    2  A    between atoms: N_1  and  C_24
REMARK    3  A    between atoms: C_6  and  C_11
REMARK    4  A    between atoms: CA_13  and  C_15
REMARK    5  A    between atoms: CA_13  and  CB_18
REMARK    6  A    between atoms: C_15  and  O_16
REMARK    7  A    between atoms: CG_19  and  CD_21
REMARK    8  A    between atoms: CD_21  and  OE1_22
REMARK    9  A    between atoms: C_24  and  C_32
REMARK   10  A    between atoms: N_27  and  C_37
REMARK                            x       y       z     vdW  Elec       q    Type
REMARK                         _______ _______ _______ _____ _____    ______ ____
ROOT
ATOM      1  N   UNL     1      32.570  34.119  10.414  0.00  0.00    +0.000 N 
ATOM      2  H   UNL     1      32.838  35.072  10.171  0.00  0.00    +0.000 HD
ENDROOT
BRANCH   1   3
ATOM      3  C   UNL     1      33.523  33.494  11.246  0.00  0.00    +0.000 A 
ATOM      4  C   UNL     1      33.349  33.536  12.633  0.00  0.00    +0.000 A 
ATOM      5  C   UNL     1      34.730  32.990  10.748  0.00  0.00    +0.000 A 
ATOM      6  C   UNL     1      35.493  32.482  12.983  0.00  0.00    +0.000 A 
ATOM      7  C   UNL     1      34.316  33.020  13.495  0.00  0.00    +0.000 A 
ATOM      8  C   UNL     1      35.701  32.472  11.603  0.00  0.00    +0.000 A 
BRANCH   6  11
ATOM      9  O   UNL     1      36.388  31.960  15.075  0.00  0.00    +0.000 OA
ATOM     10  N   UNL     1      37.651  31.382  13.221  0.00  0.00    +0.000 N 
ATOM     11  C   ACE A   0      36.549  31.918  13.861  0.00  0.00    +0.000 C 
ATOM     12  H   UNL     1      37.695  31.398  12.205  0.00  0.00    +0.000 HD
ATOM     13  CA  UNL     1      38.760  30.804  13.813  0.00  0.00    +0.000 C 
BRANCH  13  15
ATOM     14  OXT UNL     1      40.989  30.224  13.174  0.00  0.00    +0.000 OA
ATOM     15  C   UNL     1      39.804  30.311  12.883  0.00  0.00    +0.000 C 
BRANCH  15  16
ATOM     16  O   UNL     1      39.343  29.960  11.673  0.00  0.00    +0.000 OA
ATOM     17  H   UNL     1      38.373  30.090  11.726  0.00  0.00    +0.000 HD
ENDBRANCH  15  16
ENDBRANCH  13  15
BRANCH  13  18
ATOM     18  CB  UNL     1      38.892  30.686  15.222  0.00  0.00    +0.000 C 
ATOM     19  CG  UNL     1      39.041  30.549  16.741  0.00  0.00    +0.000 C 
BRANCH  19  21
ATOM     20  OE2 UNL     1      39.349  31.344  18.917  0.00  0.00    +0.000 OA
ATOM     21  CD  UNL     1      39.191  30.405  18.157  0.00  0.00    +0.000 C 
BRANCH  21  22
ATOM     22  OE1 UNL     1      39.165  29.130  18.585  0.00  0.00    +0.000 OA
ATOM     23  HE1 UNL     1      38.624  29.175  19.399  0.00  0.00    +0.000 HD
ENDBRANCH  21  22
ENDBRANCH  19  21
ENDBRANCH  13  18
ENDBRANCH   6  11
ENDBRANCH   1   3
BRANCH   1  24
ATOM     24  C   UNL     1      31.155  33.906  10.690  0.00  0.00    +0.000 C 
BRANCH  24  31
ATOM     25  O   UNL     1      27.626  30.042  11.227  0.00  0.00    +0.000 OA
ATOM     26  N   UNL     1      29.165  32.504  11.106  0.00  0.00    +0.000 N 
ATOM     27  N   UNL     1      27.465  34.852  11.431  0.00  0.00    +0.000 N 
ATOM     28  N   UNL     1      25.567  33.458  11.552  0.00  0.00    +0.000 NA
ATOM     29  N   UNL     1      25.719  31.150  11.593  0.00  0.00    +0.000 N 
ATOM     30  N   UNL     1      23.669  32.183  11.773  0.00  0.00    +0.000 N 
ATOM     31  C   UNL     1      29.767  33.748  10.946  0.00  0.00    +0.000 C 
ATOM     32  C   UNL     1      28.852  34.804  11.091  0.00  0.00    +0.000 C 
ATOM     33  C   UNL     1      27.759  32.448  11.313  0.00  0.00    +0.000 A 
ATOM     34  C   UNL     1      26.938  33.547  11.436  0.00  0.00    +0.000 A 
ATOM     35  C   UNL     1      27.062  31.121  11.375  0.00  0.00    +0.000 A 
ATOM     36  C   UNL     1      25.011  32.299  11.634  0.00  0.00    +0.000 A 
ATOM     37  H   UNL     1      26.815  35.500  10.995  0.00  0.00    +0.000 HD
ATOM     38  H   UNL     1      25.251  30.258  11.586  0.00  0.00    +0.000 HD
ATOM     39  H   UNL     1      23.230  33.069  12.006  0.00  0.00    +0.000 HD
ATOM     40  H   UNL     1      23.332  31.420  12.345  0.00  0.00    +0.000 HD
BRANCH  26  42
ATOM     41  O   UNL     1      30.569  30.408  11.003  0.00  0.00    +0.000 OA
ATOM     42  C   UNL     1      29.934  31.397  11.020  0.00  0.00    +0.000 C 
ENDBRANCH  26  42
ENDBRANCH  24  31
ENDBRANCH   1  24
TORSDOF 10
ENDMDL
MODEL 8
REMARK VINA RESULT:      -6.0      1.567      2.296
REMARK  Name = 135403648_CalciumFolinate.pdbqt.pdb
REMARK  10 active torsions:
REMARK  status: ('A' for Active; 'I' for Inactive)
REMARK    1  A    between atoms: N_1  and  C_3
REMARK    2  A    between atoms: N_1  and  C_24
REMARK    3  A    between atoms: C_6  and  C_11
REMARK    4  A    between atoms: CA_13  and  C_15
REMARK    5  A    between atoms: CA_13  and  CB_18
REMARK    6  A    between atoms: C_15  and  O_16
REMARK    7  A    between atoms: CG_19  and  CD_21
REMARK    8  A    between atoms: CD_21  and  OE1_22
REMARK    9  A    between atoms: C_24  and  C_32
REMARK   10  A    between atoms: N_27  and  C_37
REMARK                            x       y       z     vdW  Elec       q    Type
REMARK                         _______ _______ _______ _____ _____    ______ ____
ROOT
ATOM      1  N   UNL     1      19.654  17.984   2.844  0.00  0.00    +0.000 N 
ATOM      2  H   UNL     1      19.950  17.213   3.441  0.00  0.00    +0.000 HD
ENDROOT
BRANCH   1   3
ATOM      3  C   UNL     1      18.332  18.393   3.118  0.00  0.00    +0.000 A 
ATOM      4  C   UNL     1      18.016  18.863   4.397  0.00  0.00    +0.000 A 
ATOM      5  C   UNL     1      17.284  18.178   2.216  0.00  0.00    +0.000 A 
ATOM      6  C   UNL     1      15.676  19.004   3.818  0.00  0.00    +0.000 A 
ATOM      7  C   UNL     1      16.703  19.182   4.741  0.00  0.00    +0.000 A 
ATOM      8  C   UNL     1      15.969  18.495   2.553  0.00  0.00    +0.000 A 
BRANCH   6  11
ATOM      9  O   UNL     1      13.703  20.207   3.487  0.00  0.00    +0.000 OA
ATOM     10  N   UNL     1      13.688  18.612   5.167  0.00  0.00    +0.000 N 
ATOM     11  C   ACE A   0      14.264  19.333   4.138  0.00  0.00    +0.000 C 
ATOM     12  H   UNL     1      14.239  17.908   5.652  0.00  0.00    +0.000 HD
ATOM     13  CA  UNL     1      12.398  18.734   5.651  0.00  0.00    +0.000 C 
BRANCH  13  15
ATOM     14  OXT UNL     1      11.659  18.222   7.865  0.00  0.00    +0.000 OA
ATOM     15  C   UNL     1      12.041  17.831   6.772  0.00  0.00    +0.000 C 
BRANCH  15  16
ATOM     16  O   UNL     1      12.172  16.526   6.491  0.00  0.00    +0.000 OA
ATOM     17  H   UNL     1      13.114  16.415   6.244  0.00  0.00    +0.000 HD
ENDBRANCH  15  16
ENDBRANCH  13  15
BRANCH  13  18
ATOM     18  CB  UNL     1      11.470  19.662   5.109  0.00  0.00    +0.000 C 
ATOM     19  CG  UNL     1      10.477  20.670   4.520  0.00  0.00    +0.000 C 
BRANCH  19  21
ATOM     20  OE2 UNL     1       9.352  22.718   4.444  0.00  0.00    +0.000 OA
ATOM     21  CD  UNL     1       9.564  21.620   3.960  0.00  0.00    +0.000 C 
BRANCH  21  22
ATOM     22  OE1 UNL     1       8.933  21.187   2.853  0.00  0.00    +0.000 OA
ATOM     23  HE1 UNL     1       9.668  20.932   2.259  0.00  0.00    +0.000 HD
ENDBRANCH  21  22
ENDBRANCH  19  21
ENDBRANCH  13  18
ENDBRANCH   6  11
ENDBRANCH   1   3
BRANCH   1  24
ATOM     24  C   UNL     1      20.660  19.004   2.576  0.00  0.00    +0.000 C 
BRANCH  24  31
ATOM     25  O   UNL     1      24.191  20.422  -1.058  0.00  0.00    +0.000 OA
ATOM     26  N   UNL     1      22.366  20.123   1.185  0.00  0.00    +0.000 N 
ATOM     27  N   UNL     1      22.835  22.152   3.229  0.00  0.00    +0.000 N 
ATOM     28  N   UNL     1      24.633  23.006   1.965  0.00  0.00    +0.000 NA
ATOM     29  N   UNL     1      25.148  22.227  -0.151  0.00  0.00    +0.000 N 
ATOM     30  N   UNL     1      26.342  23.967   0.769  0.00  0.00    +0.000 N 
ATOM     31  C   UNL     1      21.637  20.014   2.364  0.00  0.00    +0.000 C 
ATOM     32  C   UNL     1      21.964  21.019   3.288  0.00  0.00    +0.000 C 
ATOM     33  C   UNL     1      23.355  21.141   1.087  0.00  0.00    +0.000 A 
ATOM     34  C   UNL     1      23.610  22.086   2.056  0.00  0.00    +0.000 A 
ATOM     35  C   UNL     1      24.238  21.216  -0.124  0.00  0.00    +0.000 A 
ATOM     36  C   UNL     1      25.347  23.058   0.894  0.00  0.00    +0.000 A 
ATOM     37  H   UNL     1      23.400  22.452   4.017  0.00  0.00    +0.000 HD
ATOM     38  H   UNL     1      25.768  22.243  -0.945  0.00  0.00    +0.000 HD
ATOM     39  H   UNL     1      26.299  24.684   1.488  0.00  0.00    +0.000 HD
ATOM     40  H   UNL     1      26.496  24.353  -0.153  0.00  0.00    +0.000 HD
BRANCH  26  42
ATOM     41  O   UNL     1      21.861  18.466  -0.652  0.00  0.00    +0.000 OA
ATOM     42  C   UNL     1      22.134  19.235   0.194  0.00  0.00    +0.000 C 
ENDBRANCH  26  42
ENDBRANCH  24  31
ENDBRANCH   1  24
TORSDOF 10
ENDMDL
MODEL 9
REMARK VINA RESULT:      -5.9      1.646      2.163
REMARK  Name = 135403648_CalciumFolinate.pdbqt.pdb
REMARK  10 active torsions:
REMARK  status: ('A' for Active; 'I' for Inactive)
REMARK    1  A    between atoms: N_1  and  C_3
REMARK    2  A    between atoms: N_1  and  C_24
REMARK    3  A    between atoms: C_6  and  C_11
REMARK    4  A    between atoms: CA_13  and  C_15
REMARK    5  A    between atoms: CA_13  and  CB_18
REMARK    6  A    between atoms: C_15  and  O_16
REMARK    7  A    between atoms: CG_19  and  CD_21
REMARK    8  A    between atoms: CD_21  and  OE1_22
REMARK    9  A    between atoms: C_24  and  C_32
REMARK   10  A    between atoms: N_27  and  C_37
REMARK                            x       y       z     vdW  Elec       q    Type
REMARK                         _______ _______ _______ _____ _____    ______ ____
ROOT
ATOM      1  N   UNL     1      21.652  18.782   3.342  0.00  0.00    +0.000 N 
ATOM      2  H   UNL     1      22.123  19.054   4.204  0.00  0.00    +0.000 HD
ENDROOT
BRANCH   1   3
ATOM      3  C   UNL     1      20.261  18.629   3.521  0.00  0.00    +0.000 A 
ATOM      4  C   UNL     1      19.395  19.018   2.494  0.00  0.00    +0.000 A 
ATOM      5  C   UNL     1      19.703  18.271   4.754  0.00  0.00    +0.000 A 
ATOM      6  C   UNL     1      17.471  18.579   3.885  0.00  0.00    +0.000 A 
ATOM      7  C   UNL     1      18.012  18.979   2.666  0.00  0.00    +0.000 A 
ATOM      8  C   UNL     1      18.322  18.229   4.933  0.00  0.00    +0.000 A 
BRANCH   6  11
ATOM      9  O   UNL     1      15.336  19.525   3.914  0.00  0.00    +0.000 OA
ATOM     10  N   UNL     1      15.507  17.303   4.545  0.00  0.00    +0.000 N 
ATOM     11  C   ACE A   0      16.005  18.518   4.114  0.00  0.00    +0.000 C 
ATOM     12  H   UNL     1      16.144  16.523   4.687  0.00  0.00    +0.000 HD
ATOM     13  CA  UNL     1      14.188  16.996   4.828  0.00  0.00    +0.000 C 
BRANCH  13  15
ATOM     14  OXT UNL     1      13.891  14.643   4.528  0.00  0.00    +0.000 OA
ATOM     15  C   UNL     1      13.932  15.606   5.279  0.00  0.00    +0.000 C 
BRANCH  15  16
ATOM     16  O   UNL     1      13.745  15.483   6.602  0.00  0.00    +0.000 OA
ATOM     17  H   UNL     1      13.650  16.401   6.930  0.00  0.00    +0.000 HD
ENDBRANCH  15  16
ENDBRANCH  13  15
BRANCH  13  18
ATOM     18  CB  UNL     1      13.142  17.947   4.694  0.00  0.00    +0.000 C 
ATOM     19  CG  UNL     1      12.010  18.969   4.540  0.00  0.00    +0.000 C 
BRANCH  19  21
ATOM     20  OE2 UNL     1       9.790  19.599   4.172  0.00  0.00    +0.000 OA
ATOM     21  CD  UNL     1      10.948  19.915   4.379  0.00  0.00    +0.000 C 
BRANCH  21  22
ATOM     22  OE1 UNL     1      11.341  21.199   4.456  0.00  0.00    +0.000 OA
ATOM     23  HE1 UNL     1      11.899  21.217   5.260  0.00  0.00    +0.000 HD
ENDBRANCH  21  22
ENDBRANCH  19  21
ENDBRANCH  13  18
ENDBRANCH   6  11
ENDBRANCH   1   3
BRANCH   1  24
ATOM     24  C   UNL     1      22.134  19.422   2.124  0.00  0.00    +0.000 C 
BRANCH  24  31
ATOM     25  O   UNL     1      24.939  23.589   0.561  0.00  0.00    +0.000 OA
ATOM     26  N   UNL     1      23.401  21.145   0.890  0.00  0.00    +0.000 N 
ATOM     27  N   UNL     1      22.587  20.034  -1.681  0.00  0.00    +0.000 N 
ATOM     28  N   UNL     1      23.593  21.858  -2.786  0.00  0.00    +0.000 NA
ATOM     29  N   UNL     1      24.832  23.460  -1.668  0.00  0.00    +0.000 N 
ATOM     30  N   UNL     1      24.620  23.545  -3.959  0.00  0.00    +0.000 N 
ATOM     31  C   UNL     1      22.556  20.040   0.917  0.00  0.00    +0.000 C 
ATOM     32  C   UNL     1      22.203  19.609  -0.372  0.00  0.00    +0.000 C 
ATOM     33  C   UNL     1      23.730  21.721  -0.368  0.00  0.00    +0.000 A 
ATOM     34  C   UNL     1      23.327  21.227  -1.589  0.00  0.00    +0.000 A 
ATOM     35  C   UNL     1      24.544  22.980  -0.428  0.00  0.00    +0.000 A 
ATOM     36  C   UNL     1      24.323  22.919  -2.796  0.00  0.00    +0.000 A 
ATOM     37  H   UNL     1      21.935  20.074  -2.459  0.00  0.00    +0.000 HD
ATOM     38  H   UNL     1      25.338  24.330  -1.699  0.00  0.00    +0.000 HD
ATOM     39  H   UNL     1      24.388  22.977  -4.770  0.00  0.00    +0.000 HD
ATOM     40  H   UNL     1      25.536  23.967  -4.031  0.00  0.00    +0.000 HD
BRANCH  26  42
ATOM     41  O   UNL     1      24.262  22.027   3.094  0.00  0.00    +0.000 OA
ATOM     42  C   UNL     1      23.845  21.650   2.061  0.00  0.00    +0.000 C 
ENDBRANCH  26  42
ENDBRANCH  24  31
ENDBRANCH   1  24
TORSDOF 10
ENDMDL
