MODEL 1
REMARK VINA RESULT:      -9.5      0.000      0.000
REMARK  Name = 14132199_RiccardinD.pdbqt.pdb
REMARK  3 active torsions:
REMARK  status: ('A' for Active; 'I' for Inactive)
REMARK    1  A    between atoms: C_11  and  O_30
REMARK    2  A    between atoms: C_16  and  O_32
REMARK    3  A    between atoms: C_28  and  O_34
REMARK                            x       y       z     vdW  Elec       q    Type
REMARK                         _______ _______ _______ _____ _____    ______ ____
ROOT
ATOM      1  O   UNL     1      50.263  -3.821   9.940  0.00  0.00    +0.000 OA
ATOM      2  C   UNL     1      45.064  -0.154  12.746  0.00  0.00    +0.000 C 
ATOM      3  C   UNL     1      43.782   0.050  13.359  0.00  0.00    +0.000 A 
ATOM      4  C   UNL     1      42.886  -1.027  13.583  0.00  0.00    +0.000 A 
ATOM      5  C   UNL     1      46.405  -0.545  12.106  0.00  0.00    +0.000 C 
ATOM      6  C   UNL     1      45.074  -5.790  11.535  0.00  0.00    +0.000 C 
ATOM      7  C   UNL     1      43.188  -2.384  13.074  0.00  0.00    +0.000 A 
ATOM      8  C   UNL     1      44.165  -4.808  12.026  0.00  0.00    +0.000 A 
ATOM      9  C   UNL     1      46.350  -6.411  10.962  0.00  0.00    +0.000 C 
ATOM     10  C   UNL     1      47.576  -1.116  11.523  0.00  0.00    +0.000 A 
ATOM     11  C   UNL     1      43.437  -3.487  13.904  0.00  0.00    +0.000 A 
ATOM     12  C   UNL     1      47.680  -6.431  10.459  0.00  0.00    +0.000 A 
ATOM     13  C   UNL     1      43.328  -2.573  11.692  0.00  0.00    +0.000 A 
ATOM     14  C   UNL     1      43.943  -4.685  13.394  0.00  0.00    +0.000 A 
ATOM     15  C   UNL     1      43.820  -3.766  11.170  0.00  0.00    +0.000 A 
ATOM     16  C   UNL     1      41.703  -0.736  14.287  0.00  0.00    +0.000 A 
ATOM     17  C   UNL     1      43.469   1.345  13.777  0.00  0.00    +0.000 A 
ATOM     18  C   UNL     1      41.386   0.563  14.685  0.00  0.00    +0.000 A 
ATOM     19  C   UNL     1      42.266   1.606  14.422  0.00  0.00    +0.000 A 
ATOM     20  C   UNL     1      48.323  -5.198  10.439  0.00  0.00    +0.000 A 
ATOM     21  C   UNL     1      47.645  -1.285  10.140  0.00  0.00    +0.000 A 
ATOM     22  C   UNL     1      48.540  -1.693  12.351  0.00  0.00    +0.000 A 
ATOM     23  C   UNL     1      49.621  -5.048   9.964  0.00  0.00    +0.000 A 
ATOM     24  C   UNL     1      48.339  -7.560   9.997  0.00  0.00    +0.000 A 
ATOM     25  C   UNL     1      49.517  -2.767  10.434  0.00  0.00    +0.000 A 
ATOM     26  C   UNL     1      48.626  -2.105   9.587  0.00  0.00    +0.000 A 
ATOM     27  C   UNL     1      49.525  -2.514  11.806  0.00  0.00    +0.000 A 
ATOM     28  C   UNL     1      50.281  -6.181   9.501  0.00  0.00    +0.000 A 
ATOM     29  C   UNL     1      49.648  -7.429   9.517  0.00  0.00    +0.000 A 
ENDROOT
BRANCH  11  30
ATOM     30  O   UNL     1      43.197  -3.384  15.249  0.00  0.00    +0.000 OA
ATOM     31  H   UNL     1      44.055  -3.273  15.703  0.00  0.00    +0.000 HD
ENDBRANCH  11  30
BRANCH  16  32
ATOM     32  O   UNL     1      40.804  -1.707  14.641  0.00  0.00    +0.000 OA
ATOM     33  H   UNL     1      41.263  -2.563  14.544  0.00  0.00    +0.000 HD
ENDBRANCH  16  32
BRANCH  28  34
ATOM     34  O   UNL     1      51.558  -6.113   9.021  0.00  0.00    +0.000 OA
ATOM     35  H   UNL     1      51.601  -5.347   8.420  0.00  0.00    +0.000 HD
ENDBRANCH  28  34
TORSDOF 3
ENDMDL
MODEL 2
REMARK VINA RESULT:      -9.3      1.108      8.560
REMARK  Name = 14132199_RiccardinD.pdbqt.pdb
REMARK  3 active torsions:
REMARK  status: ('A' for Active; 'I' for Inactive)
REMARK    1  A    between atoms: C_11  and  O_30
REMARK    2  A    between atoms: C_16  and  O_32
REMARK    3  A    between atoms: C_28  and  O_34
REMARK                            x       y       z     vdW  Elec       q    Type
REMARK                         _______ _______ _______ _____ _____    ______ ____
ROOT
ATOM      1  O   UNL     1      42.042  -3.051  14.346  0.00  0.00    +0.000 OA
ATOM      2  C   UNL     1      47.622  -5.847  11.280  0.00  0.00    +0.000 C 
ATOM      3  C   UNL     1      48.888  -5.845  10.604  0.00  0.00    +0.000 A 
ATOM      4  C   UNL     1      49.527  -4.636  10.227  0.00  0.00    +0.000 A 
ATOM      5  C   UNL     1      46.287  -5.675  12.021  0.00  0.00    +0.000 C 
ATOM      6  C   UNL     1      46.269  -0.251  11.581  0.00  0.00    +0.000 C 
ATOM      7  C   UNL     1      48.850  -3.332  10.406  0.00  0.00    +0.000 A 
ATOM      8  C   UNL     1      47.268  -1.075  10.984  0.00  0.00    +0.000 A 
ATOM      9  C   UNL     1      45.011   0.155  12.352  0.00  0.00    +0.000 C 
ATOM     10  C   UNL     1      45.087  -5.298  12.695  0.00  0.00    +0.000 A 
ATOM     11  C   UNL     1      49.294  -2.340  11.293  0.00  0.00    +0.000 A 
ATOM     12  C   UNL     1      43.818  -0.043  13.099  0.00  0.00    +0.000 A 
ATOM     13  C   UNL     1      47.645  -3.097   9.728  0.00  0.00    +0.000 A 
ATOM     14  C   UNL     1      48.505  -1.230  11.601  0.00  0.00    +0.000 A 
ATOM     15  C   UNL     1      46.856  -1.988  10.017  0.00  0.00    +0.000 A 
ATOM     16  C   UNL     1      50.813  -4.743   9.667  0.00  0.00    +0.000 A 
ATOM     17  C   UNL     1      49.495  -7.082  10.374  0.00  0.00    +0.000 A 
ATOM     18  C   UNL     1      51.407  -5.981   9.422  0.00  0.00    +0.000 A 
ATOM     19  C   UNL     1      50.743  -7.152   9.768  0.00  0.00    +0.000 A 
ATOM     20  C   UNL     1      43.502  -1.369  13.369  0.00  0.00    +0.000 A 
ATOM     21  C   UNL     1      43.925  -5.069  11.957  0.00  0.00    +0.000 A 
ATOM     22  C   UNL     1      45.140  -4.954  14.046  0.00  0.00    +0.000 A 
ATOM     23  C   UNL     1      42.361  -1.729  14.078  0.00  0.00    +0.000 A 
ATOM     24  C   UNL     1      42.981   0.970  13.544  0.00  0.00    +0.000 A 
ATOM     25  C   UNL     1      42.951  -3.975  13.865  0.00  0.00    +0.000 A 
ATOM     26  C   UNL     1      42.845  -4.414  12.545  0.00  0.00    +0.000 A 
ATOM     27  C   UNL     1      44.064  -4.299  14.642  0.00  0.00    +0.000 A 
ATOM     28  C   UNL     1      41.523  -0.713  14.523  0.00  0.00    +0.000 A 
ATOM     29  C   UNL     1      41.828   0.627  14.261  0.00  0.00    +0.000 A 
ENDROOT
BRANCH  11  30
ATOM     30  O   UNL     1      50.522  -2.470  11.886  0.00  0.00    +0.000 OA
ATOM     31  H   UNL     1      51.188  -2.590  11.181  0.00  0.00    +0.000 HD
ENDBRANCH  11  30
BRANCH  16  32
ATOM     32  O   UNL     1      51.566  -3.644   9.347  0.00  0.00    +0.000 OA
ATOM     33  H   UNL     1      52.020  -3.848   8.508  0.00  0.00    +0.000 HD
ENDBRANCH  16  32
BRANCH  28  34
ATOM     34  O   UNL     1      40.384  -0.988  15.226  0.00  0.00    +0.000 OA
ATOM     35  H   UNL     1      40.631  -1.050  16.167  0.00  0.00    +0.000 HD
ENDBRANCH  28  34
TORSDOF 3
ENDMDL
MODEL 3
REMARK VINA RESULT:      -9.1      2.122      8.571
REMARK  Name = 14132199_RiccardinD.pdbqt.pdb
REMARK  3 active torsions:
REMARK  status: ('A' for Active; 'I' for Inactive)
REMARK    1  A    between atoms: C_11  and  O_30
REMARK    2  A    between atoms: C_16  and  O_32
REMARK    3  A    between atoms: C_28  and  O_34
REMARK                            x       y       z     vdW  Elec       q    Type
REMARK                         _______ _______ _______ _____ _____    ______ ____
ROOT
ATOM      1  O   UNL     1      42.581  -2.769  13.441  0.00  0.00    +0.000 OA
ATOM      2  C   UNL     1      48.655  -3.600  10.160  0.00  0.00    +0.000 C 
ATOM      3  C   UNL     1      49.921  -3.196   9.619  0.00  0.00    +0.000 A 
ATOM      4  C   UNL     1      50.352  -1.844   9.664  0.00  0.00    +0.000 A 
ATOM      5  C   UNL     1      47.288  -3.871  10.808  0.00  0.00    +0.000 C 
ATOM      6  C   UNL     1      46.338   1.360  11.966  0.00  0.00    +0.000 C 
ATOM      7  C   UNL     1      49.452  -0.778  10.159  0.00  0.00    +0.000 A 
ATOM      8  C   UNL     1      47.483   0.922  11.238  0.00  0.00    +0.000 A 
ATOM      9  C   UNL     1      45.005   1.312  12.716  0.00  0.00    +0.000 C 
ATOM     10  C   UNL     1      46.021  -3.908  11.462  0.00  0.00    +0.000 A 
ATOM     11  C   UNL     1      49.689  -0.042  11.329  0.00  0.00    +0.000 A 
ATOM     12  C   UNL     1      43.842   0.715  13.273  0.00  0.00    +0.000 A 
ATOM     13  C   UNL     1      48.246  -0.543   9.483  0.00  0.00    +0.000 A 
ATOM     14  C   UNL     1      48.709   0.786  11.882  0.00  0.00    +0.000 A 
ATOM     15  C   UNL     1      47.267   0.289  10.017  0.00  0.00    +0.000 A 
ATOM     16  C   UNL     1      51.653  -1.574   9.204  0.00  0.00    +0.000 A 
ATOM     17  C   UNL     1      50.742  -4.195   9.090  0.00  0.00    +0.000 A 
ATOM     18  C   UNL     1      52.461  -2.572   8.659  0.00  0.00    +0.000 A 
ATOM     19  C   UNL     1      52.001  -3.882   8.593  0.00  0.00    +0.000 A 
ATOM     20  C   UNL     1      43.754  -0.665  13.119  0.00  0.00    +0.000 A 
ATOM     21  C   UNL     1      44.860  -3.653  10.730  0.00  0.00    +0.000 A 
ATOM     22  C   UNL     1      45.971  -3.983  12.854  0.00  0.00    +0.000 A 
ATOM     23  C   UNL     1      42.672  -1.395  13.597  0.00  0.00    +0.000 A 
ATOM     24  C   UNL     1      42.828   1.401  13.924  0.00  0.00    +0.000 A 
ATOM     25  C   UNL     1      43.652  -3.351  12.789  0.00  0.00    +0.000 A 
ATOM     26  C   UNL     1      43.664  -3.384  11.393  0.00  0.00    +0.000 A 
ATOM     27  C   UNL     1      44.780  -3.714  13.525  0.00  0.00    +0.000 A 
ATOM     28  C   UNL     1      41.656  -0.706  14.249  0.00  0.00    +0.000 A 
ATOM     29  C   UNL     1      41.731   0.682  14.414  0.00  0.00    +0.000 A 
ENDROOT
BRANCH  11  30
ATOM     30  O   UNL     1      50.902  -0.150  11.957  0.00  0.00    +0.000 OA
ATOM     31  H   UNL     1      51.518   0.482  11.538  0.00  0.00    +0.000 HD
ENDBRANCH  11  30
BRANCH  16  32
ATOM     32  O   UNL     1      52.212  -0.326   9.281  0.00  0.00    +0.000 OA
ATOM     33  H   UNL     1      52.043   0.111   8.425  0.00  0.00    +0.000 HD
ENDBRANCH  16  32
BRANCH  28  34
ATOM     34  O   UNL     1      40.562  -1.355  14.746  0.00  0.00    +0.000 OA
ATOM     35  H   UNL     1      39.957  -1.516  13.999  0.00  0.00    +0.000 HD
ENDBRANCH  28  34
TORSDOF 3
ENDMDL
MODEL 4
REMARK VINA RESULT:      -7.6      2.639      3.470
REMARK  Name = 14132199_RiccardinD.pdbqt.pdb
REMARK  3 active torsions:
REMARK  status: ('A' for Active; 'I' for Inactive)
REMARK    1  A    between atoms: C_11  and  O_30
REMARK    2  A    between atoms: C_16  and  O_32
REMARK    3  A    between atoms: C_28  and  O_34
REMARK                            x       y       z     vdW  Elec       q    Type
REMARK                         _______ _______ _______ _____ _____    ______ ____
ROOT
ATOM      1  O   UNL     1      51.881   0.559   9.440  0.00  0.00    +0.000 OA
ATOM      2  C   UNL     1      45.635   1.128  12.443  0.00  0.00    +0.000 C 
ATOM      3  C   UNL     1      44.396   0.659  12.996  0.00  0.00    +0.000 A 
ATOM      4  C   UNL     1      44.053  -0.717  12.990  0.00  0.00    +0.000 A 
ATOM      5  C   UNL     1      47.008   1.460  11.837  0.00  0.00    +0.000 C 
ATOM      6  C   UNL     1      48.063  -3.672  10.370  0.00  0.00    +0.000 C 
ATOM      7  C   UNL     1      44.906  -1.708  12.297  0.00  0.00    +0.000 A 
ATOM      8  C   UNL     1      46.824  -3.269  10.948  0.00  0.00    +0.000 A 
ATOM      9  C   UNL     1      49.477  -3.583   9.790  0.00  0.00    +0.000 C 
ATOM     10  C   UNL     1      48.305   1.551  11.250  0.00  0.00    +0.000 A 
ATOM     11  C   UNL     1      45.615  -2.723  12.958  0.00  0.00    +0.000 A 
ATOM     12  C   UNL     1      50.680  -2.949   9.378  0.00  0.00    +0.000 A 
ATOM     13  C   UNL     1      45.102  -1.583  10.914  0.00  0.00    +0.000 A 
ATOM     14  C   UNL     1      46.582  -3.485  12.301  0.00  0.00    +0.000 A 
ATOM     15  C   UNL     1      46.055  -2.346  10.245  0.00  0.00    +0.000 A 
ATOM     16  C   UNL     1      42.867  -1.081  13.653  0.00  0.00    +0.000 A 
ATOM     17  C   UNL     1      43.559   1.607  13.590  0.00  0.00    +0.000 A 
ATOM     18  C   UNL     1      42.025  -0.129  14.228  0.00  0.00    +0.000 A 
ATOM     19  C   UNL     1      42.367   1.217  14.188  0.00  0.00    +0.000 A 
ATOM     20  C   UNL     1      50.729  -1.576   9.591  0.00  0.00    +0.000 A 
ATOM     21  C   UNL     1      48.427   1.663   9.864  0.00  0.00    +0.000 A 
ATOM     22  C   UNL     1      49.431   1.310  12.037  0.00  0.00    +0.000 A 
ATOM     23  C   UNL     1      51.831  -0.809   9.231  0.00  0.00    +0.000 A 
ATOM     24  C   UNL     1      51.757  -3.594   8.789  0.00  0.00    +0.000 A 
ATOM     25  C   UNL     1      50.758   1.094  10.044  0.00  0.00    +0.000 A 
ATOM     26  C   UNL     1      49.661   1.446   9.255  0.00  0.00    +0.000 A 
ATOM     27  C   UNL     1      50.669   1.091  11.436  0.00  0.00    +0.000 A 
ATOM     28  C   UNL     1      52.911  -1.457   8.641  0.00  0.00    +0.000 A 
ATOM     29  C   UNL     1      52.878  -2.838   8.420  0.00  0.00    +0.000 A 
ENDROOT
BRANCH  11  30
ATOM     30  O   UNL     1      45.366  -2.960  14.284  0.00  0.00    +0.000 OA
ATOM     31  H   UNL     1      45.086  -3.891  14.379  0.00  0.00    +0.000 HD
ENDBRANCH  11  30
BRANCH  16  32
ATOM     32  O   UNL     1      42.478  -2.388  13.792  0.00  0.00    +0.000 OA
ATOM     33  H   UNL     1      43.238  -2.868  14.172  0.00  0.00    +0.000 HD
ENDBRANCH  16  32
BRANCH  28  34
ATOM     34  O   UNL     1      54.029  -0.771   8.260  0.00  0.00    +0.000 OA
ATOM     35  H   UNL     1      54.124  -0.882   7.297  0.00  0.00    +0.000 HD
ENDBRANCH  28  34
TORSDOF 3
ENDMDL
MODEL 5
REMARK VINA RESULT:      -7.6     34.907     37.432
REMARK  Name = 14132199_RiccardinD.pdbqt.pdb
REMARK  3 active torsions:
REMARK  status: ('A' for Active; 'I' for Inactive)
REMARK    1  A    between atoms: C_11  and  O_30
REMARK    2  A    between atoms: C_16  and  O_32
REMARK    3  A    between atoms: C_28  and  O_34
REMARK                            x       y       z     vdW  Elec       q    Type
REMARK                         _______ _______ _______ _____ _____    ______ ____
ROOT
ATOM      1  O   UNL     1      34.669  25.733  34.654  0.00  0.00    +0.000 OA
ATOM      2  C   UNL     1      33.702  19.250  36.977  0.00  0.00    +0.000 C 
ATOM      3  C   UNL     1      32.973  18.039  37.222  0.00  0.00    +0.000 A 
ATOM      4  C   UNL     1      31.604  17.911  36.874  0.00  0.00    +0.000 A 
ATOM      5  C   UNL     1      34.342  20.602  36.621  0.00  0.00    +0.000 C 
ATOM      6  C   UNL     1      29.714  22.768  34.751  0.00  0.00    +0.000 C 
ATOM      7  C   UNL     1      30.841  19.070  36.358  0.00  0.00    +0.000 A 
ATOM      8  C   UNL     1      29.781  21.474  35.343  0.00  0.00    +0.000 A 
ATOM      9  C   UNL     1      30.154  24.147  34.251  0.00  0.00    +0.000 C 
ATOM     10  C   UNL     1      34.740  21.907  36.203  0.00  0.00    +0.000 A 
ATOM     11  C   UNL     1      30.326  19.145  35.056  0.00  0.00    +0.000 A 
ATOM     12  C   UNL     1      31.053  25.220  34.007  0.00  0.00    +0.000 A 
ATOM     13  C   UNL     1      30.697  20.202  37.174  0.00  0.00    +0.000 A 
ATOM     14  C   UNL     1      29.819  20.339  34.539  0.00  0.00    +0.000 A 
ATOM     15  C   UNL     1      30.182  21.394  36.674  0.00  0.00    +0.000 A 
ATOM     16  C   UNL     1      31.014  16.647  37.058  0.00  0.00    +0.000 A 
ATOM     17  C   UNL     1      33.679  16.966  37.773  0.00  0.00    +0.000 A 
ATOM     18  C   UNL     1      31.718  15.585  37.626  0.00  0.00    +0.000 A 
ATOM     19  C   UNL     1      33.048  15.748  37.992  0.00  0.00    +0.000 A 
ATOM     20  C   UNL     1      32.365  24.996  34.409  0.00  0.00    +0.000 A 
ATOM     21  C   UNL     1      34.557  22.992  37.061  0.00  0.00    +0.000 A 
ATOM     22  C   UNL     1      35.102  22.117  34.871  0.00  0.00    +0.000 A 
ATOM     23  C   UNL     1      33.361  25.953  34.251  0.00  0.00    +0.000 A 
ATOM     24  C   UNL     1      30.707  26.430  33.424  0.00  0.00    +0.000 A 
ATOM     25  C   UNL     1      34.902  24.489  35.210  0.00  0.00    +0.000 A 
ATOM     26  C   UNL     1      34.650  24.292  36.569  0.00  0.00    +0.000 A 
ATOM     27  C   UNL     1      35.196  23.414  34.371  0.00  0.00    +0.000 A 
ATOM     28  C   UNL     1      33.014  27.166  33.667  0.00  0.00    +0.000 A 
ATOM     29  C   UNL     1      31.698  27.406  33.255  0.00  0.00    +0.000 A 
ENDROOT
BRANCH  11  30
ATOM     30  O   UNL     1      30.336  18.027  34.264  0.00  0.00    +0.000 OA
ATOM     31  H   UNL     1      31.252  17.689  34.228  0.00  0.00    +0.000 HD
ENDBRANCH  11  30
BRANCH  16  32
ATOM     32  O   UNL     1      29.727  16.377  36.676  0.00  0.00    +0.000 OA
ATOM     33  H   UNL     1      29.220  17.204  36.791  0.00  0.00    +0.000 HD
ENDBRANCH  16  32
BRANCH  28  34
ATOM     34  O   UNL     1      33.938  28.154  33.478  0.00  0.00    +0.000 OA
ATOM     35  H   UNL     1      33.876  28.434  32.546  0.00  0.00    +0.000 HD
ENDBRANCH  28  34
TORSDOF 3
ENDMDL
MODEL 6
REMARK VINA RESULT:      -7.6      3.765      9.704
REMARK  Name = 14132199_RiccardinD.pdbqt.pdb
REMARK  3 active torsions:
REMARK  status: ('A' for Active; 'I' for Inactive)
REMARK    1  A    between atoms: C_11  and  O_30
REMARK    2  A    between atoms: C_16  and  O_32
REMARK    3  A    between atoms: C_28  and  O_34
REMARK                            x       y       z     vdW  Elec       q    Type
REMARK                         _______ _______ _______ _____ _____    ______ ____
ROOT
ATOM      1  O   UNL     1      45.286  -3.969  11.138  0.00  0.00    +0.000 OA
ATOM      2  C   UNL     1      50.813  -7.798   9.361  0.00  0.00    +0.000 C 
ATOM      3  C   UNL     1      51.525  -8.833   8.669  0.00  0.00    +0.000 A 
ATOM      4  C   UNL     1      50.862  -9.737   7.799  0.00  0.00    +0.000 A 
ATOM      5  C   UNL     1      49.911  -6.731  10.003  0.00  0.00    +0.000 C 
ATOM      6  C   UNL     1      45.333  -8.689   7.810  0.00  0.00    +0.000 C 
ATOM      7  C   UNL     1      49.387  -9.725   7.673  0.00  0.00    +0.000 A 
ATOM      8  C   UNL     1      46.600  -9.323   7.656  0.00  0.00    +0.000 A 
ATOM      9  C   UNL     1      44.271  -7.689   8.275  0.00  0.00    +0.000 C 
ATOM     10  C   UNL     1      48.912  -5.830  10.478  0.00  0.00    +0.000 A 
ATOM     11  C   UNL     1      48.710  -9.369   6.497  0.00  0.00    +0.000 A 
ATOM     12  C   UNL     1      43.757  -6.559   8.967  0.00  0.00    +0.000 A 
ATOM     13  C   UNL     1      48.609  -9.991   8.809  0.00  0.00    +0.000 A 
ATOM     14  C   UNL     1      47.332  -9.147   6.487  0.00  0.00    +0.000 A 
ATOM     15  C   UNL     1      47.232  -9.785   8.808  0.00  0.00    +0.000 A 
ATOM     16  C   UNL     1      51.668 -10.644   7.088  0.00  0.00    +0.000 A 
ATOM     17  C   UNL     1      52.910  -8.887   8.842  0.00  0.00    +0.000 A 
ATOM     18  C   UNL     1      53.048 -10.706   7.279  0.00  0.00    +0.000 A 
ATOM     19  C   UNL     1      53.668  -9.833   8.164  0.00  0.00    +0.000 A 
ATOM     20  C   UNL     1      44.697  -5.825   9.682  0.00  0.00    +0.000 A 
ATOM     21  C   UNL     1      48.166  -6.162  11.610  0.00  0.00    +0.000 A 
ATOM     22  C   UNL     1      48.545  -4.738   9.691  0.00  0.00    +0.000 A 
ATOM     23  C   UNL     1      44.351  -4.700  10.422  0.00  0.00    +0.000 A 
ATOM     24  C   UNL     1      42.426  -6.169   8.977  0.00  0.00    +0.000 A 
ATOM     25  C   UNL     1      46.583  -4.441  11.047  0.00  0.00    +0.000 A 
ATOM     26  C   UNL     1      47.000  -5.459  11.906  0.00  0.00    +0.000 A 
ATOM     27  C   UNL     1      47.381  -4.029   9.980  0.00  0.00    +0.000 A 
ATOM     28  C   UNL     1      43.017  -4.311  10.431  0.00  0.00    +0.000 A 
ATOM     29  C   UNL     1      42.059  -5.037   9.715  0.00  0.00    +0.000 A 
ENDROOT
BRANCH  11  30
ATOM     30  O   UNL     1      49.419  -9.218   5.334  0.00  0.00    +0.000 OA
ATOM     31  H   UNL     1      49.553  -8.262   5.182  0.00  0.00    +0.000 HD
ENDBRANCH  11  30
BRANCH  16  32
ATOM     32  O   UNL     1      51.153 -11.504   6.153  0.00  0.00    +0.000 OA
ATOM     33  H   UNL     1      50.894 -10.961   5.385  0.00  0.00    +0.000 HD
ENDBRANCH  16  32
BRANCH  28  34
ATOM     34  O   UNL     1      42.601  -3.216  11.134  0.00  0.00    +0.000 OA
ATOM     35  H   UNL     1      41.747  -3.442  11.545  0.00  0.00    +0.000 HD
ENDBRANCH  28  34
TORSDOF 3
ENDMDL
MODEL 7
REMARK VINA RESULT:      -7.2      3.255      7.086
REMARK  Name = 14132199_RiccardinD.pdbqt.pdb
REMARK  3 active torsions:
REMARK  status: ('A' for Active; 'I' for Inactive)
REMARK    1  A    between atoms: C_11  and  O_30
REMARK    2  A    between atoms: C_16  and  O_32
REMARK    3  A    between atoms: C_28  and  O_34
REMARK                            x       y       z     vdW  Elec       q    Type
REMARK                         _______ _______ _______ _____ _____    ______ ____
ROOT
ATOM      1  O   UNL     1      46.242   2.573  14.151  0.00  0.00    +0.000 OA
ATOM      2  C   UNL     1      43.618  -3.106  11.113  0.00  0.00    +0.000 C 
ATOM      3  C   UNL     1      43.656  -4.397  10.488  0.00  0.00    +0.000 A 
ATOM      4  C   UNL     1      44.883  -5.060  10.226  0.00  0.00    +0.000 A 
ATOM      5  C   UNL     1      43.750  -1.743  11.811  0.00  0.00    +0.000 C 
ATOM      6  C   UNL     1      49.191  -1.782  11.764  0.00  0.00    +0.000 C 
ATOM      7  C   UNL     1      46.177  -4.385  10.471  0.00  0.00    +0.000 A 
ATOM      8  C   UNL     1      48.402  -2.797  11.149  0.00  0.00    +0.000 A 
ATOM      9  C   UNL     1      49.553  -0.496  12.512  0.00  0.00    +0.000 C 
ATOM     10  C   UNL     1      44.089  -0.520  12.462  0.00  0.00    +0.000 A 
ATOM     11  C   UNL     1      47.098  -4.800  11.444  0.00  0.00    +0.000 A 
ATOM     12  C   UNL     1      49.314   0.727  13.195  0.00  0.00    +0.000 A 
ATOM     13  C   UNL     1      46.472  -3.210   9.765  0.00  0.00    +0.000 A 
ATOM     14  C   UNL     1      48.191  -4.008  11.801  0.00  0.00    +0.000 A 
ATOM     15  C   UNL     1      47.565  -2.418  10.103  0.00  0.00    +0.000 A 
ATOM     16  C   UNL     1      44.803  -6.366   9.710  0.00  0.00    +0.000 A 
ATOM     17  C   UNL     1      42.433  -5.004  10.194  0.00  0.00    +0.000 A 
ATOM     18  C   UNL     1      43.580  -6.960   9.400  0.00  0.00    +0.000 A 
ATOM     19  C   UNL     1      42.394  -6.275   9.634  0.00  0.00    +0.000 A 
ATOM     20  C   UNL     1      47.974   1.063  13.357  0.00  0.00    +0.000 A 
ATOM     21  C   UNL     1      44.382   0.611  11.698  0.00  0.00    +0.000 A 
ATOM     22  C   UNL     1      44.334  -0.521  13.836  0.00  0.00    +0.000 A 
ATOM     23  C   UNL     1      47.576   2.234  13.992  0.00  0.00    +0.000 A 
ATOM     24  C   UNL     1      50.300   1.574  13.679  0.00  0.00    +0.000 A 
ATOM     25  C   UNL     1      45.346   1.651  13.641  0.00  0.00    +0.000 A 
ATOM     26  C   UNL     1      45.003   1.709  12.289  0.00  0.00    +0.000 A 
ATOM     27  C   UNL     1      44.955   0.573  14.435  0.00  0.00    +0.000 A 
ATOM     28  C   UNL     1      48.566   3.082  14.476  0.00  0.00    +0.000 A 
ATOM     29  C   UNL     1      49.918   2.757  14.324  0.00  0.00    +0.000 A 
ENDROOT
BRANCH  11  30
ATOM     30  O   UNL     1      46.913  -6.003  12.074  0.00  0.00    +0.000 OA
ATOM     31  H   UNL     1      46.678  -5.826  13.005  0.00  0.00    +0.000 HD
ENDBRANCH  11  30
BRANCH  16  32
ATOM     32  O   UNL     1      45.915  -7.139   9.500  0.00  0.00    +0.000 OA
ATOM     33  H   UNL     1      46.642  -6.529   9.269  0.00  0.00    +0.000 HD
ENDBRANCH  16  32
BRANCH  28  34
ATOM     34  O   UNL     1      48.252   4.250  15.112  0.00  0.00    +0.000 OA
ATOM     35  H   UNL     1      47.495   4.643  14.640  0.00  0.00    +0.000 HD
ENDBRANCH  28  34
TORSDOF 3
ENDMDL
MODEL 8
REMARK VINA RESULT:      -7.1      4.028      6.899
REMARK  Name = 14132199_RiccardinD.pdbqt.pdb
REMARK  3 active torsions:
REMARK  status: ('A' for Active; 'I' for Inactive)
REMARK    1  A    between atoms: C_11  and  O_30
REMARK    2  A    between atoms: C_16  and  O_32
REMARK    3  A    between atoms: C_28  and  O_34
REMARK                            x       y       z     vdW  Elec       q    Type
REMARK                         _______ _______ _______ _____ _____    ______ ____
ROOT
ATOM      1  O   UNL     1      50.640  -2.330  17.046  0.00  0.00    +0.000 OA
ATOM      2  C   UNL     1      45.944  -5.234  12.818  0.00  0.00    +0.000 C 
ATOM      3  C   UNL     1      44.832  -5.259  11.912  0.00  0.00    +0.000 A 
ATOM      4  C   UNL     1      44.116  -4.080  11.580  0.00  0.00    +0.000 A 
ATOM      5  C   UNL     1      47.125  -5.030  13.781  0.00  0.00    +0.000 C 
ATOM      6  C   UNL     1      46.179   0.284  14.473  0.00  0.00    +0.000 C 
ATOM      7  C   UNL     1      44.411  -2.798  12.257  0.00  0.00    +0.000 A 
ATOM      8  C   UNL     1      45.328  -0.562  13.704  0.00  0.00    +0.000 A 
ATOM      9  C   UNL     1      47.334   0.727  15.375  0.00  0.00    +0.000 C 
ATOM     10  C   UNL     1      48.171  -4.626  14.663  0.00  0.00    +0.000 A 
ATOM     11  C   UNL     1      44.949  -1.679  11.604  0.00  0.00    +0.000 A 
ATOM     12  C   UNL     1      48.502   0.572  16.170  0.00  0.00    +0.000 A 
ATOM     13  C   UNL     1      44.235  -2.710  13.646  0.00  0.00    +0.000 A 
ATOM     14  C   UNL     1      45.426  -0.577  12.317  0.00  0.00    +0.000 A 
ATOM     15  C   UNL     1      44.695  -1.611  14.366  0.00  0.00    +0.000 A 
ATOM     16  C   UNL     1      43.113  -4.198  10.600  0.00  0.00    +0.000 A 
ATOM     17  C   UNL     1      44.511  -6.485  11.324  0.00  0.00    +0.000 A 
ATOM     18  C   UNL     1      42.783  -5.428  10.031  0.00  0.00    +0.000 A 
ATOM     19  C   UNL     1      43.477  -6.574  10.401  0.00  0.00    +0.000 A 
ATOM     20  C   UNL     1      49.007  -0.722  16.233  0.00  0.00    +0.000 A 
ATOM     21  C   UNL     1      47.924  -4.550  16.035  0.00  0.00    +0.000 A 
ATOM     22  C   UNL     1      49.353  -4.107  14.132  0.00  0.00    +0.000 A 
ATOM     23  C   UNL     1      50.136  -1.040  16.979  0.00  0.00    +0.000 A 
ATOM     24  C   UNL     1      49.133   1.593  16.865  0.00  0.00    +0.000 A 
ATOM     25  C   UNL     1      49.940  -3.264  16.306  0.00  0.00    +0.000 A 
ATOM     26  C   UNL     1      48.817  -3.876  16.866  0.00  0.00    +0.000 A 
ATOM     27  C   UNL     1      50.250  -3.432  14.956  0.00  0.00    +0.000 A 
ATOM     28  C   UNL     1      50.768  -0.016  17.676  0.00  0.00    +0.000 A 
ATOM     29  C   UNL     1      50.273   1.292  17.621  0.00  0.00    +0.000 A 
ENDROOT
BRANCH  11  30
ATOM     30  O   UNL     1      45.027  -1.673  10.236  0.00  0.00    +0.000 OA
ATOM     31  H   UNL     1      44.275  -2.189   9.887  0.00  0.00    +0.000 HD
ENDBRANCH  11  30
BRANCH  16  32
ATOM     32  O   UNL     1      42.416  -3.115  10.133  0.00  0.00    +0.000 OA
ATOM     33  H   UNL     1      41.803  -2.847  10.843  0.00  0.00    +0.000 HD
ENDBRANCH  16  32
BRANCH  28  34
ATOM     34  O   UNL     1      51.882  -0.252  18.430  0.00  0.00    +0.000 OA
ATOM     35  H   UNL     1      52.644   0.114  17.944  0.00  0.00    +0.000 HD
ENDBRANCH  28  34
TORSDOF 3
ENDMDL
MODEL 9
REMARK VINA RESULT:      -7.1     15.977     20.170
REMARK  Name = 14132199_RiccardinD.pdbqt.pdb
REMARK  3 active torsions:
REMARK  status: ('A' for Active; 'I' for Inactive)
REMARK    1  A    between atoms: C_11  and  O_30
REMARK    2  A    between atoms: C_16  and  O_32
REMARK    3  A    between atoms: C_28  and  O_34
REMARK                            x       y       z     vdW  Elec       q    Type
REMARK                         _______ _______ _______ _____ _____    ______ ____
ROOT
ATOM      1  O   UNL     1      46.332  11.957  14.822  0.00  0.00    +0.000 OA
ATOM      2  C   UNL     1      46.280  18.856  15.701  0.00  0.00    +0.000 C 
ATOM      3  C   UNL     1      45.790  20.113  16.187  0.00  0.00    +0.000 A 
ATOM      4  C   UNL     1      44.589  20.203  16.937  0.00  0.00    +0.000 A 
ATOM      5  C   UNL     1      46.680  17.432  15.279  0.00  0.00    +0.000 C 
ATOM      6  C   UNL     1      42.221  15.116  17.366  0.00  0.00    +0.000 C 
ATOM      7  C   UNL     1      43.729  19.015  17.137  0.00  0.00    +0.000 A 
ATOM      8  C   UNL     1      42.430  16.526  17.355  0.00  0.00    +0.000 A 
ATOM      9  C   UNL     1      42.456  13.624  17.117  0.00  0.00    +0.000 C 
ATOM     10  C   UNL     1      46.874  16.047  15.001  0.00  0.00    +0.000 A 
ATOM     11  C   UNL     1      43.507  18.418  18.387  0.00  0.00    +0.000 A 
ATOM     12  C   UNL     1      43.138  12.473  16.636  0.00  0.00    +0.000 A 
ATOM     13  C   UNL     1      43.173  18.386  16.014  0.00  0.00    +0.000 A 
ATOM     14  C   UNL     1      42.884  17.173  18.500  0.00  0.00    +0.000 A 
ATOM     15  C   UNL     1      42.539  17.151  16.116  0.00  0.00    +0.000 A 
ATOM     16  C   UNL     1      44.255  21.467  17.457  0.00  0.00    +0.000 A 
ATOM     17  C   UNL     1      46.569  21.245  15.938  0.00  0.00    +0.000 A 
ATOM     18  C   UNL     1      45.026  22.598  17.189  0.00  0.00    +0.000 A 
ATOM     19  C   UNL     1      46.179  22.488  16.421  0.00  0.00    +0.000 A 
ATOM     20  C   UNL     1      44.348  12.726  15.998  0.00  0.00    +0.000 A 
ATOM     21  C   UNL     1      46.282  15.481  13.871  0.00  0.00    +0.000 A 
ATOM     22  C   UNL     1      47.465  15.231  15.967  0.00  0.00    +0.000 A 
ATOM     23  C   UNL     1      45.128  11.708  15.461  0.00  0.00    +0.000 A 
ATOM     24  C   UNL     1      42.680  11.170  16.754  0.00  0.00    +0.000 A 
ATOM     25  C   UNL     1      46.697  13.290  14.773  0.00  0.00    +0.000 A 
ATOM     26  C   UNL     1      46.202  14.096  13.746  0.00  0.00    +0.000 A 
ATOM     27  C   UNL     1      47.388  13.845  15.851  0.00  0.00    +0.000 A 
ATOM     28  C   UNL     1      44.667  10.402  15.580  0.00  0.00    +0.000 A 
ATOM     29  C   UNL     1      43.453  10.131  16.221  0.00  0.00    +0.000 A 
ENDROOT
BRANCH  11  30
ATOM     30  O   UNL     1      43.927  19.059  19.522  0.00  0.00    +0.000 OA
ATOM     31  H   UNL     1      44.896  18.959  19.587  0.00  0.00    +0.000 HD
ENDBRANCH  11  30
BRANCH  16  32
ATOM     32  O   UNL     1      43.170  21.661  18.270  0.00  0.00    +0.000 OA
ATOM     33  H   UNL     1      43.287  22.533  18.693  0.00  0.00    +0.000 HD
ENDBRANCH  16  32
BRANCH  28  34
ATOM     34  O   UNL     1      45.379   9.349  15.078  0.00  0.00    +0.000 OA
ATOM     35  H   UNL     1      45.383   9.438  14.107  0.00  0.00    +0.000 HD
ENDBRANCH  28  34
TORSDOF 3
ENDMDL
