MODEL 1
REMARK VINA RESULT:      -5.3      0.000      0.000
REMARK  Name = 146026348_FluorouracilMononitrate.pdbqt.pdb
REMARK  2 active torsions:
REMARK  status: ('A' for Active; 'I' for Inactive)
REMARK    1  A    between atoms: N_4  and  O_10
REMARK    2  A    between atoms: O_10  and  N_13
REMARK                            x       y       z     vdW  Elec       q    Type
REMARK                         _______ _______ _______ _____ _____    ______ ____
ROOT
ATOM      1  F   UNL     1      47.134  -6.802  11.102  0.00  0.00    +0.000 F 
ATOM      2  O   UNL     1      44.690  -5.940  12.147  0.00  0.00    +0.000 OA
ATOM      3  O   UNL     1      42.737  -7.265   8.109  0.00  0.00    +0.000 OA
ATOM      4  N   UNL     1      43.697  -6.439  10.087  0.00  0.00    +0.000 N 
ATOM      5  N   UNL     1      46.009  -6.750  10.372  0.00  0.00    +0.000 N 
ATOM      6  C   UNL     1      44.794  -6.326  10.986  0.00  0.00    +0.000 A 
ATOM      7  C   UNL     1      43.699  -7.023   8.819  0.00  0.00    +0.000 A 
ATOM      8  C   UNL     1      45.043  -7.382   8.431  0.00  0.00    +0.000 A 
ATOM      9  C   UNL     1      46.007  -7.251   9.122  0.00  0.00    +0.000 A 
ENDROOT
BRANCH   4  10
ATOM     10  O   UNL     1      42.435  -6.132  10.627  0.00  0.00    +0.000 OA
BRANCH  10  13
ATOM     11  O   UNL     1      42.597  -3.904  10.362  0.00  0.00    +0.000 OA
ATOM     12  O   UNL     1      40.785  -5.012   9.661  0.00  0.00    +0.000 OA
ATOM     13  N   UNL     1      41.893  -4.901  10.180  0.00  0.00    +0.000 N 
ENDBRANCH  10  13
ENDBRANCH   4  10
TORSDOF 2
ENDMDL
MODEL 2
REMARK VINA RESULT:      -4.6      1.922      2.495
REMARK  Name = 146026348_FluorouracilMononitrate.pdbqt.pdb
REMARK  2 active torsions:
REMARK  status: ('A' for Active; 'I' for Inactive)
REMARK    1  A    between atoms: N_4  and  O_10
REMARK    2  A    between atoms: O_10  and  N_13
REMARK                            x       y       z     vdW  Elec       q    Type
REMARK                         _______ _______ _______ _____ _____    ______ ____
ROOT
ATOM      1  F   UNL     1      46.144  -6.078   9.329  0.00  0.00    +0.000 F 
ATOM      2  O   UNL     1      45.000  -4.570  11.385  0.00  0.00    +0.000 OA
ATOM      3  O   UNL     1      40.862  -6.312  10.076  0.00  0.00    +0.000 OA
ATOM      4  N   UNL     1      42.893  -5.289  10.665  0.00  0.00    +0.000 N 
ATOM      5  N   UNL     1      44.817  -5.967   9.498  0.00  0.00    +0.000 N 
ATOM      6  C   UNL     1      44.311  -5.202  10.589  0.00  0.00    +0.000 A 
ATOM      7  C   UNL     1      42.055  -6.115   9.913  0.00  0.00    +0.000 A 
ATOM      8  C   UNL     1      42.808  -6.795   8.885  0.00  0.00    +0.000 A 
ATOM      9  C   UNL     1      43.989  -6.708   8.738  0.00  0.00    +0.000 A 
ENDROOT
BRANCH   4  10
ATOM     10  O   UNL     1      42.302  -4.643  11.766  0.00  0.00    +0.000 OA
BRANCH  10  13
ATOM     11  O   UNL     1      42.718  -6.566  12.854  0.00  0.00    +0.000 OA
ATOM     12  O   UNL     1      41.761  -4.840  13.905  0.00  0.00    +0.000 OA
ATOM     13  N   UNL     1      42.256  -5.426  12.945  0.00  0.00    +0.000 N 
ENDBRANCH  10  13
ENDBRANCH   4  10
TORSDOF 2
ENDMDL
MODEL 3
REMARK VINA RESULT:      -4.3      4.446      5.297
REMARK  Name = 146026348_FluorouracilMononitrate.pdbqt.pdb
REMARK  2 active torsions:
REMARK  status: ('A' for Active; 'I' for Inactive)
REMARK    1  A    between atoms: N_4  and  O_10
REMARK    2  A    between atoms: O_10  and  N_13
REMARK                            x       y       z     vdW  Elec       q    Type
REMARK                         _______ _______ _______ _____ _____    ______ ____
ROOT
ATOM      1  F   UNL     1      47.064  -3.300  13.561  0.00  0.00    +0.000 F 
ATOM      2  O   UNL     1      45.253  -1.515  14.720  0.00  0.00    +0.000 OA
ATOM      3  O   UNL     1      41.884  -4.591  13.686  0.00  0.00    +0.000 OA
ATOM      4  N   UNL     1      43.517  -2.949  14.079  0.00  0.00    +0.000 N 
ATOM      5  N   UNL     1      45.735  -3.478  13.510  0.00  0.00    +0.000 N 
ATOM      6  C   UNL     1      44.877  -2.537  14.151  0.00  0.00    +0.000 A 
ATOM      7  C   UNL     1      43.026  -4.167  13.607  0.00  0.00    +0.000 A 
ATOM      8  C   UNL     1      44.091  -4.947  13.022  0.00  0.00    +0.000 A 
ATOM      9  C   UNL     1      45.238  -4.620  12.999  0.00  0.00    +0.000 A 
ENDROOT
BRANCH   4  10
ATOM     10  O   UNL     1      42.598  -2.133  14.765  0.00  0.00    +0.000 OA
BRANCH  10  13
ATOM     11  O   UNL     1      42.191  -1.164  12.776  0.00  0.00    +0.000 OA
ATOM     12  O   UNL     1      41.630  -0.141  14.684  0.00  0.00    +0.000 OA
ATOM     13  N   UNL     1      42.098  -1.049  14.001  0.00  0.00    +0.000 N 
ENDBRANCH  10  13
ENDBRANCH   4  10
TORSDOF 2
ENDMDL
MODEL 4
REMARK VINA RESULT:      -4.2     27.282     27.967
REMARK  Name = 146026348_FluorouracilMononitrate.pdbqt.pdb
REMARK  2 active torsions:
REMARK  status: ('A' for Active; 'I' for Inactive)
REMARK    1  A    between atoms: N_4  and  O_10
REMARK    2  A    between atoms: O_10  and  N_13
REMARK                            x       y       z     vdW  Elec       q    Type
REMARK                         _______ _______ _______ _____ _____    ______ ____
ROOT
ATOM      1  F   UNL     1      41.153   9.907  32.509  0.00  0.00    +0.000 F 
ATOM      2  O   UNL     1      39.545   7.625  32.372  0.00  0.00    +0.000 OA
ATOM      3  O   UNL     1      35.935  10.477  31.530  0.00  0.00    +0.000 OA
ATOM      4  N   UNL     1      37.685   9.020  32.108  0.00  0.00    +0.000 N 
ATOM      5  N   UNL     1      39.816   9.964  32.409  0.00  0.00    +0.000 N 
ATOM      6  C   UNL     1      39.067   8.755  32.314  0.00  0.00    +0.000 A 
ATOM      7  C   UNL     1      37.089  10.258  31.862  0.00  0.00    +0.000 A 
ATOM      8  C   UNL     1      38.057  11.321  32.000  0.00  0.00    +0.000 A 
ATOM      9  C   UNL     1      39.216  11.157  32.234  0.00  0.00    +0.000 A 
ENDROOT
BRANCH   4  10
ATOM     10  O   UNL     1      36.872   7.890  31.909  0.00  0.00    +0.000 OA
BRANCH  10  13
ATOM     11  O   UNL     1      36.585   7.650  34.126  0.00  0.00    +0.000 OA
ATOM     12  O   UNL     1      34.912   7.228  32.703  0.00  0.00    +0.000 OA
ATOM     13  N   UNL     1      36.054   7.557  33.017  0.00  0.00    +0.000 N 
ENDBRANCH  10  13
ENDBRANCH   4  10
TORSDOF 2
ENDMDL
MODEL 5
REMARK VINA RESULT:      -4.2     28.439     29.652
REMARK  Name = 146026348_FluorouracilMononitrate.pdbqt.pdb
REMARK  2 active torsions:
REMARK  status: ('A' for Active; 'I' for Inactive)
REMARK    1  A    between atoms: N_4  and  O_10
REMARK    2  A    between atoms: O_10  and  N_13
REMARK                            x       y       z     vdW  Elec       q    Type
REMARK                         _______ _______ _______ _____ _____    ______ ____
ROOT
ATOM      1  F   UNL     1      33.923  10.214  36.442  0.00  0.00    +0.000 F 
ATOM      2  O   UNL     1      35.105  10.928  34.012  0.00  0.00    +0.000 OA
ATOM      3  O   UNL     1      34.801   6.425  32.784  0.00  0.00    +0.000 OA
ATOM      4  N   UNL     1      35.121   8.663  33.419  0.00  0.00    +0.000 N 
ATOM      5  N   UNL     1      34.308   9.311  35.527  0.00  0.00    +0.000 N 
ATOM      6  C   UNL     1      34.877   9.755  34.298  0.00  0.00    +0.000 A 
ATOM      7  C   UNL     1      34.737   7.333  33.596  0.00  0.00    +0.000 A 
ATOM      8  C   UNL     1      34.171   7.142  34.911  0.00  0.00    +0.000 A 
ATOM      9  C   UNL     1      34.002   8.012  35.711  0.00  0.00    +0.000 A 
ENDROOT
BRANCH   4  10
ATOM     10  O   UNL     1      35.598   9.007  32.141  0.00  0.00    +0.000 OA
BRANCH  10  13
ATOM     11  O   UNL     1      37.658   8.118  32.294  0.00  0.00    +0.000 OA
ATOM     12  O   UNL     1      37.377  10.270  31.754  0.00  0.00    +0.000 OA
ATOM     13  N   UNL     1      37.006   9.139  32.060  0.00  0.00    +0.000 N 
ENDBRANCH  10  13
ENDBRANCH   4  10
TORSDOF 2
ENDMDL
MODEL 6
REMARK VINA RESULT:      -4.0     14.158     15.268
REMARK  Name = 146026348_FluorouracilMononitrate.pdbqt.pdb
REMARK  2 active torsions:
REMARK  status: ('A' for Active; 'I' for Inactive)
REMARK    1  A    between atoms: N_4  and  O_10
REMARK    2  A    between atoms: O_10  and  N_13
REMARK                            x       y       z     vdW  Elec       q    Type
REMARK                         _______ _______ _______ _____ _____    ______ ____
ROOT
ATOM      1  F   UNL     1      46.899  -0.532  24.229  0.00  0.00    +0.000 F 
ATOM      2  O   UNL     1      44.909  -0.837  26.167  0.00  0.00    +0.000 OA
ATOM      3  O   UNL     1      42.270  -2.804  22.844  0.00  0.00    +0.000 OA
ATOM      4  N   UNL     1      43.496  -1.679  24.503  0.00  0.00    +0.000 N 
ATOM      5  N   UNL     1      45.661  -0.960  23.939  0.00  0.00    +0.000 N 
ATOM      6  C   UNL     1      44.710  -1.118  24.989  0.00  0.00    +0.000 A 
ATOM      7  C   UNL     1      43.248  -2.181  23.224  0.00  0.00    +0.000 A 
ATOM      8  C   UNL     1      44.368  -1.913  22.352  0.00  0.00    +0.000 A 
ATOM      9  C   UNL     1      45.384  -1.389  22.693  0.00  0.00    +0.000 A 
ENDROOT
BRANCH   4  10
ATOM     10  O   UNL     1      42.523  -1.961  25.479  0.00  0.00    +0.000 OA
BRANCH  10  13
ATOM     11  O   UNL     1      41.792  -0.057  26.427  0.00  0.00    +0.000 OA
ATOM     12  O   UNL     1      40.550  -1.130  24.907  0.00  0.00    +0.000 OA
ATOM     13  N   UNL     1      41.534  -0.957  25.623  0.00  0.00    +0.000 N 
ENDBRANCH  10  13
ENDBRANCH   4  10
TORSDOF 2
ENDMDL
MODEL 7
REMARK VINA RESULT:      -4.0      6.693      7.952
REMARK  Name = 146026348_FluorouracilMononitrate.pdbqt.pdb
REMARK  2 active torsions:
REMARK  status: ('A' for Active; 'I' for Inactive)
REMARK    1  A    between atoms: N_4  and  O_10
REMARK    2  A    between atoms: O_10  and  N_13
REMARK                            x       y       z     vdW  Elec       q    Type
REMARK                         _______ _______ _______ _____ _____    ______ ____
ROOT
ATOM      1  F   UNL     1      44.799   2.710  14.671  0.00  0.00    +0.000 F 
ATOM      2  O   UNL     1      45.275   0.759  12.727  0.00  0.00    +0.000 OA
ATOM      3  O   UNL     1      40.920  -0.765  13.494  0.00  0.00    +0.000 OA
ATOM      4  N   UNL     1      43.163  -0.137  13.191  0.00  0.00    +0.000 N 
ATOM      5  N   UNL     1      43.937   1.714  14.414  0.00  0.00    +0.000 N 
ATOM      6  C   UNL     1      44.238   0.774  13.386  0.00  0.00    +0.000 A 
ATOM      7  C   UNL     1      41.895  -0.086  13.771  0.00  0.00    +0.000 A 
ATOM      8  C   UNL     1      41.838   0.960  14.766  0.00  0.00    +0.000 A 
ATOM      9  C   UNL     1      42.731   1.711  15.014  0.00  0.00    +0.000 A 
ENDROOT
BRANCH   4  10
ATOM     10  O   UNL     1      43.324  -1.050  12.132  0.00  0.00    +0.000 OA
BRANCH  10  13
ATOM     11  O   UNL     1      44.873  -2.482  12.911  0.00  0.00    +0.000 OA
ATOM     12  O   UNL     1      42.793  -3.175  12.466  0.00  0.00    +0.000 OA
ATOM     13  N   UNL     1      43.704  -2.353  12.538  0.00  0.00    +0.000 N 
ENDBRANCH  10  13
ENDBRANCH   4  10
TORSDOF 2
ENDMDL
MODEL 8
REMARK VINA RESULT:      -3.8     44.699     46.046
REMARK  Name = 146026348_FluorouracilMononitrate.pdbqt.pdb
REMARK  2 active torsions:
REMARK  status: ('A' for Active; 'I' for Inactive)
REMARK    1  A    between atoms: N_4  and  O_10
REMARK    2  A    between atoms: O_10  and  N_13
REMARK                            x       y       z     vdW  Elec       q    Type
REMARK                         _______ _______ _______ _____ _____    ______ ____
ROOT
ATOM      1  F   UNL     1      11.479  27.334  19.379  0.00  0.00    +0.000 F 
ATOM      2  O   UNL     1      13.496  29.230  18.995  0.00  0.00    +0.000 OA
ATOM      3  O   UNL     1      16.575  25.823  19.882  0.00  0.00    +0.000 OA
ATOM      4  N   UNL     1      15.065  27.598  19.589  0.00  0.00    +0.000 N 
ATOM      5  N   UNL     1      12.773  27.078  19.623  0.00  0.00    +0.000 N 
ATOM      6  C   UNL     1      13.747  28.089  19.374  0.00  0.00    +0.000 A 
ATOM      7  C   UNL     1      15.445  26.281  19.852  0.00  0.00    +0.000 A 
ATOM      8  C   UNL     1      14.280  25.449  20.047  0.00  0.00    +0.000 A 
ATOM      9  C   UNL     1      13.152  25.825  19.940  0.00  0.00    +0.000 A 
ENDROOT
BRANCH   4  10
ATOM     10  O   UNL     1      16.105  28.494  19.281  0.00  0.00    +0.000 OA
BRANCH  10  13
ATOM     11  O   UNL     1      16.373  30.670  19.778  0.00  0.00    +0.000 OA
ATOM     12  O   UNL     1      16.323  29.125  21.394  0.00  0.00    +0.000 OA
ATOM     13  N   UNL     1      16.287  29.527  20.233  0.00  0.00    +0.000 N 
ENDBRANCH  10  13
ENDBRANCH   4  10
TORSDOF 2
ENDMDL
MODEL 9
REMARK VINA RESULT:      -3.7     44.665     45.592
REMARK  Name = 146026348_FluorouracilMononitrate.pdbqt.pdb
REMARK  2 active torsions:
REMARK  status: ('A' for Active; 'I' for Inactive)
REMARK    1  A    between atoms: N_4  and  O_10
REMARK    2  A    between atoms: O_10  and  N_13
REMARK                            x       y       z     vdW  Elec       q    Type
REMARK                         _______ _______ _______ _____ _____    ______ ____
ROOT
ATOM      1  F   UNL     1      12.917  28.237  23.081  0.00  0.00    +0.000 F 
ATOM      2  O   UNL     1      12.624  25.611  22.172  0.00  0.00    +0.000 OA
ATOM      3  O   UNL     1      16.294  26.392  19.380  0.00  0.00    +0.000 OA
ATOM      4  N   UNL     1      14.352  26.007  20.644  0.00  0.00    +0.000 N 
ATOM      5  N   UNL     1      13.627  27.739  22.057  0.00  0.00    +0.000 N 
ATOM      6  C   UNL     1      13.441  26.379  21.671  0.00  0.00    +0.000 A 
ATOM      7  C   UNL     1      15.416  26.759  20.144  0.00  0.00    +0.000 A 
ATOM      8  C   UNL     1      15.398  28.091  20.701  0.00  0.00    +0.000 A 
ATOM      9  C   UNL     1      14.617  28.475  21.518  0.00  0.00    +0.000 A 
ENDROOT
BRANCH   4  10
ATOM     10  O   UNL     1      14.312  24.655  20.257  0.00  0.00    +0.000 OA
BRANCH  10  13
ATOM     11  O   UNL     1      13.032  25.197  18.489  0.00  0.00    +0.000 OA
ATOM     12  O   UNL     1      12.768  23.238  19.535  0.00  0.00    +0.000 OA
ATOM     13  N   UNL     1      13.275  24.341  19.343  0.00  0.00    +0.000 N 
ENDBRANCH  10  13
ENDBRANCH   4  10
TORSDOF 2
ENDMDL
