MODEL 1
REMARK VINA RESULT:      -9.2      0.000      0.000
REMARK  Name = 179268_Nortopsentin.pdbqt.pdb
REMARK  2 active torsions:
REMARK  status: ('A' for Active; 'I' for Inactive)
REMARK    1  A    between atoms: C_3  and  C_9
REMARK    2  A    between atoms: C_4  and  C_20
REMARK                            x       y       z     vdW  Elec       q    Type
REMARK                         _______ _______ _______ _____ _____    ______ ____
ROOT
ATOM      1  N   UNL     1      43.652  -3.667  10.736  0.00  0.00    +0.000 N 
ATOM      2  N   UNL     1      42.802  -4.060  12.741  0.00  0.00    +0.000 NA
ATOM      3  C   UNL     1      43.402  -5.011  10.777  0.00  0.00    +0.000 A 
ATOM      4  C   UNL     1      43.277  -3.128  11.941  0.00  0.00    +0.000 A 
ATOM      5  C   UNL     1      42.875  -5.233  12.030  0.00  0.00    +0.000 A 
ATOM      6  H   UNL     1      44.044  -3.150   9.964  0.00  0.00    +0.000 HD
ENDROOT
BRANCH   3   9
ATOM      7 BR   UNL     1      48.186  -9.290   7.394  0.00  0.00    +0.000 Br
ATOM      8  N   UNL     1      43.241  -7.345   7.990  0.00  0.00    +0.000 N 
ATOM      9  C   UNL     1      43.647  -5.997   9.706  0.00  0.00    +0.000 A 
ATOM     10  C   UNL     1      44.865  -6.648   9.358  0.00  0.00    +0.000 A 
ATOM     11  C   UNL     1      44.579  -7.488   8.277  0.00  0.00    +0.000 A 
ATOM     12  C   UNL     1      42.671  -6.447   8.848  0.00  0.00    +0.000 A 
ATOM     13  C   UNL     1      46.185  -6.613   9.848  0.00  0.00    +0.000 A 
ATOM     14  C   UNL     1      45.544  -8.294   7.661  0.00  0.00    +0.000 A 
ATOM     15  C   UNL     1      47.163  -7.408   9.249  0.00  0.00    +0.000 A 
ATOM     16  C   UNL     1      46.838  -8.229   8.177  0.00  0.00    +0.000 A 
ATOM     17  H   UNL     1      42.749  -7.832   7.253  0.00  0.00    +0.000 HD
ENDBRANCH   3   9
BRANCH   4  20
ATOM     18 BR   UNL     1      47.444   2.800  11.861  0.00  0.00    +0.000 Br
ATOM     19  N   UNL     1      42.859   0.323  13.058  0.00  0.00    +0.000 N 
ATOM     20  C   UNL     1      43.392  -1.689  12.289  0.00  0.00    +0.000 A 
ATOM     21  C   UNL     1      44.502  -0.825  12.072  0.00  0.00    +0.000 A 
ATOM     22  C   UNL     1      44.139   0.431  12.565  0.00  0.00    +0.000 A 
ATOM     23  C   UNL     1      42.398  -0.956  12.897  0.00  0.00    +0.000 A 
ATOM     24  C   UNL     1      45.781  -0.984  11.504  0.00  0.00    +0.000 A 
ATOM     25  C   UNL     1      44.989   1.540  12.520  0.00  0.00    +0.000 A 
ATOM     26  C   UNL     1      46.647   0.111  11.451  0.00  0.00    +0.000 A 
ATOM     27  C   UNL     1      46.248   1.343  11.951  0.00  0.00    +0.000 A 
ATOM     28  H   UNL     1      42.337   1.079  13.479  0.00  0.00    +0.000 HD
ENDBRANCH   4  20
TORSDOF 2
ENDMDL
MODEL 2
REMARK VINA RESULT:      -9.0      0.478      7.975
REMARK  Name = 179268_Nortopsentin.pdbqt.pdb
REMARK  2 active torsions:
REMARK  status: ('A' for Active; 'I' for Inactive)
REMARK    1  A    between atoms: C_3  and  C_9
REMARK    2  A    between atoms: C_4  and  C_20
REMARK                            x       y       z     vdW  Elec       q    Type
REMARK                         _______ _______ _______ _____ _____    ______ ____
ROOT
ATOM      1  N   UNL     1      43.636  -3.617  10.855  0.00  0.00    +0.000 N 
ATOM      2  N   UNL     1      43.311  -5.325  12.222  0.00  0.00    +0.000 NA
ATOM      3  C   UNL     1      43.436  -3.070  12.093  0.00  0.00    +0.000 A 
ATOM      4  C   UNL     1      43.553  -4.981  10.974  0.00  0.00    +0.000 A 
ATOM      5  C   UNL     1      43.236  -4.148  12.926  0.00  0.00    +0.000 A 
ATOM      6  H   UNL     1      43.815  -3.117   9.997  0.00  0.00    +0.000 HD
ENDROOT
BRANCH   3   9
ATOM      7 BR   UNL     1      47.031   3.232  12.038  0.00  0.00    +0.000 Br
ATOM      8  N   UNL     1      42.720   0.307  13.243  0.00  0.00    +0.000 N 
ATOM      9  C   UNL     1      43.436  -1.636  12.445  0.00  0.00    +0.000 A 
ATOM     10  C   UNL     1      44.456  -0.667  12.228  0.00  0.00    +0.000 A 
ATOM     11  C   UNL     1      43.978   0.544  12.740  0.00  0.00    +0.000 A 
ATOM     12  C   UNL     1      42.385  -1.006  13.069  0.00  0.00    +0.000 A 
ATOM     13  C   UNL     1      45.741  -0.689  11.650  0.00  0.00    +0.000 A 
ATOM     14  C   UNL     1      44.717   1.732  12.702  0.00  0.00    +0.000 A 
ATOM     15  C   UNL     1      46.494   0.484  11.602  0.00  0.00    +0.000 A 
ATOM     16  C   UNL     1      45.983   1.667  12.121  0.00  0.00    +0.000 A 
ATOM     17  H   UNL     1      42.128   1.002  13.678  0.00  0.00    +0.000 HD
ENDBRANCH   3   9
BRANCH   4  20
ATOM     18 BR   UNL     1      48.072  -9.303   7.314  0.00  0.00    +0.000 Br
ATOM     19  N   UNL     1      43.220  -7.193   8.089  0.00  0.00    +0.000 N 
ATOM     20  C   UNL     1      43.716  -5.934   9.848  0.00  0.00    +0.000 A 
ATOM     21  C   UNL     1      44.897  -6.617   9.447  0.00  0.00    +0.000 A 
ATOM     22  C   UNL     1      44.557  -7.400   8.341  0.00  0.00    +0.000 A 
ATOM     23  C   UNL     1      42.702  -6.307   8.994  0.00  0.00    +0.000 A 
ATOM     24  C   UNL     1      46.226  -6.651   9.915  0.00  0.00    +0.000 A 
ATOM     25  C   UNL     1      45.476  -8.216   7.676  0.00  0.00    +0.000 A 
ATOM     26  C   UNL     1      47.160  -7.459   9.264  0.00  0.00    +0.000 A 
ATOM     27  C   UNL     1      46.783  -8.222   8.168  0.00  0.00    +0.000 A 
ATOM     28  H   UNL     1      42.700  -7.632   7.342  0.00  0.00    +0.000 HD
ENDBRANCH   4  20
TORSDOF 2
ENDMDL
MODEL 3
REMARK VINA RESULT:      -8.5     33.480     35.598
REMARK  Name = 179268_Nortopsentin.pdbqt.pdb
REMARK  2 active torsions:
REMARK  status: ('A' for Active; 'I' for Inactive)
REMARK    1  A    between atoms: C_3  and  C_9
REMARK    2  A    between atoms: C_4  and  C_20
REMARK                            x       y       z     vdW  Elec       q    Type
REMARK                         _______ _______ _______ _____ _____    ______ ____
ROOT
ATOM      1  N   UNL     1      22.516  20.902   3.056  0.00  0.00    +0.000 N 
ATOM      2  N   UNL     1      22.170  19.373   1.495  0.00  0.00    +0.000 NA
ATOM      3  C   UNL     1      23.346  21.232   2.021  0.00  0.00    +0.000 A 
ATOM      4  C   UNL     1      21.822  19.773   2.700  0.00  0.00    +0.000 A 
ATOM      5  C   UNL     1      23.116  20.271   1.063  0.00  0.00    +0.000 A 
ATOM      6  H   UNL     1      22.419  21.392   3.932  0.00  0.00    +0.000 HD
ENDROOT
BRANCH   3   9
ATOM      7 BR   UNL     1      25.235  27.734   4.631  0.00  0.00    +0.000 Br
ATOM      8  N   UNL     1      25.991  23.624   1.294  0.00  0.00    +0.000 N 
ATOM      9  C   UNL     1      24.281  22.374   1.957  0.00  0.00    +0.000 A 
ATOM     10  C   UNL     1      24.283  23.567   2.734  0.00  0.00    +0.000 A 
ATOM     11  C   UNL     1      25.368  24.333   2.295  0.00  0.00    +0.000 A 
ATOM     12  C   UNL     1      25.341  22.440   1.084  0.00  0.00    +0.000 A 
ATOM     13  C   UNL     1      23.475  24.080   3.768  0.00  0.00    +0.000 A 
ATOM     14  C   UNL     1      25.687  25.584   2.836  0.00  0.00    +0.000 A 
ATOM     15  C   UNL     1      23.775  25.325   4.322  0.00  0.00    +0.000 A 
ATOM     16  C   UNL     1      24.862  26.055   3.858  0.00  0.00    +0.000 A 
ATOM     17  H   UNL     1      26.810  23.932   0.787  0.00  0.00    +0.000 HD
ENDBRANCH   3   9
BRANCH   4  20
ATOM     18 BR   UNL     1      14.792  18.836   4.188  0.00  0.00    +0.000 Br
ATOM     19  N   UNL     1      19.952  17.811   5.147  0.00  0.00    +0.000 N 
ATOM     20  C   UNL     1      20.817  19.099   3.560  0.00  0.00    +0.000 A 
ATOM     21  C   UNL     1      19.400  19.213   3.498  0.00  0.00    +0.000 A 
ATOM     22  C   UNL     1      18.883  18.394   4.505  0.00  0.00    +0.000 A 
ATOM     23  C   UNL     1      21.126  18.232   4.583  0.00  0.00    +0.000 A 
ATOM     24  C   UNL     1      18.501  19.930   2.684  0.00  0.00    +0.000 A 
ATOM     25  C   UNL     1      17.513  18.254   4.744  0.00  0.00    +0.000 A 
ATOM     26  C   UNL     1      17.128  19.806   2.906  0.00  0.00    +0.000 A 
ATOM     27  C   UNL     1      16.654  18.981   3.918  0.00  0.00    +0.000 A 
ATOM     28  H   UNL     1      19.878  17.167   5.922  0.00  0.00    +0.000 HD
ENDBRANCH   4  20
TORSDOF 2
ENDMDL
MODEL 4
REMARK VINA RESULT:      -8.1      1.975      7.653
REMARK  Name = 179268_Nortopsentin.pdbqt.pdb
REMARK  2 active torsions:
REMARK  status: ('A' for Active; 'I' for Inactive)
REMARK    1  A    between atoms: C_3  and  C_9
REMARK    2  A    between atoms: C_4  and  C_20
REMARK                            x       y       z     vdW  Elec       q    Type
REMARK                         _______ _______ _______ _____ _____    ______ ____
ROOT
ATOM      1  N   UNL     1      44.709  -2.517  10.616  0.00  0.00    +0.000 N 
ATOM      2  N   UNL     1      43.054  -2.910  12.029  0.00  0.00    +0.000 NA
ATOM      3  C   UNL     1      44.750  -1.499  11.529  0.00  0.00    +0.000 A 
ATOM      4  C   UNL     1      43.671  -3.348  10.952  0.00  0.00    +0.000 A 
ATOM      5  C   UNL     1      43.714  -1.763  12.396  0.00  0.00    +0.000 A 
ATOM      6  H   UNL     1      45.327  -2.646   9.829  0.00  0.00    +0.000 HD
ENDROOT
BRANCH   3   9
ATOM      7 BR   UNL     1      50.245   1.962   8.294  0.00  0.00    +0.000 Br
ATOM      8  N   UNL     1      46.729   1.458  12.290  0.00  0.00    +0.000 N 
ATOM      9  C   UNL     1      45.702  -0.371  11.565  0.00  0.00    +0.000 A 
ATOM     10  C   UNL     1      46.718  -0.033  10.626  0.00  0.00    +0.000 A 
ATOM     11  C   UNL     1      47.346   1.120  11.108  0.00  0.00    +0.000 A 
ATOM     12  C   UNL     1      45.735   0.564  12.573  0.00  0.00    +0.000 A 
ATOM     13  C   UNL     1      47.172  -0.586   9.413  0.00  0.00    +0.000 A 
ATOM     14  C   UNL     1      48.405   1.747  10.441  0.00  0.00    +0.000 A 
ATOM     15  C   UNL     1      48.226   0.023   8.731  0.00  0.00    +0.000 A 
ATOM     16  C   UNL     1      48.824   1.167   9.243  0.00  0.00    +0.000 A 
ATOM     17  H   UNL     1      46.973   2.252  12.867  0.00  0.00    +0.000 HD
ENDBRANCH   3   9
BRANCH   4  20
ATOM     18 BR   UNL     1      45.986  -9.474   7.849  0.00  0.00    +0.000 Br
ATOM     19  N   UNL     1      42.059  -6.086   9.153  0.00  0.00    +0.000 N 
ATOM     20  C   UNL     1      43.300  -4.574  10.201  0.00  0.00    +0.000 A 
ATOM     21  C   UNL     1      44.160  -5.613   9.747  0.00  0.00    +0.000 A 
ATOM     22  C   UNL     1      43.354  -6.548   9.093  0.00  0.00    +0.000 A 
ATOM     23  C   UNL     1      42.016  -4.892   9.821  0.00  0.00    +0.000 A 
ATOM     24  C   UNL     1      45.545  -5.854   9.827  0.00  0.00    +0.000 A 
ATOM     25  C   UNL     1      43.861  -7.715   8.513  0.00  0.00    +0.000 A 
ATOM     26  C   UNL     1      46.073  -7.013   9.254  0.00  0.00    +0.000 A 
ATOM     27  C   UNL     1      45.238  -7.918   8.612  0.00  0.00    +0.000 A 
ATOM     28  H   UNL     1      41.258  -6.561   8.760  0.00  0.00    +0.000 HD
ENDBRANCH   4  20
TORSDOF 2
ENDMDL
MODEL 5
REMARK VINA RESULT:      -8.1      2.194      8.497
REMARK  Name = 179268_Nortopsentin.pdbqt.pdb
REMARK  2 active torsions:
REMARK  status: ('A' for Active; 'I' for Inactive)
REMARK    1  A    between atoms: C_3  and  C_9
REMARK    2  A    between atoms: C_4  and  C_20
REMARK                            x       y       z     vdW  Elec       q    Type
REMARK                         _______ _______ _______ _____ _____    ______ ____
ROOT
ATOM      1  N   UNL     1      44.851  -5.731  11.332  0.00  0.00    +0.000 N 
ATOM      2  N   UNL     1      43.616  -7.362  10.492  0.00  0.00    +0.000 NA
ATOM      3  C   UNL     1      43.620  -5.600  11.912  0.00  0.00    +0.000 A 
ATOM      4  C   UNL     1      44.809  -6.806  10.481  0.00  0.00    +0.000 A 
ATOM      5  C   UNL     1      42.869  -6.622  11.376  0.00  0.00    +0.000 A 
ATOM      6  H   UNL     1      45.658  -5.147  11.492  0.00  0.00    +0.000 HD
ENDROOT
BRANCH   3   9
ATOM      7 BR   UNL     1      43.400   1.425  13.714  0.00  0.00    +0.000 Br
ATOM      8  N   UNL     1      42.307  -3.710  14.731  0.00  0.00    +0.000 N 
ATOM      9  C   UNL     1      43.200  -4.582  12.895  0.00  0.00    +0.000 A 
ATOM     10  C   UNL     1      43.377  -3.170  12.845  0.00  0.00    +0.000 A 
ATOM     11  C   UNL     1      42.807  -2.649  14.011  0.00  0.00    +0.000 A 
ATOM     12  C   UNL     1      42.540  -4.880  14.064  0.00  0.00    +0.000 A 
ATOM     13  C   UNL     1      43.965  -2.275  11.929  0.00  0.00    +0.000 A 
ATOM     14  C   UNL     1      42.793  -1.281  14.308  0.00  0.00    +0.000 A 
ATOM     15  C   UNL     1      43.962  -0.907  12.205  0.00  0.00    +0.000 A 
ATOM     16  C   UNL     1      43.385  -0.430  13.375  0.00  0.00    +0.000 A 
ATOM     17  H   UNL     1      41.835  -3.637  15.622  0.00  0.00    +0.000 HD
ENDBRANCH   3   9
BRANCH   4  20
ATOM     18 BR   UNL     1      46.946 -10.389   4.556  0.00  0.00    +0.000 Br
ATOM     19  N   UNL     1      48.044  -7.617   8.995  0.00  0.00    +0.000 N 
ATOM     20  C   UNL     1      45.955  -7.274   9.662  0.00  0.00    +0.000 A 
ATOM     21  C   UNL     1      45.915  -8.021   8.452  0.00  0.00    +0.000 A 
ATOM     22  C   UNL     1      47.240  -8.223   8.056  0.00  0.00    +0.000 A 
ATOM     23  C   UNL     1      47.276  -7.041   9.971  0.00  0.00    +0.000 A 
ATOM     24  C   UNL     1      44.884  -8.548   7.650  0.00  0.00    +0.000 A 
ATOM     25  C   UNL     1      47.590  -8.924   6.899  0.00  0.00    +0.000 A 
ATOM     26  C   UNL     1      45.211  -9.254   6.490  0.00  0.00    +0.000 A 
ATOM     27  C   UNL     1      46.541  -9.432   6.131  0.00  0.00    +0.000 A 
ATOM     28  H   UNL     1      49.054  -7.603   8.966  0.00  0.00    +0.000 HD
ENDBRANCH   4  20
TORSDOF 2
ENDMDL
MODEL 6
REMARK VINA RESULT:      -8.0     33.383     35.505
REMARK  Name = 179268_Nortopsentin.pdbqt.pdb
REMARK  2 active torsions:
REMARK  status: ('A' for Active; 'I' for Inactive)
REMARK    1  A    between atoms: C_3  and  C_9
REMARK    2  A    between atoms: C_4  and  C_20
REMARK                            x       y       z     vdW  Elec       q    Type
REMARK                         _______ _______ _______ _____ _____    ______ ____
ROOT
ATOM      1  N   UNL     1      22.769  21.787   3.438  0.00  0.00    +0.000 N 
ATOM      2  N   UNL     1      23.928  21.509   1.574  0.00  0.00    +0.000 NA
ATOM      3  C   UNL     1      22.368  20.584   2.926  0.00  0.00    +0.000 A 
ATOM      4  C   UNL     1      23.712  22.315   2.592  0.00  0.00    +0.000 A 
ATOM      5  C   UNL     1      23.099  20.431   1.770  0.00  0.00    +0.000 A 
ATOM      6  H   UNL     1      22.439  22.222   4.285  0.00  0.00    +0.000 HD
ENDROOT
BRANCH   3   9
ATOM      7 BR   UNL     1      15.355  19.141   4.104  0.00  0.00    +0.000 Br
ATOM      8  N   UNL     1      20.534  17.887   4.541  0.00  0.00    +0.000 N 
ATOM      9  C   UNL     1      21.368  19.660   3.499  0.00  0.00    +0.000 A 
ATOM     10  C   UNL     1      19.948  19.778   3.506  0.00  0.00    +0.000 A 
ATOM     11  C   UNL     1      19.453  18.650   4.167  0.00  0.00    +0.000 A 
ATOM     12  C   UNL     1      21.694  18.489   4.141  0.00  0.00    +0.000 A 
ATOM     13  C   UNL     1      19.029  20.728   3.019  0.00  0.00    +0.000 A 
ATOM     14  C   UNL     1      18.086  18.423   4.367  0.00  0.00    +0.000 A 
ATOM     15  C   UNL     1      17.662  20.521   3.207  0.00  0.00    +0.000 A 
ATOM     16  C   UNL     1      17.209  19.387   3.869  0.00  0.00    +0.000 A 
ATOM     17  H   UNL     1      20.482  17.008   5.038  0.00  0.00    +0.000 HD
ENDBRANCH   3   9
BRANCH   4  20
ATOM     18 BR   UNL     1      23.791  28.582   6.230  0.00  0.00    +0.000 Br
ATOM     19  N   UNL     1      25.859  25.268   2.578  0.00  0.00    +0.000 N 
ATOM     20  C   UNL     1      24.393  23.617   2.803  0.00  0.00    +0.000 A 
ATOM     21  C   UNL     1      24.034  24.653   3.709  0.00  0.00    +0.000 A 
ATOM     22  C   UNL     1      24.970  25.676   3.546  0.00  0.00    +0.000 A 
ATOM     23  C   UNL     1      25.518  24.023   2.121  0.00  0.00    +0.000 A 
ATOM     24  C   UNL     1      23.004  24.825   4.655  0.00  0.00    +0.000 A 
ATOM     25  C   UNL     1      24.933  26.866   4.280  0.00  0.00    +0.000 A 
ATOM     26  C   UNL     1      22.947  26.006   5.398  0.00  0.00    +0.000 A 
ATOM     27  C   UNL     1      23.898  27.000   5.207  0.00  0.00    +0.000 A 
ATOM     28  H   UNL     1      26.648  25.810   2.253  0.00  0.00    +0.000 HD
ENDBRANCH   4  20
TORSDOF 2
ENDMDL
MODEL 7
REMARK VINA RESULT:      -7.9      1.756      2.170
REMARK  Name = 179268_Nortopsentin.pdbqt.pdb
REMARK  2 active torsions:
REMARK  status: ('A' for Active; 'I' for Inactive)
REMARK    1  A    between atoms: C_3  and  C_9
REMARK    2  A    between atoms: C_4  and  C_20
REMARK                            x       y       z     vdW  Elec       q    Type
REMARK                         _______ _______ _______ _____ _____    ______ ____
ROOT
ATOM      1  N   UNL     1      44.792  -4.268  11.155  0.00  0.00    +0.000 N 
ATOM      2  N   UNL     1      43.159  -4.013  12.625  0.00  0.00    +0.000 NA
ATOM      3  C   UNL     1      43.822  -5.160  10.791  0.00  0.00    +0.000 A 
ATOM      4  C   UNL     1      44.355  -3.594  12.267  0.00  0.00    +0.000 A 
ATOM      5  C   UNL     1      42.818  -4.986  11.717  0.00  0.00    +0.000 A 
ATOM      6  H   UNL     1      45.678  -4.120  10.696  0.00  0.00    +0.000 HD
ENDROOT
BRANCH   3   9
ATOM      7 BR   UNL     1      47.754  -9.748   6.774  0.00  0.00    +0.000 Br
ATOM      8  N   UNL     1      43.148  -7.283   7.913  0.00  0.00    +0.000 N 
ATOM      9  C   UNL     1      43.856  -6.100   9.653  0.00  0.00    +0.000 A 
ATOM     10  C   UNL     1      44.953  -6.866   9.163  0.00  0.00    +0.000 A 
ATOM     11  C   UNL     1      44.477  -7.598   8.070  0.00  0.00    +0.000 A 
ATOM     12  C   UNL     1      42.764  -6.380   8.864  0.00  0.00    +0.000 A 
ATOM     13  C   UNL     1      46.303  -7.014   9.533  0.00  0.00    +0.000 A 
ATOM     14  C   UNL     1      45.283  -8.471   7.329  0.00  0.00    +0.000 A 
ATOM     15  C   UNL     1      47.124  -7.879   8.809  0.00  0.00    +0.000 A 
ATOM     16  C   UNL     1      46.614  -8.589   7.729  0.00  0.00    +0.000 A 
ATOM     17  H   UNL     1      42.540  -7.663   7.200  0.00  0.00    +0.000 HD
ENDBRANCH   3   9
BRANCH   4  20
ATOM     18 BR   UNL     1      44.285   3.076  15.098  0.00  0.00    +0.000 Br
ATOM     19  N   UNL     1      46.818  -1.492  13.954  0.00  0.00    +0.000 N 
ATOM     20  C   UNL     1      45.127  -2.536  12.966  0.00  0.00    +0.000 A 
ATOM     21  C   UNL     1      44.675  -1.250  13.371  0.00  0.00    +0.000 A 
ATOM     22  C   UNL     1      45.757  -0.616  13.988  0.00  0.00    +0.000 A 
ATOM     23  C   UNL     1      46.448  -2.657  13.337  0.00  0.00    +0.000 A 
ATOM     24  C   UNL     1      43.452  -0.557  13.277  0.00  0.00    +0.000 A 
ATOM     25  C   UNL     1      45.681   0.675  14.517  0.00  0.00    +0.000 A 
ATOM     26  C   UNL     1      43.355   0.735  13.798  0.00  0.00    +0.000 A 
ATOM     27  C   UNL     1      44.454   1.329  14.404  0.00  0.00    +0.000 A 
ATOM     28  H   UNL     1      47.737  -1.301  14.330  0.00  0.00    +0.000 HD
ENDBRANCH   4  20
TORSDOF 2
ENDMDL
MODEL 8
REMARK VINA RESULT:      -7.8      2.350      8.234
REMARK  Name = 179268_Nortopsentin.pdbqt.pdb
REMARK  2 active torsions:
REMARK  status: ('A' for Active; 'I' for Inactive)
REMARK    1  A    between atoms: C_3  and  C_9
REMARK    2  A    between atoms: C_4  and  C_20
REMARK                            x       y       z     vdW  Elec       q    Type
REMARK                         _______ _______ _______ _____ _____    ______ ____
ROOT
ATOM      1  N   UNL     1      44.773  -6.857   9.709  0.00  0.00    +0.000 N 
ATOM      2  N   UNL     1      43.322  -7.353   8.115  0.00  0.00    +0.000 NA
ATOM      3  C   UNL     1      43.575  -6.342  10.123  0.00  0.00    +0.000 A 
ATOM      4  C   UNL     1      44.579  -7.459   8.492  0.00  0.00    +0.000 A 
ATOM      5  C   UNL     1      42.689  -6.661   9.119  0.00  0.00    +0.000 A 
ATOM      6  H   UNL     1      45.652  -6.809  10.202  0.00  0.00    +0.000 HD
ENDROOT
BRANCH   3   9
ATOM      7 BR   UNL     1      44.235  -0.137  13.825  0.00  0.00    +0.000 Br
ATOM      8  N   UNL     1      42.569  -5.202  13.429  0.00  0.00    +0.000 N 
ATOM      9  C   UNL     1      43.305  -5.606  11.374  0.00  0.00    +0.000 A 
ATOM     10  C   UNL     1      43.647  -4.265  11.710  0.00  0.00    +0.000 A 
ATOM     11  C   UNL     1      43.172  -4.040  13.006  0.00  0.00    +0.000 A 
ATOM     12  C   UNL     1      42.645  -6.152  12.450  0.00  0.00    +0.000 A 
ATOM     13  C   UNL     1      44.312  -3.215  11.048  0.00  0.00    +0.000 A 
ATOM     14  C   UNL     1      43.328  -2.820  13.674  0.00  0.00    +0.000 A 
ATOM     15  C   UNL     1      44.478  -1.990  11.695  0.00  0.00    +0.000 A 
ATOM     16  C   UNL     1      43.992  -1.806  12.983  0.00  0.00    +0.000 A 
ATOM     17  H   UNL     1      42.133  -5.336  14.331  0.00  0.00    +0.000 HD
ENDBRANCH   3   9
BRANCH   4  20
ATOM     18 BR   UNL     1      51.542  -9.448   8.222  0.00  0.00    +0.000 Br
ATOM     19  N   UNL     1      46.651  -9.241   6.071  0.00  0.00    +0.000 N 
ATOM     20  C   UNL     1      45.645  -8.138   7.713  0.00  0.00    +0.000 A 
ATOM     21  C   UNL     1      47.009  -8.318   8.073  0.00  0.00    +0.000 A 
ATOM     22  C   UNL     1      47.617  -9.012   7.024  0.00  0.00    +0.000 A 
ATOM     23  C   UNL     1      45.454  -8.716   6.478  0.00  0.00    +0.000 A 
ATOM     24  C   UNL     1      47.792  -7.960   9.188  0.00  0.00    +0.000 A 
ATOM     25  C   UNL     1      48.968  -9.369   7.030  0.00  0.00    +0.000 A 
ATOM     26  C   UNL     1      49.145  -8.305   9.214  0.00  0.00    +0.000 A 
ATOM     27  C   UNL     1      49.711  -8.996   8.152  0.00  0.00    +0.000 A 
ATOM     28  H   UNL     1      46.806  -9.727   5.198  0.00  0.00    +0.000 HD
ENDBRANCH   4  20
TORSDOF 2
ENDMDL
MODEL 9
REMARK VINA RESULT:      -7.7     23.122     26.631
REMARK  Name = 179268_Nortopsentin.pdbqt.pdb
REMARK  2 active torsions:
REMARK  status: ('A' for Active; 'I' for Inactive)
REMARK    1  A    between atoms: C_3  and  C_9
REMARK    2  A    between atoms: C_4  and  C_20
REMARK                            x       y       z     vdW  Elec       q    Type
REMARK                         _______ _______ _______ _____ _____    ______ ____
ROOT
ATOM      1  N   UNL     1      27.549  -1.758  28.436  0.00  0.00    +0.000 N 
ATOM      2  N   UNL     1      29.198  -2.840  29.436  0.00  0.00    +0.000 NA
ATOM      3  C   UNL     1      27.420  -1.481  29.769  0.00  0.00    +0.000 A 
ATOM      4  C   UNL     1      28.634  -2.582  28.275  0.00  0.00    +0.000 A 
ATOM      5  C   UNL     1      28.454  -2.163  30.371  0.00  0.00    +0.000 A 
ATOM      6  H   UNL     1      26.957  -1.423  27.691  0.00  0.00    +0.000 HD
ENDROOT
BRANCH   3   9
ATOM      7 BR   UNL     1      22.755  -0.643  35.263  0.00  0.00    +0.000 Br
ATOM      8  N   UNL     1      25.032   1.085  30.744  0.00  0.00    +0.000 N 
ATOM      9  C   UNL     1      26.393  -0.636  30.410  0.00  0.00    +0.000 A 
ATOM     10  C   UNL     1      25.656  -0.881  31.603  0.00  0.00    +0.000 A 
ATOM     11  C   UNL     1      24.809   0.217  31.787  0.00  0.00    +0.000 A 
ATOM     12  C   UNL     1      25.987   0.579  29.908  0.00  0.00    +0.000 A 
ATOM     13  C   UNL     1      25.618  -1.923  32.550  0.00  0.00    +0.000 A 
ATOM     14  C   UNL     1      23.927   0.326  32.868  0.00  0.00    +0.000 A 
ATOM     15  C   UNL     1      24.746  -1.835  33.635  0.00  0.00    +0.000 A 
ATOM     16  C   UNL     1      23.920  -0.727  33.783  0.00  0.00    +0.000 A 
ATOM     17  H   UNL     1      24.560   1.970  30.613  0.00  0.00    +0.000 HD
ENDBRANCH   3   9
BRANCH   4  20
ATOM     18 BR   UNL     1      26.883  -6.101  22.188  0.00  0.00    +0.000 Br
ATOM     19  N   UNL     1      30.452  -3.584  25.272  0.00  0.00    +0.000 N 
ATOM     20  C   UNL     1      29.104  -3.107  26.968  0.00  0.00    +0.000 A 
ATOM     21  C   UNL     1      28.347  -3.804  25.986  0.00  0.00    +0.000 A 
ATOM     22  C   UNL     1      29.219  -4.092  24.933  0.00  0.00    +0.000 A 
ATOM     23  C   UNL     1      30.393  -2.986  26.502  0.00  0.00    +0.000 A 
ATOM     24  C   UNL     1      27.006  -4.222  25.884  0.00  0.00    +0.000 A 
ATOM     25  C   UNL     1      28.821  -4.775  23.780  0.00  0.00    +0.000 A 
ATOM     26  C   UNL     1      26.587  -4.908  24.742  0.00  0.00    +0.000 A 
ATOM     27  C   UNL     1      27.484  -5.174  23.717  0.00  0.00    +0.000 A 
ATOM     28  H   UNL     1      31.280  -3.645  24.695  0.00  0.00    +0.000 HD
ENDBRANCH   4  20
TORSDOF 2
ENDMDL
