MODEL 1
REMARK VINA RESULT:      -5.4      0.000      0.000
REMARK  Name = 21574552_Mertensene.pdbqt.pdb
REMARK  1 active torsions:
REMARK  status: ('A' for Active; 'I' for Inactive)
REMARK    1  A    between atoms: C_4  and  C_13
REMARK                            x       y       z     vdW  Elec       q    Type
REMARK                         _______ _______ _______ _____ _____    ______ ____
ROOT
ATOM      1 BR   UNL     1      45.134  -2.163  12.309  0.00  0.00    +0.000 Br
ATOM      2 CL   UNL     1      43.912  -7.406   9.784  0.00  0.00    +0.000 Cl
ATOM      3 CL   UNL     1      41.679  -4.921   9.119  0.00  0.00    +0.000 Cl
ATOM      4  C   UNL     1      44.863  -5.111  12.723  0.00  0.00    +0.000 C 
ATOM      5  C   UNL     1      44.095  -6.177  12.070  0.00  0.00    +0.000 C 
ATOM      6  C   UNL     1      43.088  -6.469  11.054  0.00  0.00    +0.000 C 
ATOM      7  C   UNL     1      44.333  -3.809  12.071  0.00  0.00    +0.000 C 
ATOM      8  C   UNL     1      42.638  -5.100  10.524  0.00  0.00    +0.000 C 
ATOM      9  C   UNL     1      43.318  -3.979  11.083  0.00  0.00    +0.000 C 
ATOM     10  C   UNL     1      44.556  -5.086  14.237  0.00  0.00    +0.000 C 
ATOM     11  C   UNL     1      41.914  -7.292  11.595  0.00  0.00    +0.000 C 
ENDROOT
BRANCH   4  13
ATOM     12 CL   UNL     1      49.186  -5.585  11.921  0.00  0.00    +0.000 Cl
ATOM     13  C   UNL     1      46.300  -5.268  12.449  0.00  0.00    +0.000 C 
ATOM     14  C   UNL     1      47.473  -5.396  12.229  0.00  0.00    +0.000 C 
ENDBRANCH   4  13
TORSDOF 1
ENDMDL
MODEL 2
REMARK VINA RESULT:      -4.3     36.585     37.872
REMARK  Name = 21574552_Mertensene.pdbqt.pdb
REMARK  1 active torsions:
REMARK  status: ('A' for Active; 'I' for Inactive)
REMARK    1  A    between atoms: C_4  and  C_13
REMARK                            x       y       z     vdW  Elec       q    Type
REMARK                         _______ _______ _______ _____ _____    ______ ____
ROOT
ATOM      1 BR   UNL     1      23.979  19.338  33.447  0.00  0.00    +0.000 Br
ATOM      2 CL   UNL     1      19.635  15.846  31.375  0.00  0.00    +0.000 Cl
ATOM      3 CL   UNL     1      21.221  14.689  34.159  0.00  0.00    +0.000 Cl
ATOM      4  C   UNL     1      22.808  17.999  31.046  0.00  0.00    +0.000 C 
ATOM      5  C   UNL     1      21.995  16.797  30.829  0.00  0.00    +0.000 C 
ATOM      6  C   UNL     1      21.399  15.629  31.474  0.00  0.00    +0.000 C 
ATOM      7  C   UNL     1      23.186  17.935  32.547  0.00  0.00    +0.000 C 
ATOM      8  C   UNL     1      21.879  15.681  32.931  0.00  0.00    +0.000 C 
ATOM      9  C   UNL     1      22.680  16.812  33.267  0.00  0.00    +0.000 C 
ATOM     10  C   UNL     1      24.094  17.930  30.192  0.00  0.00    +0.000 C 
ATOM     11  C   UNL     1      21.775  14.312  30.789  0.00  0.00    +0.000 C 
ENDROOT
BRANCH   4  13
ATOM     12 CL   UNL     1      20.423  21.630  30.218  0.00  0.00    +0.000 Cl
ATOM     13  C   UNL     1      22.020  19.211  30.771  0.00  0.00    +0.000 C 
ATOM     14  C   UNL     1      21.375  20.198  30.546  0.00  0.00    +0.000 C 
ENDBRANCH   4  13
TORSDOF 1
ENDMDL
MODEL 3
REMARK VINA RESULT:      -4.3     35.958     37.173
REMARK  Name = 21574552_Mertensene.pdbqt.pdb
REMARK  1 active torsions:
REMARK  status: ('A' for Active; 'I' for Inactive)
REMARK    1  A    between atoms: C_4  and  C_13
REMARK                            x       y       z     vdW  Elec       q    Type
REMARK                         _______ _______ _______ _____ _____    ______ ____
ROOT
ATOM      1 BR   UNL     1      14.117   9.637  29.445  0.00  0.00    +0.000 Br
ATOM      2 CL   UNL     1      15.066   3.860  28.402  0.00  0.00    +0.000 Cl
ATOM      3 CL   UNL     1      15.258   5.879  25.665  0.00  0.00    +0.000 Cl
ATOM      4  C   UNL     1      13.136   6.847  29.874  0.00  0.00    +0.000 C 
ATOM      5  C   UNL     1      13.261   5.585  29.136  0.00  0.00    +0.000 C 
ATOM      6  C   UNL     1      13.759   4.966  27.911  0.00  0.00    +0.000 C 
ATOM      7  C   UNL     1      13.753   7.904  28.924  0.00  0.00    +0.000 C 
ATOM      8  C   UNL     1      14.307   6.124  27.065  0.00  0.00    +0.000 C 
ATOM      9  C   UNL     1      14.243   7.409  27.680  0.00  0.00    +0.000 C 
ATOM     10  C   UNL     1      11.645   7.179  30.108  0.00  0.00    +0.000 C 
ATOM     11  C   UNL     1      12.686   4.165  27.166  0.00  0.00    +0.000 C 
ENDROOT
BRANCH   4  13
ATOM     12 CL   UNL     1      15.444   6.672  33.643  0.00  0.00    +0.000 Cl
ATOM     13  C   UNL     1      13.897   6.787  31.131  0.00  0.00    +0.000 C 
ATOM     14  C   UNL     1      14.522   6.739  32.155  0.00  0.00    +0.000 C 
ENDBRANCH   4  13
TORSDOF 1
ENDMDL
MODEL 4
REMARK VINA RESULT:      -4.2     36.636     37.704
REMARK  Name = 21574552_Mertensene.pdbqt.pdb
REMARK  1 active torsions:
REMARK  status: ('A' for Active; 'I' for Inactive)
REMARK    1  A    between atoms: C_4  and  C_13
REMARK                            x       y       z     vdW  Elec       q    Type
REMARK                         _______ _______ _______ _____ _____    ______ ____
ROOT
ATOM      1 BR   UNL     1      21.739  20.472  33.062  0.00  0.00    +0.000 Br
ATOM      2 CL   UNL     1      21.358  15.638  29.621  0.00  0.00    +0.000 Cl
ATOM      3 CL   UNL     1      18.721  16.136  31.718  0.00  0.00    +0.000 Cl
ATOM      4  C   UNL     1      23.133  18.026  32.062  0.00  0.00    +0.000 C 
ATOM      5  C   UNL     1      22.692  16.712  31.580  0.00  0.00    +0.000 C 
ATOM      6  C   UNL     1      21.536  15.843  31.381  0.00  0.00    +0.000 C 
ATOM      7  C   UNL     1      21.836  18.692  32.587  0.00  0.00    +0.000 C 
ATOM      8  C   UNL     1      20.344  16.612  31.968  0.00  0.00    +0.000 C 
ATOM      9  C   UNL     1      20.648  17.912  32.469  0.00  0.00    +0.000 C 
ATOM     10  C   UNL     1      24.129  17.855  33.232  0.00  0.00    +0.000 C 
ATOM     11  C   UNL     1      21.706  14.463  32.025  0.00  0.00    +0.000 C 
ENDROOT
BRANCH   4  13
ATOM     12 CL   UNL     1      24.831  20.388  28.731  0.00  0.00    +0.000 Cl
ATOM     13  C   UNL     1      23.701  18.817  30.959  0.00  0.00    +0.000 C 
ATOM     14  C   UNL     1      24.162  19.459  30.057  0.00  0.00    +0.000 C 
ENDBRANCH   4  13
TORSDOF 1
ENDMDL
MODEL 5
REMARK VINA RESULT:      -4.2     35.943     37.499
REMARK  Name = 21574552_Mertensene.pdbqt.pdb
REMARK  1 active torsions:
REMARK  status: ('A' for Active; 'I' for Inactive)
REMARK    1  A    between atoms: C_4  and  C_13
REMARK                            x       y       z     vdW  Elec       q    Type
REMARK                         _______ _______ _______ _____ _____    ______ ____
ROOT
ATOM      1 BR   UNL     1      25.981  23.312   0.395  0.00  0.00    +0.000 Br
ATOM      2 CL   UNL     1      22.331  26.411   3.922  0.00  0.00    +0.000 Cl
ATOM      3 CL   UNL     1      25.638  27.167   4.235  0.00  0.00    +0.000 Cl
ATOM      4  C   UNL     1      23.711  23.187   2.335  0.00  0.00    +0.000 C 
ATOM      5  C   UNL     1      23.262  24.026   3.452  0.00  0.00    +0.000 C 
ATOM      6  C   UNL     1      23.583  25.193   4.270  0.00  0.00    +0.000 C 
ATOM      7  C   UNL     1      25.078  23.795   1.931  0.00  0.00    +0.000 C 
ATOM      8  C   UNL     1      24.960  25.664   3.782  0.00  0.00    +0.000 C 
ATOM      9  C   UNL     1      25.504  24.924   2.691  0.00  0.00    +0.000 C 
ATOM     10  C   UNL     1      23.920  21.733   2.815  0.00  0.00    +0.000 C 
ATOM     11  C   UNL     1      23.575  24.890   5.772  0.00  0.00    +0.000 C 
ENDROOT
BRANCH   4  13
ATOM     12 CL   UNL     1      20.868  23.422  -1.045  0.00  0.00    +0.000 Cl
ATOM     13  C   UNL     1      22.764  23.273   1.212  0.00  0.00    +0.000 C 
ATOM     14  C   UNL     1      21.992  23.338   0.295  0.00  0.00    +0.000 C 
ENDBRANCH   4  13
TORSDOF 1
ENDMDL
MODEL 6
REMARK VINA RESULT:      -4.1     29.881     31.510
REMARK  Name = 21574552_Mertensene.pdbqt.pdb
REMARK  1 active torsions:
REMARK  status: ('A' for Active; 'I' for Inactive)
REMARK    1  A    between atoms: C_4  and  C_13
REMARK                            x       y       z     vdW  Elec       q    Type
REMARK                         _______ _______ _______ _____ _____    ______ ____
ROOT
ATOM      1 BR   UNL     1      14.920   0.689   5.221  0.00  0.00    +0.000 Br
ATOM      2 CL   UNL     1      15.105   6.549   6.210  0.00  0.00    +0.000 Cl
ATOM      3 CL   UNL     1      17.528   5.351   4.136  0.00  0.00    +0.000 Cl
ATOM      4  C   UNL     1      14.864   2.859   7.275  0.00  0.00    +0.000 C 
ATOM      5  C   UNL     1      15.393   4.226   7.345  0.00  0.00    +0.000 C 
ATOM      6  C   UNL     1      16.207   5.224   6.659  0.00  0.00    +0.000 C 
ATOM      7  C   UNL     1      15.463   2.288   5.965  0.00  0.00    +0.000 C 
ATOM      8  C   UNL     1      16.753   4.516   5.411  0.00  0.00    +0.000 C 
ATOM      9  C   UNL     1      16.305   3.174   5.230  0.00  0.00    +0.000 C 
ATOM     10  C   UNL     1      15.374   2.030   8.475  0.00  0.00    +0.000 C 
ATOM     11  C   UNL     1      17.328   5.789   7.538  0.00  0.00    +0.000 C 
ENDROOT
BRANCH   4  13
ATOM     12 CL   UNL     1      10.449   2.919   7.014  0.00  0.00    +0.000 Cl
ATOM     13  C   UNL     1      13.395   2.878   7.195  0.00  0.00    +0.000 C 
ATOM     14  C   UNL     1      12.196   2.893   7.127  0.00  0.00    +0.000 C 
ENDBRANCH   4  13
TORSDOF 1
ENDMDL
MODEL 7
REMARK VINA RESULT:      -4.1     15.612     17.552
REMARK  Name = 21574552_Mertensene.pdbqt.pdb
REMARK  1 active torsions:
REMARK  status: ('A' for Active; 'I' for Inactive)
REMARK    1  A    between atoms: C_4  and  C_13
REMARK                            x       y       z     vdW  Elec       q    Type
REMARK                         _______ _______ _______ _____ _____    ______ ____
ROOT
ATOM      1 BR   UNL     1      24.390  -5.652  15.116  0.00  0.00    +0.000 Br
ATOM      2 CL   UNL     1      30.014  -3.913  14.275  0.00  0.00    +0.000 Cl
ATOM      3 CL   UNL     1      27.710  -2.376  12.293  0.00  0.00    +0.000 Cl
ATOM      4  C   UNL     1      27.216  -6.524  14.683  0.00  0.00    +0.000 C 
ATOM      5  C   UNL     1      28.389  -5.931  14.031  0.00  0.00    +0.000 C 
ATOM      6  C   UNL     1      28.869  -4.801  13.240  0.00  0.00    +0.000 C 
ATOM      7  C   UNL     1      26.058  -5.555  14.332  0.00  0.00    +0.000 C 
ATOM      8  C   UNL     1      27.623  -3.955  12.946  0.00  0.00    +0.000 C 
ATOM      9  C   UNL     1      26.413  -4.430  13.531  0.00  0.00    +0.000 C 
ATOM     10  C   UNL     1      26.919  -7.915  14.079  0.00  0.00    +0.000 C 
ATOM     11  C   UNL     1      29.590  -5.232  11.959  0.00  0.00    +0.000 C 
ENDROOT
BRANCH   4  13
ATOM     12 CL   UNL     1      27.801  -6.669  19.065  0.00  0.00    +0.000 Cl
ATOM     13  C   UNL     1      27.408  -6.579  16.141  0.00  0.00    +0.000 C 
ATOM     14  C   UNL     1      27.566  -6.621  17.330  0.00  0.00    +0.000 C 
ENDBRANCH   4  13
TORSDOF 1
ENDMDL
MODEL 8
REMARK VINA RESULT:      -4.0     25.924     27.777
REMARK  Name = 21574552_Mertensene.pdbqt.pdb
REMARK  1 active torsions:
REMARK  status: ('A' for Active; 'I' for Inactive)
REMARK    1  A    between atoms: C_4  and  C_13
REMARK                            x       y       z     vdW  Elec       q    Type
REMARK                         _______ _______ _______ _____ _____    ______ ____
ROOT
ATOM      1 BR   UNL     1      19.930   0.018  -1.132  0.00  0.00    +0.000 Br
ATOM      2 CL   UNL     1      22.966   2.977  -5.302  0.00  0.00    +0.000 Cl
ATOM      3 CL   UNL     1      20.038   1.587  -6.352  0.00  0.00    +0.000 Cl
ATOM      4  C   UNL     1      22.587   0.438  -2.434  0.00  0.00    +0.000 C 
ATOM      5  C   UNL     1      23.025   0.879  -3.763  0.00  0.00    +0.000 C 
ATOM      6  C   UNL     1      22.578   1.250  -5.103  0.00  0.00    +0.000 C 
ATOM      7  C   UNL     1      21.051   0.287  -2.573  0.00  0.00    +0.000 C 
ATOM      8  C   UNL     1      21.060   1.023  -5.101  0.00  0.00    +0.000 C 
ATOM      9  C   UNL     1      20.511   0.594  -3.857  0.00  0.00    +0.000 C 
ATOM     10  C   UNL     1      23.208  -0.937  -2.100  0.00  0.00    +0.000 C 
ATOM     11  C   UNL     1      23.279   0.455  -6.209  0.00  0.00    +0.000 C 
ENDROOT
BRANCH   4  13
ATOM     12 CL   UNL     1      23.570   3.502   0.600  0.00  0.00    +0.000 Cl
ATOM     13  C   UNL     1      22.908   1.456  -1.421  0.00  0.00    +0.000 C 
ATOM     14  C   UNL     1      23.172   2.287  -0.596  0.00  0.00    +0.000 C 
ENDBRANCH   4  13
TORSDOF 1
ENDMDL
MODEL 9
REMARK VINA RESULT:      -3.8     37.101     38.258
REMARK  Name = 21574552_Mertensene.pdbqt.pdb
REMARK  1 active torsions:
REMARK  status: ('A' for Active; 'I' for Inactive)
REMARK    1  A    between atoms: C_4  and  C_13
REMARK                            x       y       z     vdW  Elec       q    Type
REMARK                         _______ _______ _______ _____ _____    ______ ____
ROOT
ATOM      1 BR   UNL     1      22.355  16.447  33.443  0.00  0.00    +0.000 Br
ATOM      2 CL   UNL     1      23.048  21.915  31.212  0.00  0.00    +0.000 Cl
ATOM      3 CL   UNL     1      19.929  21.213  32.387  0.00  0.00    +0.000 Cl
ATOM      4  C   UNL     1      23.368  18.080  31.154  0.00  0.00    +0.000 C 
ATOM      5  C   UNL     1      23.021  19.389  30.589  0.00  0.00    +0.000 C 
ATOM      6  C   UNL     1      22.093  20.514  30.670  0.00  0.00    +0.000 C 
ATOM      7  C   UNL     1      22.270  17.825  32.218  0.00  0.00    +0.000 C 
ATOM      8  C   UNL     1      21.058  20.110  31.728  0.00  0.00    +0.000 C 
ATOM      9  C   UNL     1      21.290  18.851  32.356  0.00  0.00    +0.000 C 
ATOM     10  C   UNL     1      23.284  16.991  30.062  0.00  0.00    +0.000 C 
ATOM     11  C   UNL     1      21.442  20.849  29.324  0.00  0.00    +0.000 C 
ENDROOT
BRANCH   4  13
ATOM     12 CL   UNL     1      27.350  18.203  33.074  0.00  0.00    +0.000 Cl
ATOM     13  C   UNL     1      24.692  18.129  31.793  0.00  0.00    +0.000 C 
ATOM     14  C   UNL     1      25.773  18.164  32.313  0.00  0.00    +0.000 C 
ENDBRANCH   4  13
TORSDOF 1
ENDMDL
