MODEL 1
REMARK VINA RESULT:      -8.3      0.000      0.000
REMARK  Name = 222284_BetaSitosterol.pdbqt.pdb
REMARK  5 active torsions:
REMARK  status: ('A' for Active; 'I' for Inactive)
REMARK    1  A    between atoms: C_5  and  C_22
REMARK    2  A    between atoms: C_19  and  O_20
REMARK    3  A    between atoms: C_22  and  C_24
REMARK    4  A    between atoms: C_25  and  C_26
REMARK    5  A    between atoms: C_26  and  C_30
REMARK                            x       y       z     vdW  Elec       q    Type
REMARK                         _______ _______ _______ _____ _____    ______ ____
ROOT
ATOM      1  C   UNL     1      21.424  13.177  33.976  0.00  0.00    +0.000 C 
ATOM      2  C   UNL     1      21.646  13.410  32.396  0.00  0.00    +0.000 C 
ATOM      3  C   UNL     1      21.873  14.754  31.826  0.00  0.00    +0.000 C 
ATOM      4  C   UNL     1      22.213  16.000  32.606  0.00  0.00    +0.000 C 
ATOM      5  C   UNL     1      22.259  11.942  34.278  0.00  0.00    +0.000 C 
ATOM      6  C   UNL     1      21.922  14.396  34.615  0.00  0.00    +0.000 C 
ATOM      7  C   UNL     1      22.364  17.405  31.962  0.00  0.00    +0.000 C 
ATOM      8  C   UNL     1      22.396  12.293  31.908  0.00  0.00    +0.000 C 
ATOM      9  C   UNL     1      22.273  15.729  34.000  0.00  0.00    +0.000 C 
ATOM     10  C   UNL     1      22.802  11.424  33.067  0.00  0.00    +0.000 C 
ATOM     11  C   UNL     1      21.919  14.957  30.425  0.00  0.00    +0.000 C 
ATOM     12  C   UNL     1      19.915  12.915  34.219  0.00  0.00    +0.000 C 
ATOM     13  C   UNL     1      22.567  17.374  30.323  0.00  0.00    +0.000 C 
ATOM     14  C   UNL     1      23.601  18.072  32.464  0.00  0.00    +0.000 C 
ATOM     15  C   UNL     1      22.263  16.249  29.749  0.00  0.00    +0.000 C 
ATOM     16  C   UNL     1      21.081  18.236  32.250  0.00  0.00    +0.000 C 
ATOM     17  C   UNL     1      23.722  18.088  29.829  0.00  0.00    +0.000 C 
ATOM     18  C   UNL     1      24.808  18.745  31.789  0.00  0.00    +0.000 C 
ATOM     19  C   UNL     1      24.858  18.774  30.364  0.00  0.00    +0.000 C 
ENDROOT
BRANCH  19  20
ATOM     20  O   UNL     1      25.469  19.794  29.696  0.00  0.00    +0.000 OA
ATOM     21  H   UNL     1      25.196  20.661  30.041  0.00  0.00    +0.000 HD
ENDBRANCH  19  20
BRANCH   5  22
ATOM     22  C   UNL     1      22.506  11.423  35.587  0.00  0.00    +0.000 C 
ATOM     23  C   UNL     1      22.615  12.311  36.801  0.00  0.00    +0.000 C 
BRANCH  22  24
ATOM     24  C   UNL     1      22.646  10.031  35.836  0.00  0.00    +0.000 C 
ATOM     25  C   UNL     1      22.798   8.532  36.133  0.00  0.00    +0.000 C 
BRANCH  25  26
ATOM     26  C   UNL     1      22.954   7.142  36.422  0.00  0.00    +0.000 C 
ATOM     27  C   UNL     1      22.847   6.656  37.780  0.00  0.00    +0.000 C 
ATOM     28  C   UNL     1      22.551   7.573  38.951  0.00  0.00    +0.000 C 
ATOM     29  C   UNL     1      23.047   5.207  38.168  0.00  0.00    +0.000 C 
BRANCH  26  30
ATOM     30  C   UNL     1      23.208   6.223  35.369  0.00  0.00    +0.000 C 
ATOM     31  C   UNL     1      23.431   5.213  34.237  0.00  0.00    +0.000 C 
ENDBRANCH  26  30
ENDBRANCH  25  26
ENDBRANCH  22  24
ENDBRANCH   5  22
TORSDOF 5
ENDMDL
MODEL 2
REMARK VINA RESULT:      -7.4      4.574      9.456
REMARK  Name = 222284_BetaSitosterol.pdbqt.pdb
REMARK  5 active torsions:
REMARK  status: ('A' for Active; 'I' for Inactive)
REMARK    1  A    between atoms: C_5  and  C_22
REMARK    2  A    between atoms: C_19  and  O_20
REMARK    3  A    between atoms: C_22  and  C_24
REMARK    4  A    between atoms: C_25  and  C_26
REMARK    5  A    between atoms: C_26  and  C_30
REMARK                            x       y       z     vdW  Elec       q    Type
REMARK                         _______ _______ _______ _____ _____    ______ ____
ROOT
ATOM      1  C   UNL     1      22.562  19.996  31.171  0.00  0.00    +0.000 C 
ATOM      2  C   UNL     1      21.221  19.474  31.898  0.00  0.00    +0.000 C 
ATOM      3  C   UNL     1      20.784  18.065  31.819  0.00  0.00    +0.000 C 
ATOM      4  C   UNL     1      21.619  16.906  31.335  0.00  0.00    +0.000 C 
ATOM      5  C   UNL     1      23.204  20.905  32.209  0.00  0.00    +0.000 C 
ATOM      6  C   UNL     1      23.337  18.787  30.887  0.00  0.00    +0.000 C 
ATOM      7  C   UNL     1      21.083  15.455  31.199  0.00  0.00    +0.000 C 
ATOM      8  C   UNL     1      21.108  20.186  33.134  0.00  0.00    +0.000 C 
ATOM      9  C   UNL     1      22.912  17.339  30.933  0.00  0.00    +0.000 C 
ATOM     10  C   UNL     1      22.341  21.026  33.336  0.00  0.00    +0.000 C 
ATOM     11  C   UNL     1      19.531  17.657  32.338  0.00  0.00    +0.000 C 
ATOM     12  C   UNL     1      22.148  20.787  29.903  0.00  0.00    +0.000 C 
ATOM     13  C   UNL     1      19.683  15.176  32.031  0.00  0.00    +0.000 C 
ATOM     14  C   UNL     1      22.052  14.488  31.794  0.00  0.00    +0.000 C 
ATOM     15  C   UNL     1      19.048  16.241  32.418  0.00  0.00    +0.000 C 
ATOM     16  C   UNL     1      20.792  15.159  29.700  0.00  0.00    +0.000 C 
ATOM     17  C   UNL     1      19.714  14.049  32.935  0.00  0.00    +0.000 C 
ATOM     18  C   UNL     1      21.941  13.355  32.828  0.00  0.00    +0.000 C 
ATOM     19  C   UNL     1      20.670  13.103  33.424  0.00  0.00    +0.000 C 
ENDROOT
BRANCH  19  20
ATOM     20  O   UNL     1      20.310  11.850  33.826  0.00  0.00    +0.000 OA
ATOM     21  H   UNL     1      21.041  11.398  34.280  0.00  0.00    +0.000 HD
ENDBRANCH  19  20
BRANCH   5  22
ATOM     22  C   UNL     1      24.501  21.494  32.089  0.00  0.00    +0.000 C 
ATOM     23  C   UNL     1      24.754  22.730  31.264  0.00  0.00    +0.000 C 
BRANCH  22  24
ATOM     24  C   UNL     1      25.638  20.964  32.757  0.00  0.00    +0.000 C 
ATOM     25  C   UNL     1      26.858  20.405  33.503  0.00  0.00    +0.000 C 
BRANCH  25  26
ATOM     26  C   UNL     1      27.997  19.903  34.205  0.00  0.00    +0.000 C 
ATOM     27  C   UNL     1      28.299  18.488  34.200  0.00  0.00    +0.000 C 
ATOM     28  C   UNL     1      27.451  17.478  33.449  0.00  0.00    +0.000 C 
ATOM     29  C   UNL     1      29.457  17.878  34.957  0.00  0.00    +0.000 C 
BRANCH  26  30
ATOM     30  C   UNL     1      28.847  20.796  34.908  0.00  0.00    +0.000 C 
ATOM     31  C   UNL     1      29.808  21.739  35.642  0.00  0.00    +0.000 C 
ENDBRANCH  26  30
ENDBRANCH  25  26
ENDBRANCH  22  24
ENDBRANCH   5  22
TORSDOF 5
ENDMDL
MODEL 3
REMARK VINA RESULT:      -7.3     20.184     24.058
REMARK  Name = 222284_BetaSitosterol.pdbqt.pdb
REMARK  5 active torsions:
REMARK  status: ('A' for Active; 'I' for Inactive)
REMARK    1  A    between atoms: C_5  and  C_22
REMARK    2  A    between atoms: C_19  and  O_20
REMARK    3  A    between atoms: C_22  and  C_24
REMARK    4  A    between atoms: C_25  and  C_26
REMARK    5  A    between atoms: C_26  and  C_30
REMARK                            x       y       z     vdW  Elec       q    Type
REMARK                         _______ _______ _______ _____ _____    ______ ____
ROOT
ATOM      1  C   UNL     1      25.812  -6.916  22.288  0.00  0.00    +0.000 C 
ATOM      2  C   UNL     1      27.390  -6.666  22.069  0.00  0.00    +0.000 C 
ATOM      3  C   UNL     1      28.004  -6.660  20.726  0.00  0.00    +0.000 C 
ATOM      4  C   UNL     1      27.262  -6.590  19.414  0.00  0.00    +0.000 C 
ATOM      5  C   UNL     1      25.427  -5.885  23.338  0.00  0.00    +0.000 C 
ATOM      6  C   UNL     1      25.204  -6.678  20.977  0.00  0.00    +0.000 C 
ATOM      7  C   UNL     1      27.956  -6.667  18.027  0.00  0.00    +0.000 C 
ATOM      8  C   UNL     1      27.802  -5.704  23.045  0.00  0.00    +0.000 C 
ATOM      9  C   UNL     1      25.857  -6.547  19.623  0.00  0.00    +0.000 C 
ATOM     10  C   UNL     1      26.593  -5.201  23.787  0.00  0.00    +0.000 C 
ATOM     11  C   UNL     1      29.409  -6.587  20.564  0.00  0.00    +0.000 C 
ATOM     12  C   UNL     1      25.620  -8.361  22.814  0.00  0.00    +0.000 C 
ATOM     13  C   UNL     1      29.583  -6.384  18.073  0.00  0.00    +0.000 C 
ATOM     14  C   UNL     1      27.432  -5.597  17.128  0.00  0.00    +0.000 C 
ATOM     15  C   UNL     1      30.123  -6.452  19.252  0.00  0.00    +0.000 C 
ATOM     16  C   UNL     1      27.754  -8.092  17.436  0.00  0.00    +0.000 C 
ATOM     17  C   UNL     1      30.059  -5.357  17.176  0.00  0.00    +0.000 C 
ATOM     18  C   UNL     1      28.085  -4.501  16.268  0.00  0.00    +0.000 C 
ATOM     19  C   UNL     1      29.507  -4.391  16.276  0.00  0.00    +0.000 C 
ENDROOT
BRANCH  19  20
ATOM     20  O   UNL     1      30.191  -3.945  15.183  0.00  0.00    +0.000 OA
ATOM     21  H   UNL     1      29.890  -3.062  14.910  0.00  0.00    +0.000 HD
ENDBRANCH  19  20
BRANCH   5  22
ATOM     22  C   UNL     1      24.089  -5.610  23.760  0.00  0.00    +0.000 C 
ATOM     23  C   UNL     1      23.592  -5.946  25.143  0.00  0.00    +0.000 C 
BRANCH  22  24
ATOM     24  C   UNL     1      23.140  -4.981  22.908  0.00  0.00    +0.000 C 
ATOM     25  C   UNL     1      22.119  -4.323  21.969  0.00  0.00    +0.000 C 
BRANCH  25  26
ATOM     26  C   UNL     1      21.180  -3.715  21.081  0.00  0.00    +0.000 C 
ATOM     27  C   UNL     1      21.320  -3.862  19.649  0.00  0.00    +0.000 C 
ATOM     28  C   UNL     1      22.440  -4.671  19.020  0.00  0.00    +0.000 C 
ATOM     29  C   UNL     1      20.395  -3.210  18.646  0.00  0.00    +0.000 C 
BRANCH  26  30
ATOM     30  C   UNL     1      20.094  -2.964  21.603  0.00  0.00    +0.000 C 
ATOM     31  C   UNL     1      18.953  -2.137  22.207  0.00  0.00    +0.000 C 
ENDBRANCH  26  30
ENDBRANCH  25  26
ENDBRANCH  22  24
ENDBRANCH   5  22
TORSDOF 5
ENDMDL
MODEL 4
REMARK VINA RESULT:      -7.1      6.508     10.529
REMARK  Name = 222284_BetaSitosterol.pdbqt.pdb
REMARK  5 active torsions:
REMARK  status: ('A' for Active; 'I' for Inactive)
REMARK    1  A    between atoms: C_5  and  C_22
REMARK    2  A    between atoms: C_19  and  O_20
REMARK    3  A    between atoms: C_22  and  C_24
REMARK    4  A    between atoms: C_25  and  C_26
REMARK    5  A    between atoms: C_26  and  C_30
REMARK                            x       y       z     vdW  Elec       q    Type
REMARK                         _______ _______ _______ _____ _____    ______ ____
ROOT
ATOM      1  C   UNL     1      20.231  17.067  32.463  0.00  0.00    +0.000 C 
ATOM      2  C   UNL     1      18.992  16.048  32.628  0.00  0.00    +0.000 C 
ATOM      3  C   UNL     1      17.637  16.513  32.990  0.00  0.00    +0.000 C 
ATOM      4  C   UNL     1      17.157  17.942  32.967  0.00  0.00    +0.000 C 
ATOM      5  C   UNL     1      20.939  16.572  31.211  0.00  0.00    +0.000 C 
ATOM      6  C   UNL     1      19.618  18.388  32.310  0.00  0.00    +0.000 C 
ATOM      7  C   UNL     1      15.743  18.384  33.433  0.00  0.00    +0.000 C 
ATOM      8  C   UNL     1      19.154  15.025  31.641  0.00  0.00    +0.000 C 
ATOM      9  C   UNL     1      18.196  18.824  32.562  0.00  0.00    +0.000 C 
ATOM     10  C   UNL     1      20.319  15.374  30.754  0.00  0.00    +0.000 C 
ATOM     11  C   UNL     1      16.599  15.592  33.275  0.00  0.00    +0.000 C 
ATOM     12  C   UNL     1      21.135  16.937  33.715  0.00  0.00    +0.000 C 
ATOM     13  C   UNL     1      14.653  17.146  33.536  0.00  0.00    +0.000 C 
ATOM     14  C   UNL     1      15.137  19.314  32.435  0.00  0.00    +0.000 C 
ATOM     15  C   UNL     1      15.168  15.954  33.531  0.00  0.00    +0.000 C 
ATOM     16  C   UNL     1      15.850  19.019  34.850  0.00  0.00    +0.000 C 
ATOM     17  C   UNL     1      13.419  17.347  32.811  0.00  0.00    +0.000 C 
ATOM     18  C   UNL     1      13.797  19.355  31.682  0.00  0.00    +0.000 C 
ATOM     19  C   UNL     1      12.860  18.304  31.907  0.00  0.00    +0.000 C 
ENDROOT
BRANCH  19  20
ATOM     20  O   UNL     1      11.516  18.521  31.821  0.00  0.00    +0.000 OA
ATOM     21  H   UNL     1      11.318  19.437  31.562  0.00  0.00    +0.000 HD
ENDBRANCH  19  20
BRANCH   5  22
ATOM     22  C   UNL     1      22.021  17.246  30.564  0.00  0.00    +0.000 C 
ATOM     23  C   UNL     1      23.003  16.528  29.673  0.00  0.00    +0.000 C 
BRANCH  22  24
ATOM     24  C   UNL     1      22.233  18.645  30.702  0.00  0.00    +0.000 C 
ATOM     25  C   UNL     1      22.482  20.151  30.870  0.00  0.00    +0.000 C 
BRANCH  25  26
ATOM     26  C   UNL     1      22.715  21.549  31.046  0.00  0.00    +0.000 C 
ATOM     27  C   UNL     1      24.054  22.050  31.264  0.00  0.00    +0.000 C 
ATOM     28  C   UNL     1      25.268  21.140  31.300  0.00  0.00    +0.000 C 
ATOM     29  C   UNL     1      24.372  23.509  31.505  0.00  0.00    +0.000 C 
BRANCH  26  30
ATOM     30  C   UNL     1      21.627  22.460  30.998  0.00  0.00    +0.000 C 
ATOM     31  C   UNL     1      20.419  23.402  30.933  0.00  0.00    +0.000 C 
ENDBRANCH  26  30
ENDBRANCH  25  26
ENDBRANCH  22  24
ENDBRANCH   5  22
TORSDOF 5
ENDMDL
MODEL 5
REMARK VINA RESULT:      -7.0     29.788     32.199
REMARK  Name = 222284_BetaSitosterol.pdbqt.pdb
REMARK  5 active torsions:
REMARK  status: ('A' for Active; 'I' for Inactive)
REMARK    1  A    between atoms: C_5  and  C_22
REMARK    2  A    between atoms: C_19  and  O_20
REMARK    3  A    between atoms: C_22  and  C_24
REMARK    4  A    between atoms: C_25  and  C_26
REMARK    5  A    between atoms: C_26  and  C_30
REMARK                            x       y       z     vdW  Elec       q    Type
REMARK                         _______ _______ _______ _____ _____    ______ ____
ROOT
ATOM      1  C   UNL     1      23.678  26.213   4.113  0.00  0.00    +0.000 C 
ATOM      2  C   UNL     1      23.454  26.909   5.550  0.00  0.00    +0.000 C 
ATOM      3  C   UNL     1      22.552  28.064   5.730  0.00  0.00    +0.000 C 
ATOM      4  C   UNL     1      21.534  28.556   4.731  0.00  0.00    +0.000 C 
ATOM      5  C   UNL     1      23.654  24.725   4.426  0.00  0.00    +0.000 C 
ATOM      6  C   UNL     1      22.551  26.661   3.293  0.00  0.00    +0.000 C 
ATOM      7  C   UNL     1      20.665  29.825   4.941  0.00  0.00    +0.000 C 
ATOM      8  C   UNL     1      23.481  25.866   6.530  0.00  0.00    +0.000 C 
ATOM      9  C   UNL     1      21.554  27.765   3.550  0.00  0.00    +0.000 C 
ATOM     10  C   UNL     1      23.561  24.534   5.835  0.00  0.00    +0.000 C 
ATOM     11  C   UNL     1      22.481  28.752   6.966  0.00  0.00    +0.000 C 
ATOM     12  C   UNL     1      25.062  26.657   3.571  0.00  0.00    +0.000 C 
ATOM     13  C   UNL     1      20.606  30.349   6.506  0.00  0.00    +0.000 C 
ATOM     14  C   UNL     1      19.239  29.536   4.606  0.00  0.00    +0.000 C 
ATOM     15  C   UNL     1      21.516  29.853   7.289  0.00  0.00    +0.000 C 
ATOM     16  C   UNL     1      21.251  30.988   4.089  0.00  0.00    +0.000 C 
ATOM     17  C   UNL     1      19.280  30.529   7.050  0.00  0.00    +0.000 C 
ATOM     18  C   UNL     1      17.903  29.730   5.342  0.00  0.00    +0.000 C 
ATOM     19  C   UNL     1      17.926  30.291   6.653  0.00  0.00    +0.000 C 
ENDROOT
BRANCH  19  20
ATOM     20  O   UNL     1      16.891  31.046   7.121  0.00  0.00    +0.000 OA
ATOM     21  H   UNL     1      16.908  31.944   6.750  0.00  0.00    +0.000 HD
ENDBRANCH  19  20
BRANCH   5  22
ATOM     22  C   UNL     1      23.663  23.684   3.446  0.00  0.00    +0.000 C 
ATOM     23  C   UNL     1      24.801  23.498   2.475  0.00  0.00    +0.000 C 
BRANCH  22  24
ATOM     24  C   UNL     1      22.607  22.740   3.335  0.00  0.00    +0.000 C 
ATOM     25  C   UNL     1      21.458  21.731   3.188  0.00  0.00    +0.000 C 
BRANCH  25  26
ATOM     26  C   UNL     1      20.378  20.807   3.046  0.00  0.00    +0.000 C 
ATOM     27  C   UNL     1      19.296  21.075   2.124  0.00  0.00    +0.000 C 
ATOM     28  C   UNL     1      19.256  22.320   1.258  0.00  0.00    +0.000 C 
ATOM     29  C   UNL     1      18.098  20.168   1.954  0.00  0.00    +0.000 C 
BRANCH  26  30
ATOM     30  C   UNL     1      20.366  19.609   3.808  0.00  0.00    +0.000 C 
ATOM     31  C   UNL     1      20.305  18.302   4.608  0.00  0.00    +0.000 C 
ENDBRANCH  26  30
ENDBRANCH  25  26
ENDBRANCH  22  24
ENDBRANCH   5  22
TORSDOF 5
ENDMDL
MODEL 6
REMARK VINA RESULT:      -6.8     38.498     42.462
REMARK  Name = 222284_BetaSitosterol.pdbqt.pdb
REMARK  5 active torsions:
REMARK  status: ('A' for Active; 'I' for Inactive)
REMARK    1  A    between atoms: C_5  and  C_22
REMARK    2  A    between atoms: C_19  and  O_20
REMARK    3  A    between atoms: C_22  and  C_24
REMARK    4  A    between atoms: C_25  and  C_26
REMARK    5  A    between atoms: C_26  and  C_30
REMARK                            x       y       z     vdW  Elec       q    Type
REMARK                         _______ _______ _______ _____ _____    ______ ____
ROOT
ATOM      1  C   UNL     1      46.751 -11.036   6.784  0.00  0.00    +0.000 C 
ATOM      2  C   UNL     1      46.624 -11.082   5.177  0.00  0.00    +0.000 C 
ATOM      3  C   UNL     1      45.381 -11.507   4.501  0.00  0.00    +0.000 C 
ATOM      4  C   UNL     1      44.029 -11.665   5.151  0.00  0.00    +0.000 C 
ATOM      5  C   UNL     1      47.481  -9.729   7.050  0.00  0.00    +0.000 C 
ATOM      6  C   UNL     1      45.372 -11.053   7.275  0.00  0.00    +0.000 C 
ATOM      7  C   UNL     1      42.772 -12.191   4.408  0.00  0.00    +0.000 C 
ATOM      8  C   UNL     1      47.371  -9.975   4.664  0.00  0.00    +0.000 C 
ATOM      9  C   UNL     1      44.092 -11.366   6.540  0.00  0.00    +0.000 C 
ATOM     10  C   UNL     1      47.855  -9.130   5.812  0.00  0.00    +0.000 C 
ATOM     11  C   UNL     1      45.336 -11.682   3.096  0.00  0.00    +0.000 C 
ATOM     12  C   UNL     1      47.592 -12.258   7.237  0.00  0.00    +0.000 C 
ATOM     13  C   UNL     1      42.897 -12.146   2.761  0.00  0.00    +0.000 C 
ATOM     14  C   UNL     1      41.596 -11.319   4.702  0.00  0.00    +0.000 C 
ATOM     15  C   UNL     1      44.102 -11.990   2.302  0.00  0.00    +0.000 C 
ATOM     16  C   UNL     1      42.527 -13.674   4.809  0.00  0.00    +0.000 C 
ATOM     17  C   UNL     1      41.825 -11.460   2.077  0.00  0.00    +0.000 C 
ATOM     18  C   UNL     1      40.560 -10.585   3.834  0.00  0.00    +0.000 C 
ATOM     19  C   UNL     1      40.671 -10.684   2.416  0.00  0.00    +0.000 C 
ENDROOT
BRANCH  19  20
ATOM     20  O   UNL     1      39.570 -10.635   1.612  0.00  0.00    +0.000 OA
ATOM     21  H   UNL     1      39.223 -11.523   1.427  0.00  0.00    +0.000 HD
ENDBRANCH  19  20
BRANCH   5  22
ATOM     22  C   UNL     1      47.699  -9.164   8.345  0.00  0.00    +0.000 C 
ATOM     23  C   UNL     1      48.962  -9.408   9.130  0.00  0.00    +0.000 C 
BRANCH  22  24
ATOM     24  C   UNL     1      46.746  -8.316   8.971  0.00  0.00    +0.000 C 
ATOM     25  C   UNL     1      45.737  -7.389   9.665  0.00  0.00    +0.000 C 
BRANCH  25  26
ATOM     26  C   UNL     1      44.806  -6.531  10.327  0.00  0.00    +0.000 C 
ATOM     27  C   UNL     1      43.495  -6.293   9.764  0.00  0.00    +0.000 C 
ATOM     28  C   UNL     1      43.035  -6.942   8.472  0.00  0.00    +0.000 C 
ATOM     29  C   UNL     1      42.476  -5.362  10.383  0.00  0.00    +0.000 C 
BRANCH  26  30
ATOM     30  C   UNL     1      45.163  -5.911  11.554  0.00  0.00    +0.000 C 
ATOM     31  C   UNL     1      45.512  -5.202  12.868  0.00  0.00    +0.000 C 
ENDBRANCH  26  30
ENDBRANCH  25  26
ENDBRANCH  22  24
ENDBRANCH   5  22
TORSDOF 5
ENDMDL
MODEL 7
REMARK VINA RESULT:      -6.8     21.686     24.580
REMARK  Name = 222284_BetaSitosterol.pdbqt.pdb
REMARK  5 active torsions:
REMARK  status: ('A' for Active; 'I' for Inactive)
REMARK    1  A    between atoms: C_5  and  C_22
REMARK    2  A    between atoms: C_19  and  O_20
REMARK    3  A    between atoms: C_22  and  C_24
REMARK    4  A    between atoms: C_25  and  C_26
REMARK    5  A    between atoms: C_26  and  C_30
REMARK                            x       y       z     vdW  Elec       q    Type
REMARK                         _______ _______ _______ _____ _____    ______ ____
ROOT
ATOM      1  C   UNL     1      41.357  15.395  19.443  0.00  0.00    +0.000 C 
ATOM      2  C   UNL     1      41.680  15.460  17.865  0.00  0.00    +0.000 C 
ATOM      3  C   UNL     1      42.298  16.648  17.240  0.00  0.00    +0.000 C 
ATOM      4  C   UNL     1      42.957  17.791  17.971  0.00  0.00    +0.000 C 
ATOM      5  C   UNL     1      41.796  13.994  19.842  0.00  0.00    +0.000 C 
ATOM      6  C   UNL     1      42.165  16.459  20.042  0.00  0.00    +0.000 C 
ATOM      7  C   UNL     1      43.521  19.054  17.266  0.00  0.00    +0.000 C 
ATOM      8  C   UNL     1      42.093  14.150  17.466  0.00  0.00    +0.000 C 
ATOM      9  C   UNL     1      42.899  17.599  19.379  0.00  0.00    +0.000 C 
ATOM     10  C   UNL     1      42.201  13.272  18.683  0.00  0.00    +0.000 C 
ATOM     11  C   UNL     1      42.438  16.745  15.834  0.00  0.00    +0.000 C 
ATOM     12  C   UNL     1      39.830  15.587  19.632  0.00  0.00    +0.000 C 
ATOM     13  C   UNL     1      43.753  18.869  15.641  0.00  0.00    +0.000 C 
ATOM     14  C   UNL     1      44.882  19.372  17.788  0.00  0.00    +0.000 C 
ATOM     15  C   UNL     1      43.156  17.845  15.111  0.00  0.00    +0.000 C 
ATOM     16  C   UNL     1      42.521  20.231  17.456  0.00  0.00    +0.000 C 
ATOM     17  C   UNL     1      45.077  19.195  15.163  0.00  0.00    +0.000 C 
ATOM     18  C   UNL     1      46.250  19.633  17.134  0.00  0.00    +0.000 C 
ATOM     19  C   UNL     1      46.346  19.562  15.713  0.00  0.00    +0.000 C 
ENDROOT
BRANCH  19  20
ATOM     20  O   UNL     1      47.241  20.325  15.022  0.00  0.00    +0.000 OA
ATOM     21  H   UNL     1      48.056  19.832  14.829  0.00  0.00    +0.000 HD
ENDBRANCH  19  20
BRANCH   5  22
ATOM     22  C   UNL     1      41.847  13.506  21.185  0.00  0.00    +0.000 C 
ATOM     23  C   UNL     1      42.515  14.273  22.299  0.00  0.00    +0.000 C 
BRANCH  22  24
ATOM     24  C   UNL     1      41.255  12.272  21.566  0.00  0.00    +0.000 C 
ATOM     25  C   UNL     1      40.636  10.924  21.964  0.00  0.00    +0.000 C 
BRANCH  25  26
ATOM     26  C   UNL     1      40.063   9.664  22.316  0.00  0.00    +0.000 C 
ATOM     27  C   UNL     1      38.810   9.235  21.734  0.00  0.00    +0.000 C 
ATOM     28  C   UNL     1      38.056  10.075  20.720  0.00  0.00    +0.000 C 
ATOM     29  C   UNL     1      38.121   7.938  22.093  0.00  0.00    +0.000 C 
BRANCH  26  30
ATOM     30  C   UNL     1      40.730   8.816  23.240  0.00  0.00    +0.000 C 
ATOM     31  C   UNL     1      41.425   7.858  24.215  0.00  0.00    +0.000 C 
ENDBRANCH  26  30
ENDBRANCH  25  26
ENDBRANCH  22  24
ENDBRANCH   5  22
TORSDOF 5
ENDMDL
MODEL 8
REMARK VINA RESULT:      -6.5     20.376     25.412
REMARK  Name = 222284_BetaSitosterol.pdbqt.pdb
REMARK  5 active torsions:
REMARK  status: ('A' for Active; 'I' for Inactive)
REMARK    1  A    between atoms: C_5  and  C_22
REMARK    2  A    between atoms: C_19  and  O_20
REMARK    3  A    between atoms: C_22  and  C_24
REMARK    4  A    between atoms: C_25  and  C_26
REMARK    5  A    between atoms: C_26  and  C_30
REMARK                            x       y       z     vdW  Elec       q    Type
REMARK                         _______ _______ _______ _____ _____    ______ ____
ROOT
ATOM      1  C   UNL     1      26.447  -8.756  19.037  0.00  0.00    +0.000 C 
ATOM      2  C   UNL     1      27.242  -8.841  17.636  0.00  0.00    +0.000 C 
ATOM      3  C   UNL     1      27.111  -7.801  16.596  0.00  0.00    +0.000 C 
ATOM      4  C   UNL     1      26.496  -6.436  16.782  0.00  0.00    +0.000 C 
ATOM      5  C   UNL     1      27.486  -9.175  20.066  0.00  0.00    +0.000 C 
ATOM      6  C   UNL     1      26.032  -7.356  19.154  0.00  0.00    +0.000 C 
ATOM      7  C   UNL     1      26.315  -5.409  15.631  0.00  0.00    +0.000 C 
ATOM      8  C   UNL     1      28.523  -9.414  17.915  0.00  0.00    +0.000 C 
ATOM      9  C   UNL     1      26.024  -6.265  18.111  0.00  0.00    +0.000 C 
ATOM     10  C   UNL     1      28.681  -9.576  19.403  0.00  0.00    +0.000 C 
ATOM     11  C   UNL     1      27.699  -7.966  15.318  0.00  0.00    +0.000 C 
ATOM     12  C   UNL     1      25.264  -9.757  18.984  0.00  0.00    +0.000 C 
ATOM     13  C   UNL     1      27.233  -5.727  14.295  0.00  0.00    +0.000 C 
ATOM     14  C   UNL     1      26.774  -4.058  16.068  0.00  0.00    +0.000 C 
ATOM     15  C   UNL     1      27.730  -6.926  14.239  0.00  0.00    +0.000 C 
ATOM     16  C   UNL     1      24.827  -5.413  15.177  0.00  0.00    +0.000 C 
ATOM     17  C   UNL     1      28.062  -4.636  13.839  0.00  0.00    +0.000 C 
ATOM     18  C   UNL     1      27.744  -3.014  15.489  0.00  0.00    +0.000 C 
ATOM     19  C   UNL     1      28.419  -3.319  14.270  0.00  0.00    +0.000 C 
ENDROOT
BRANCH  19  20
ATOM     20  O   UNL     1      28.771  -2.339  13.389  0.00  0.00    +0.000 OA
ATOM     21  H   UNL     1      29.347  -1.675  13.805  0.00  0.00    +0.000 HD
ENDBRANCH  19  20
BRANCH   5  22
ATOM     22  C   UNL     1      27.302  -9.114  21.482  0.00  0.00    +0.000 C 
ATOM     23  C   UNL     1      27.058 -10.345  22.319  0.00  0.00    +0.000 C 
BRANCH  22  24
ATOM     24  C   UNL     1      27.358  -7.890  22.202  0.00  0.00    +0.000 C 
ATOM     25  C   UNL     1      27.392  -6.560  22.970  0.00  0.00    +0.000 C 
BRANCH  25  26
ATOM     26  C   UNL     1      27.415  -5.315  23.669  0.00  0.00    +0.000 C 
ATOM     27  C   UNL     1      26.301  -4.917  24.501  0.00  0.00    +0.000 C 
ATOM     28  C   UNL     1      25.075  -5.791  24.691  0.00  0.00    +0.000 C 
ATOM     29  C   UNL     1      26.234  -3.595  25.233  0.00  0.00    +0.000 C 
BRANCH  26  30
ATOM     30  C   UNL     1      28.544  -4.460  23.557  0.00  0.00    +0.000 C 
ATOM     31  C   UNL     1      29.758  -3.527  23.488  0.00  0.00    +0.000 C 
ENDBRANCH  26  30
ENDBRANCH  25  26
ENDBRANCH  22  24
ENDBRANCH   5  22
TORSDOF 5
ENDMDL
MODEL 9
REMARK VINA RESULT:      -6.5     30.652     32.756
REMARK  Name = 222284_BetaSitosterol.pdbqt.pdb
REMARK  5 active torsions:
REMARK  status: ('A' for Active; 'I' for Inactive)
REMARK    1  A    between atoms: C_5  and  C_22
REMARK    2  A    between atoms: C_19  and  O_20
REMARK    3  A    between atoms: C_22  and  C_24
REMARK    4  A    between atoms: C_25  and  C_26
REMARK    5  A    between atoms: C_26  and  C_30
REMARK                            x       y       z     vdW  Elec       q    Type
REMARK                         _______ _______ _______ _____ _____    ______ ____
ROOT
ATOM      1  C   UNL     1      24.152  26.996   4.305  0.00  0.00    +0.000 C 
ATOM      2  C   UNL     1      23.404  27.294   5.702  0.00  0.00    +0.000 C 
ATOM      3  C   UNL     1      22.377  28.347   5.833  0.00  0.00    +0.000 C 
ATOM      4  C   UNL     1      21.691  29.061   4.694  0.00  0.00    +0.000 C 
ATOM      5  C   UNL     1      24.182  25.477   4.230  0.00  0.00    +0.000 C 
ATOM      6  C   UNL     1      23.309  27.619   3.282  0.00  0.00    +0.000 C 
ATOM      7  C   UNL     1      20.674  30.217   4.890  0.00  0.00    +0.000 C 
ATOM      8  C   UNL     1      23.220  26.035   6.357  0.00  0.00    +0.000 C 
ATOM      9  C   UNL     1      22.174  28.602   3.438  0.00  0.00    +0.000 C 
ATOM     10  C   UNL     1      23.659  24.928   5.436  0.00  0.00    +0.000 C 
ATOM     11  C   UNL     1      21.840  28.693   7.097  0.00  0.00    +0.000 C 
ATOM     12  C   UNL     1      25.582  27.589   4.385  0.00  0.00    +0.000 C 
ATOM     13  C   UNL     1      20.059  30.319   6.420  0.00  0.00    +0.000 C 
ATOM     14  C   UNL     1      19.471  29.998   4.034  0.00  0.00    +0.000 C 
ATOM     15  C   UNL     1      20.713  29.655   7.324  0.00  0.00    +0.000 C 
ATOM     16  C   UNL     1      21.380  31.571   4.588  0.00  0.00    +0.000 C 
ATOM     17  C   UNL     1      18.617  30.329   6.508  0.00  0.00    +0.000 C 
ATOM     18  C   UNL     1      17.956  29.971   4.297  0.00  0.00    +0.000 C 
ATOM     19  C   UNL     1      17.496  30.177   5.631  0.00  0.00    +0.000 C 
ENDROOT
BRANCH  19  20
ATOM     20  O   UNL     1      16.292  30.766   5.884  0.00  0.00    +0.000 OA
ATOM     21  H   UNL     1      15.994  30.590   6.792  0.00  0.00    +0.000 HD
ENDBRANCH  19  20
BRANCH   5  22
ATOM     22  C   UNL     1      24.616  24.723   3.095  0.00  0.00    +0.000 C 
ATOM     23  C   UNL     1      25.874  25.058   2.335  0.00  0.00    +0.000 C 
BRANCH  22  24
ATOM     24  C   UNL     1      23.898  23.594   2.617  0.00  0.00    +0.000 C 
ATOM     25  C   UNL     1      23.142  22.356   2.113  0.00  0.00    +0.000 C 
BRANCH  25  26
ATOM     26  C   UNL     1      22.456  21.197   1.637  0.00  0.00    +0.000 C 
ATOM     27  C   UNL     1      21.368  20.622   2.397  0.00  0.00    +0.000 C 
ATOM     28  C   UNL     1      20.889  21.216   3.709  0.00  0.00    +0.000 C 
ATOM     29  C   UNL     1      20.626  19.371   1.982  0.00  0.00    +0.000 C 
BRANCH  26  30
ATOM     30  C   UNL     1      22.836  20.604   0.404  0.00  0.00    +0.000 C 
ATOM     31  C   UNL     1      23.240  20.013  -0.951  0.00  0.00    +0.000 C 
ENDBRANCH  26  30
ENDBRANCH  25  26
ENDBRANCH  22  24
ENDBRANCH   5  22
TORSDOF 5
ENDMDL
