MODEL 1
REMARK VINA RESULT:      -7.5      0.000      0.000
REMARK  Name = 25023738_BI-D-1870.pdbqt.pdb
REMARK  4 active torsions:
REMARK  status: ('A' for Active; 'I' for Inactive)
REMARK    1  A    between atoms: N_2  and  C_26
REMARK    2  A    between atoms: N_14  and  C_16
REMARK    3  A    between atoms: C_20  and  O_24
REMARK    4  A    between atoms: C_27  and  C_28
REMARK                            x       y       z     vdW  Elec       q    Type
REMARK                         _______ _______ _______ _____ _____    ______ ____
ROOT
ATOM      1  O   UNL     1      50.357  -0.245   9.431  0.00  0.00    +0.000 OA
ATOM      2  N   UNL     1      48.004  -2.939   9.974  0.00  0.00    +0.000 N 
ATOM      3  N   UNL     1      48.213  -0.152  10.338  0.00  0.00    +0.000 N 
ATOM      4  N   UNL     1      45.804  -2.895  10.896  0.00  0.00    +0.000 NA
ATOM      5  N   UNL     1      44.809  -0.905  11.633  0.00  0.00    +0.000 NA
ATOM      6  C   UNL     1      49.170  -2.312   9.591  0.00  0.00    +0.000 C 
ATOM      7  C   UNL     1      46.925  -2.227  10.539  0.00  0.00    +0.000 A 
ATOM      8  C   UNL     1      49.319  -0.821   9.770  0.00  0.00    +0.000 C 
ATOM      9  C   UNL     1      47.041  -0.866  10.710  0.00  0.00    +0.000 A 
ATOM     10  C   UNL     1      50.310  -3.124   8.987  0.00  0.00    +0.000 C 
ATOM     11  C   UNL     1      48.171   1.285  10.587  0.00  0.00    +0.000 C 
ATOM     12  C   UNL     1      45.934  -0.264  11.268  0.00  0.00    +0.000 A 
ATOM     13  C   UNL     1      44.776  -2.221  11.433  0.00  0.00    +0.000 A 
ATOM     14  N   UNL     1      43.609  -2.870  11.813  0.00  0.00    +0.000 N 
ATOM     15  H   UNL     1      42.939  -2.215  12.198  0.00  0.00    +0.000 HD
ENDROOT
BRANCH  14  16
ATOM     16  C   UNL     1      43.234  -4.216  11.749  0.00  0.00    +0.000 A 
ATOM     17  C   UNL     1      43.425  -5.033  12.871  0.00  0.00    +0.000 A 
ATOM     18  C   UNL     1      43.063  -6.379  12.844  0.00  0.00    +0.000 A 
ATOM     19  F   UNL     1      43.263  -7.128  13.939  0.00  0.00    +0.000 F 
ATOM     20  C   UNL     1      42.506  -6.936  11.701  0.00  0.00    +0.000 A 
ATOM     21  C   UNL     1      42.314  -6.133  10.585  0.00  0.00    +0.000 A 
ATOM     22  F   UNL     1      41.775  -6.659   9.475  0.00  0.00    +0.000 F 
ATOM     23  C   UNL     1      42.671  -4.788  10.605  0.00  0.00    +0.000 A 
BRANCH  20  24
ATOM     24  O   UNL     1      42.154  -8.256  11.681  0.00  0.00    +0.000 OA
ATOM     25  H   UNL     1      41.241  -8.320  11.339  0.00  0.00    +0.000 HD
ENDBRANCH  20  24
ENDBRANCH  14  16
BRANCH   2  26
ATOM     26  C   UNL     1      47.856  -4.382   9.805  0.00  0.00    +0.000 C 
ATOM     27  C   UNL     1      47.702  -5.897   9.622  0.00  0.00    +0.000 C 
BRANCH  27  28
ATOM     28  C   UNL     1      47.559  -7.293   9.459  0.00  0.00    +0.000 C 
ATOM     29  C   UNL     1      48.775  -8.154   9.303  0.00  0.00    +0.000 C 
ATOM     30  C   UNL     1      46.192  -7.900   9.390  0.00  0.00    +0.000 C 
ENDBRANCH  27  28
ENDBRANCH   2  26
TORSDOF 4
ENDMDL
MODEL 2
REMARK VINA RESULT:      -6.9      1.581      2.412
REMARK  Name = 25023738_BI-D-1870.pdbqt.pdb
REMARK  4 active torsions:
REMARK  status: ('A' for Active; 'I' for Inactive)
REMARK    1  A    between atoms: N_2  and  C_26
REMARK    2  A    between atoms: N_14  and  C_16
REMARK    3  A    between atoms: C_20  and  O_24
REMARK    4  A    between atoms: C_27  and  C_28
REMARK                            x       y       z     vdW  Elec       q    Type
REMARK                         _______ _______ _______ _____ _____    ______ ____
ROOT
ATOM      1  O   UNL     1      50.015   1.642  11.679  0.00  0.00    +0.000 OA
ATOM      2  N   UNL     1      48.057  -1.393  11.472  0.00  0.00    +0.000 N 
ATOM      3  N   UNL     1      47.701   1.387  11.764  0.00  0.00    +0.000 N 
ATOM      4  N   UNL     1      45.693  -1.705  11.553  0.00  0.00    +0.000 NA
ATOM      5  N   UNL     1      44.213   0.096  11.803  0.00  0.00    +0.000 NA
ATOM      6  C   UNL     1      49.174  -0.586  11.499  0.00  0.00    +0.000 C 
ATOM      7  C   UNL     1      46.754  -0.866  11.587  0.00  0.00    +0.000 A 
ATOM      8  C   UNL     1      49.023   0.907  11.654  0.00  0.00    +0.000 C 
ATOM      9  C   UNL     1      46.595   0.495  11.729  0.00  0.00    +0.000 A 
ATOM     10  C   UNL     1      50.563  -1.203  11.372  0.00  0.00    +0.000 C 
ATOM     11  C   UNL     1      47.357   2.797  11.919  0.00  0.00    +0.000 C 
ATOM     12  C   UNL     1      45.285   0.910  11.832  0.00  0.00    +0.000 A 
ATOM     13  C   UNL     1      44.452  -1.206  11.662  0.00  0.00    +0.000 A 
ATOM     14  N   UNL     1      43.338  -2.034  11.633  0.00  0.00    +0.000 N 
ATOM     15  H   UNL     1      42.485  -1.498  11.727  0.00  0.00    +0.000 HD
ENDROOT
BRANCH  14  16
ATOM     16  C   UNL     1      43.218  -3.422  11.499  0.00  0.00    +0.000 A 
ATOM     17  C   UNL     1      42.882  -3.961  10.249  0.00  0.00    +0.000 A 
ATOM     18  C   UNL     1      42.753  -5.338  10.077  0.00  0.00    +0.000 A 
ATOM     19  F   UNL     1      42.430  -5.815   8.866  0.00  0.00    +0.000 F 
ATOM     20  C   UNL     1      42.955  -6.203  11.145  0.00  0.00    +0.000 A 
ATOM     21  C   UNL     1      43.287  -5.677  12.385  0.00  0.00    +0.000 A 
ATOM     22  F   UNL     1      43.485  -6.502  13.423  0.00  0.00    +0.000 F 
ATOM     23  C   UNL     1      43.419  -4.303  12.564  0.00  0.00    +0.000 A 
BRANCH  20  24
ATOM     24  O   UNL     1      42.826  -7.552  10.969  0.00  0.00    +0.000 OA
ATOM     25  H   UNL     1      42.003  -7.836  11.410  0.00  0.00    +0.000 HD
ENDBRANCH  20  24
ENDBRANCH  14  16
BRANCH   2  26
ATOM     26  C   UNL     1      48.198  -2.839  11.324  0.00  0.00    +0.000 C 
ATOM     27  C   UNL     1      48.345  -4.358  11.174  0.00  0.00    +0.000 C 
BRANCH  27  28
ATOM     28  C   UNL     1      48.481  -5.757  11.031  0.00  0.00    +0.000 C 
ATOM     29  C   UNL     1      49.828  -6.395  11.182  0.00  0.00    +0.000 C 
ATOM     30  C   UNL     1      47.288  -6.590  10.677  0.00  0.00    +0.000 C 
ENDBRANCH  27  28
ENDBRANCH   2  26
TORSDOF 4
ENDMDL
MODEL 3
REMARK VINA RESULT:      -6.8     18.585     21.566
REMARK  Name = 25023738_BI-D-1870.pdbqt.pdb
REMARK  4 active torsions:
REMARK  status: ('A' for Active; 'I' for Inactive)
REMARK    1  A    between atoms: N_2  and  C_26
REMARK    2  A    between atoms: N_14  and  C_16
REMARK    3  A    between atoms: C_20  and  O_24
REMARK    4  A    between atoms: C_27  and  C_28
REMARK                            x       y       z     vdW  Elec       q    Type
REMARK                         _______ _______ _______ _____ _____    ______ ____
ROOT
ATOM      1  O   UNL     1      27.411  -1.738  11.933  0.00  0.00    +0.000 OA
ATOM      2  N   UNL     1      26.814  -3.472  15.051  0.00  0.00    +0.000 N 
ATOM      3  N   UNL     1      25.572  -1.596  13.355  0.00  0.00    +0.000 N 
ATOM      4  N   UNL     1      24.952  -3.361  16.539  0.00  0.00    +0.000 NA
ATOM      5  N   UNL     1      23.108  -1.978  16.116  0.00  0.00    +0.000 NA
ATOM      6  C   UNL     1      27.470  -3.091  13.901  0.00  0.00    +0.000 C 
ATOM      7  C   UNL     1      25.550  -2.951  15.397  0.00  0.00    +0.000 A 
ATOM      8  C   UNL     1      26.836  -2.088  12.968  0.00  0.00    +0.000 C 
ATOM      9  C   UNL     1      24.955  -2.034  14.559  0.00  0.00    +0.000 A 
ATOM     10  C   UNL     1      28.836  -3.682  13.570  0.00  0.00    +0.000 C 
ATOM     11  C   UNL     1      24.806  -0.623  12.583  0.00  0.00    +0.000 C 
ATOM     12  C   UNL     1      23.723  -1.586  14.984  0.00  0.00    +0.000 A 
ATOM     13  C   UNL     1      23.750  -2.867  16.871  0.00  0.00    +0.000 A 
ATOM     14  N   UNL     1      23.105  -3.263  18.034  0.00  0.00    +0.000 N 
ATOM     15  H   UNL     1      22.212  -2.795  18.130  0.00  0.00    +0.000 HD
ENDROOT
BRANCH  14  16
ATOM     16  C   UNL     1      23.475  -4.161  19.040  0.00  0.00    +0.000 A 
ATOM     17  C   UNL     1      23.232  -3.826  20.379  0.00  0.00    +0.000 A 
ATOM     18  C   UNL     1      23.587  -4.697  21.409  0.00  0.00    +0.000 A 
ATOM     19  F   UNL     1      23.338  -4.339  22.677  0.00  0.00    +0.000 F 
ATOM     20  C   UNL     1      24.191  -5.914  21.125  0.00  0.00    +0.000 A 
ATOM     21  C   UNL     1      24.436  -6.253  19.802  0.00  0.00    +0.000 A 
ATOM     22  F   UNL     1      25.017  -7.427  19.514  0.00  0.00    +0.000 F 
ATOM     23  C   UNL     1      24.083  -5.390  18.768  0.00  0.00    +0.000 A 
BRANCH  20  24
ATOM     24  O   UNL     1      24.537  -6.762  22.139  0.00  0.00    +0.000 OA
ATOM     25  H   UNL     1      23.848  -6.705  22.828  0.00  0.00    +0.000 HD
ENDBRANCH  20  24
ENDBRANCH  14  16
BRANCH   2  26
ATOM     26  C   UNL     1      27.424  -4.441  15.959  0.00  0.00    +0.000 C 
ATOM     27  C   UNL     1      28.065  -5.461  16.907  0.00  0.00    +0.000 C 
BRANCH  27  28
ATOM     28  C   UNL     1      28.656  -6.397  17.785  0.00  0.00    +0.000 C 
ATOM     29  C   UNL     1      29.973  -6.089  18.428  0.00  0.00    +0.000 C 
ATOM     30  C   UNL     1      27.989  -7.716  18.028  0.00  0.00    +0.000 C 
ENDBRANCH  27  28
ENDBRANCH   2  26
TORSDOF 4
ENDMDL
MODEL 4
REMARK VINA RESULT:      -5.9     18.872     21.860
REMARK  Name = 25023738_BI-D-1870.pdbqt.pdb
REMARK  4 active torsions:
REMARK  status: ('A' for Active; 'I' for Inactive)
REMARK    1  A    between atoms: N_2  and  C_26
REMARK    2  A    between atoms: N_14  and  C_16
REMARK    3  A    between atoms: C_20  and  O_24
REMARK    4  A    between atoms: C_27  and  C_28
REMARK                            x       y       z     vdW  Elec       q    Type
REMARK                         _______ _______ _______ _____ _____    ______ ____
ROOT
ATOM      1  O   UNL     1      26.669  -8.677  20.665  0.00  0.00    +0.000 OA
ATOM      2  N   UNL     1      25.633  -6.222  18.218  0.00  0.00    +0.000 N 
ATOM      3  N   UNL     1      27.986  -7.385  19.243  0.00  0.00    +0.000 N 
ATOM      4  N   UNL     1      26.939  -4.877  16.743  0.00  0.00    +0.000 NA
ATOM      5  N   UNL     1      29.280  -4.998  16.701  0.00  0.00    +0.000 NA
ATOM      6  C   UNL     1      25.518  -7.176  19.206  0.00  0.00    +0.000 C 
ATOM      7  C   UNL     1      26.886  -5.818  17.713  0.00  0.00    +0.000 A 
ATOM      8  C   UNL     1      26.756  -7.821  19.779  0.00  0.00    +0.000 C 
ATOM      9  C   UNL     1      28.028  -6.395  18.224  0.00  0.00    +0.000 A 
ATOM     10  C   UNL     1      24.141  -7.579  19.720  0.00  0.00    +0.000 C 
ATOM     11  C   UNL     1      29.286  -7.892  19.670  0.00  0.00    +0.000 C 
ATOM     12  C   UNL     1      29.200  -5.933  17.666  0.00  0.00    +0.000 A 
ATOM     13  C   UNL     1      28.130  -4.490  16.261  0.00  0.00    +0.000 A 
ATOM     14  N   UNL     1      28.226  -3.528  15.265  0.00  0.00    +0.000 N 
ATOM     15  H   UNL     1      29.193  -3.356  15.019  0.00  0.00    +0.000 HD
ENDROOT
BRANCH  14  16
ATOM     16  C   UNL     1      27.246  -2.799  14.583  0.00  0.00    +0.000 A 
ATOM     17  C   UNL     1      27.486  -2.403  13.260  0.00  0.00    +0.000 A 
ATOM     18  C   UNL     1      26.533  -1.676  12.548  0.00  0.00    +0.000 A 
ATOM     19  F   UNL     1      26.801  -1.316  11.285  0.00  0.00    +0.000 F 
ATOM     20  C   UNL     1      25.326  -1.329  13.140  0.00  0.00    +0.000 A 
ATOM     21  C   UNL     1      25.082  -1.716  14.450  0.00  0.00    +0.000 A 
ATOM     22  F   UNL     1      23.919  -1.388  15.032  0.00  0.00    +0.000 F 
ATOM     23  C   UNL     1      26.027  -2.443  15.166  0.00  0.00    +0.000 A 
BRANCH  20  24
ATOM     24  O   UNL     1      24.397  -0.615  12.437  0.00  0.00    +0.000 OA
ATOM     25  H   UNL     1      24.870  -0.071  11.778  0.00  0.00    +0.000 HD
ENDBRANCH  20  24
ENDBRANCH  14  16
BRANCH   2  26
ATOM     26  C   UNL     1      24.438  -5.593  17.661  0.00  0.00    +0.000 C 
ATOM     27  C   UNL     1      23.181  -4.933  17.081  0.00  0.00    +0.000 C 
BRANCH  27  28
ATOM     28  C   UNL     1      22.026  -4.325  16.542  0.00  0.00    +0.000 C 
ATOM     29  C   UNL     1      21.648  -2.938  16.963  0.00  0.00    +0.000 C 
ATOM     30  C   UNL     1      21.154  -5.087  15.592  0.00  0.00    +0.000 C 
ENDBRANCH  27  28
ENDBRANCH   2  26
TORSDOF 4
ENDMDL
MODEL 5
REMARK VINA RESULT:      -5.7      3.335      4.652
REMARK  Name = 25023738_BI-D-1870.pdbqt.pdb
REMARK  4 active torsions:
REMARK  status: ('A' for Active; 'I' for Inactive)
REMARK    1  A    between atoms: N_2  and  C_26
REMARK    2  A    between atoms: N_14  and  C_16
REMARK    3  A    between atoms: C_20  and  O_24
REMARK    4  A    between atoms: C_27  and  C_28
REMARK                            x       y       z     vdW  Elec       q    Type
REMARK                         _______ _______ _______ _____ _____    ______ ____
ROOT
ATOM      1  O   UNL     1      48.051   4.387  14.376  0.00  0.00    +0.000 OA
ATOM      2  N   UNL     1      47.111   1.004  13.502  0.00  0.00    +0.000 N 
ATOM      3  N   UNL     1      45.963   3.364  14.529  0.00  0.00    +0.000 N 
ATOM      4  N   UNL     1      44.994  -0.087  13.641  0.00  0.00    +0.000 NA
ATOM      5  N   UNL     1      43.084   1.012  14.438  0.00  0.00    +0.000 NA
ATOM      6  C   UNL     1      47.919   2.108  13.672  0.00  0.00    +0.000 C 
ATOM      7  C   UNL     1      45.739   1.026  13.828  0.00  0.00    +0.000 A 
ATOM      8  C   UNL     1      47.340   3.390  14.219  0.00  0.00    +0.000 C 
ATOM      9  C   UNL     1      45.192   2.187  14.329  0.00  0.00    +0.000 A 
ATOM     10  C   UNL     1      49.397   2.034  13.307  0.00  0.00    +0.000 C 
ATOM     11  C   UNL     1      45.229   4.504  15.067  0.00  0.00    +0.000 C 
ATOM     12  C   UNL     1      43.846   2.106  14.614  0.00  0.00    +0.000 A 
ATOM     13  C   UNL     1      43.689  -0.069  13.949  0.00  0.00    +0.000 A 
ATOM     14  N   UNL     1      42.891  -1.191  13.771  0.00  0.00    +0.000 N 
ATOM     15  H   UNL     1      41.936  -1.005  14.052  0.00  0.00    +0.000 HD
ENDROOT
BRANCH  14  16
ATOM     16  C   UNL     1      43.185  -2.471  13.288  0.00  0.00    +0.000 A 
ATOM     17  C   UNL     1      43.234  -3.546  14.185  0.00  0.00    +0.000 A 
ATOM     18  C   UNL     1      43.523  -4.835  13.740  0.00  0.00    +0.000 A 
ATOM     19  F   UNL     1      43.560  -5.837  14.631  0.00  0.00    +0.000 F 
ATOM     20  C   UNL     1      43.770  -5.077  12.396  0.00  0.00    +0.000 A 
ATOM     21  C   UNL     1      43.725  -4.017  11.501  0.00  0.00    +0.000 A 
ATOM     22  F   UNL     1      43.960  -4.238  10.199  0.00  0.00    +0.000 F 
ATOM     23  C   UNL     1      43.435  -2.728  11.937  0.00  0.00    +0.000 A 
BRANCH  20  24
ATOM     24  O   UNL     1      44.053  -6.343  11.967  0.00  0.00    +0.000 OA
ATOM     25  H   UNL     1      44.518  -6.274  11.110  0.00  0.00    +0.000 HD
ENDBRANCH  20  24
ENDBRANCH  14  16
BRANCH   2  26
ATOM     26  C   UNL     1      47.668  -0.240  12.975  0.00  0.00    +0.000 C 
ATOM     27  C   UNL     1      48.252  -1.543  12.417  0.00  0.00    +0.000 C 
BRANCH  27  28
ATOM     28  C   UNL     1      48.791  -2.745  11.907  0.00  0.00    +0.000 C 
ATOM     29  C   UNL     1      47.874  -3.836  11.445  0.00  0.00    +0.000 C 
ATOM     30  C   UNL     1      50.275  -2.945  11.880  0.00  0.00    +0.000 C 
ENDBRANCH  27  28
ENDBRANCH   2  26
TORSDOF 4
ENDMDL
MODEL 6
REMARK VINA RESULT:      -5.4     18.112     19.996
REMARK  Name = 25023738_BI-D-1870.pdbqt.pdb
REMARK  4 active torsions:
REMARK  status: ('A' for Active; 'I' for Inactive)
REMARK    1  A    between atoms: N_2  and  C_26
REMARK    2  A    between atoms: N_14  and  C_16
REMARK    3  A    between atoms: C_20  and  O_24
REMARK    4  A    between atoms: C_27  and  C_28
REMARK                            x       y       z     vdW  Elec       q    Type
REMARK                         _______ _______ _______ _____ _____    ______ ____
ROOT
ATOM      1  O   UNL     1      28.163 -12.178  18.366  0.00  0.00    +0.000 OA
ATOM      2  N   UNL     1      27.765  -9.370  16.121  0.00  0.00    +0.000 N 
ATOM      3  N   UNL     1      28.579  -9.920  18.762  0.00  0.00    +0.000 N 
ATOM      4  N   UNL     1      28.176  -7.047  16.477  0.00  0.00    +0.000 NA
ATOM      5  N   UNL     1      28.962  -6.228  18.528  0.00  0.00    +0.000 NA
ATOM      6  C   UNL     1      27.746 -10.677  16.555  0.00  0.00    +0.000 C 
ATOM      7  C   UNL     1      28.177  -8.312  16.957  0.00  0.00    +0.000 A 
ATOM      8  C   UNL     1      28.175 -11.011  17.963  0.00  0.00    +0.000 C 
ATOM      9  C   UNL     1      28.572  -8.596  18.246  0.00  0.00    +0.000 A 
ATOM     10  C   UNL     1      27.292 -11.787  15.614  0.00  0.00    +0.000 C 
ATOM     11  C   UNL     1      29.025 -10.046  20.145  0.00  0.00    +0.000 C 
ATOM     12  C   UNL     1      28.955  -7.495  18.981  0.00  0.00    +0.000 A 
ATOM     13  C   UNL     1      28.566  -6.038  17.271  0.00  0.00    +0.000 A 
ATOM     14  N   UNL     1      28.579  -4.727  16.816  0.00  0.00    +0.000 N 
ATOM     15  H   UNL     1      28.900  -4.095  17.539  0.00  0.00    +0.000 HD
ENDROOT
BRANCH  14  16
ATOM     16  C   UNL     1      28.238  -4.172  15.577  0.00  0.00    +0.000 A 
ATOM     17  C   UNL     1      28.878  -4.637  14.420  0.00  0.00    +0.000 A 
ATOM     18  C   UNL     1      28.564  -4.108  13.169  0.00  0.00    +0.000 A 
ATOM     19  F   UNL     1      29.199  -4.580  12.087  0.00  0.00    +0.000 F 
ATOM     20  C   UNL     1      27.609  -3.108  13.047  0.00  0.00    +0.000 A 
ATOM     21  C   UNL     1      26.972  -2.641  14.188  0.00  0.00    +0.000 A 
ATOM     22  F   UNL     1      26.047  -1.676  14.083  0.00  0.00    +0.000 F 
ATOM     23  C   UNL     1      27.279  -3.165  15.441  0.00  0.00    +0.000 A 
BRANCH  20  24
ATOM     24  O   UNL     1      27.307  -2.594  11.818  0.00  0.00    +0.000 OA
ATOM     25  H   UNL     1      28.102  -2.140  11.477  0.00  0.00    +0.000 HD
ENDBRANCH  20  24
ENDBRANCH  14  16
BRANCH   2  26
ATOM     26  C   UNL     1      27.349  -9.041  14.759  0.00  0.00    +0.000 C 
ATOM     27  C   UNL     1      26.917  -8.699  13.328  0.00  0.00    +0.000 C 
BRANCH  27  28
ATOM     28  C   UNL     1      26.514  -8.382  12.012  0.00  0.00    +0.000 C 
ATOM     29  C   UNL     1      25.406  -9.154  11.365  0.00  0.00    +0.000 C 
ATOM     30  C   UNL     1      27.231  -7.311  11.250  0.00  0.00    +0.000 C 
ENDBRANCH  27  28
ENDBRANCH   2  26
TORSDOF 4
ENDMDL
MODEL 7
REMARK VINA RESULT:      -5.3     15.592     18.819
REMARK  Name = 25023738_BI-D-1870.pdbqt.pdb
REMARK  4 active torsions:
REMARK  status: ('A' for Active; 'I' for Inactive)
REMARK    1  A    between atoms: N_2  and  C_26
REMARK    2  A    between atoms: N_14  and  C_16
REMARK    3  A    between atoms: C_20  and  O_24
REMARK    4  A    between atoms: C_27  and  C_28
REMARK                            x       y       z     vdW  Elec       q    Type
REMARK                         _______ _______ _______ _____ _____    ______ ____
ROOT
ATOM      1  O   UNL     1      43.764   6.313  16.397  0.00  0.00    +0.000 OA
ATOM      2  N   UNL     1      42.199   9.105  18.084  0.00  0.00    +0.000 N 
ATOM      3  N   UNL     1      44.124   8.594  16.090  0.00  0.00    +0.000 N 
ATOM      4  N   UNL     1      42.533  11.451  17.806  0.00  0.00    +0.000 NA
ATOM      5  N   UNL     1      44.066  12.309  16.255  0.00  0.00    +0.000 NA
ATOM      6  C   UNL     1      42.479   7.795  17.760  0.00  0.00    +0.000 C 
ATOM      7  C   UNL     1      42.847  10.184  17.448  0.00  0.00    +0.000 A 
ATOM      8  C   UNL     1      43.504   7.482  16.698  0.00  0.00    +0.000 C 
ATOM      9  C   UNL     1      43.786   9.920  16.476  0.00  0.00    +0.000 A 
ATOM     10  C   UNL     1      41.753   6.661  18.476  0.00  0.00    +0.000 C 
ATOM     11  C   UNL     1      45.138   8.490  15.045  0.00  0.00    +0.000 C 
ATOM     12  C   UNL     1      44.360  11.040  15.916  0.00  0.00    +0.000 A 
ATOM     13  C   UNL     1      43.147  12.480  17.203  0.00  0.00    +0.000 A 
ATOM     14  N   UNL     1      42.852  13.793  17.542  0.00  0.00    +0.000 N 
ATOM     15  H   UNL     1      43.404  14.441  16.993  0.00  0.00    +0.000 HD
ENDROOT
BRANCH  14  16
ATOM     16  C   UNL     1      41.957  14.332  18.473  0.00  0.00    +0.000 A 
ATOM     17  C   UNL     1      42.255  15.564  19.072  0.00  0.00    +0.000 A 
ATOM     18  C   UNL     1      41.387  16.132  20.003  0.00  0.00    +0.000 A 
ATOM     19  F   UNL     1      41.707  17.312  20.555  0.00  0.00    +0.000 F 
ATOM     20  C   UNL     1      40.210  15.485  20.356  0.00  0.00    +0.000 A 
ATOM     21  C   UNL     1      39.909  14.265  19.767  0.00  0.00    +0.000 A 
ATOM     22  F   UNL     1      38.775  13.631  20.099  0.00  0.00    +0.000 F 
ATOM     23  C   UNL     1      40.770  13.692  18.836  0.00  0.00    +0.000 A 
BRANCH  20  24
ATOM     24  O   UNL     1      39.364  16.048  21.270  0.00  0.00    +0.000 OA
ATOM     25  H   UNL     1      38.525  16.255  20.817  0.00  0.00    +0.000 HD
ENDBRANCH  20  24
ENDBRANCH  14  16
BRANCH   2  26
ATOM     26  C   UNL     1      41.209   9.413  19.113  0.00  0.00    +0.000 C 
ATOM     27  C   UNL     1      40.169   9.731  20.194  0.00  0.00    +0.000 C 
BRANCH  27  28
ATOM     28  C   UNL     1      39.212  10.029  21.189  0.00  0.00    +0.000 C 
ATOM     29  C   UNL     1      39.507  11.078  22.218  0.00  0.00    +0.000 C 
ATOM     30  C   UNL     1      37.928   9.260  21.245  0.00  0.00    +0.000 C 
ENDBRANCH  27  28
ENDBRANCH   2  26
TORSDOF 4
ENDMDL
MODEL 8
REMARK VINA RESULT:      -5.2     39.283     41.680
REMARK  Name = 25023738_BI-D-1870.pdbqt.pdb
REMARK  4 active torsions:
REMARK  status: ('A' for Active; 'I' for Inactive)
REMARK    1  A    between atoms: N_2  and  C_26
REMARK    2  A    between atoms: N_14  and  C_16
REMARK    3  A    between atoms: C_20  and  O_24
REMARK    4  A    between atoms: C_27  and  C_28
REMARK                            x       y       z     vdW  Elec       q    Type
REMARK                         _______ _______ _______ _____ _____    ______ ____
ROOT
ATOM      1  O   UNL     1      18.819  26.179  34.978  0.00  0.00    +0.000 OA
ATOM      2  N   UNL     1      20.209  23.233  33.405  0.00  0.00    +0.000 N 
ATOM      3  N   UNL     1      20.829  25.950  33.823  0.00  0.00    +0.000 N 
ATOM      4  N   UNL     1      22.256  22.948  32.213  0.00  0.00    +0.000 NA
ATOM      5  N   UNL     1      23.758  24.718  31.889  0.00  0.00    +0.000 NA
ATOM      6  C   UNL     1      19.314  24.011  34.106  0.00  0.00    +0.000 C 
ATOM      7  C   UNL     1      21.414  23.758  32.895  0.00  0.00    +0.000 A 
ATOM      8  C   UNL     1      19.611  25.470  34.350  0.00  0.00    +0.000 C 
ATOM      9  C   UNL     1      21.704  25.088  33.107  0.00  0.00    +0.000 A 
ATOM     10  C   UNL     1      18.022  23.397  34.636  0.00  0.00    +0.000 C 
ATOM     11  C   UNL     1      21.287  27.328  33.957  0.00  0.00    +0.000 C 
ATOM     12  C   UNL     1      22.904  25.503  32.571  0.00  0.00    +0.000 A 
ATOM     13  C   UNL     1      23.404  23.445  31.728  0.00  0.00    +0.000 A 
ATOM     14  N   UNL     1      24.293  22.645  31.023  0.00  0.00    +0.000 N 
ATOM     15  H   UNL     1      25.104  23.176  30.730  0.00  0.00    +0.000 HD
ENDROOT
BRANCH  14  16
ATOM     16  C   UNL     1      24.248  21.291  30.675  0.00  0.00    +0.000 A 
ATOM     17  C   UNL     1      23.031  20.732  30.262  0.00  0.00    +0.000 A 
ATOM     18  C   UNL     1      22.947  19.387  29.906  0.00  0.00    +0.000 A 
ATOM     19  F   UNL     1      21.764  18.890  29.516  0.00  0.00    +0.000 F 
ATOM     20  C   UNL     1      24.071  18.574  29.958  0.00  0.00    +0.000 A 
ATOM     21  C   UNL     1      25.279  19.119  30.367  0.00  0.00    +0.000 A 
ATOM     22  F   UNL     1      26.373  18.344  30.420  0.00  0.00    +0.000 F 
ATOM     23  C   UNL     1      25.372  20.462  30.722  0.00  0.00    +0.000 A 
BRANCH  20  24
ATOM     24  O   UNL     1      23.981  17.255  29.609  0.00  0.00    +0.000 OA
ATOM     25  H   UNL     1      23.690  17.209  28.678  0.00  0.00    +0.000 HD
ENDBRANCH  20  24
ENDBRANCH  14  16
BRANCH   2  26
ATOM     26  C   UNL     1      19.924  21.820  33.164  0.00  0.00    +0.000 C 
ATOM     27  C   UNL     1      19.620  20.338  32.913  0.00  0.00    +0.000 C 
BRANCH  27  28
ATOM     28  C   UNL     1      19.345  18.972  32.680  0.00  0.00    +0.000 C 
ATOM     29  C   UNL     1      20.467  18.027  32.375  0.00  0.00    +0.000 C 
ATOM     30  C   UNL     1      17.930  18.484  32.688  0.00  0.00    +0.000 C 
ENDBRANCH  27  28
ENDBRANCH   2  26
TORSDOF 4
ENDMDL
MODEL 9
REMARK VINA RESULT:      -5.1     19.736     22.853
REMARK  Name = 25023738_BI-D-1870.pdbqt.pdb
REMARK  4 active torsions:
REMARK  status: ('A' for Active; 'I' for Inactive)
REMARK    1  A    between atoms: N_2  and  C_26
REMARK    2  A    between atoms: N_14  and  C_16
REMARK    3  A    between atoms: C_20  and  O_24
REMARK    4  A    between atoms: C_27  and  C_28
REMARK                            x       y       z     vdW  Elec       q    Type
REMARK                         _______ _______ _______ _____ _____    ______ ____
ROOT
ATOM      1  O   UNL     1      29.714  -4.004  14.575  0.00  0.00    +0.000 OA
ATOM      2  N   UNL     1      26.452  -4.397  16.090  0.00  0.00    +0.000 N 
ATOM      3  N   UNL     1      27.690  -3.029  13.960  0.00  0.00    +0.000 N 
ATOM      4  N   UNL     1      24.356  -3.423  15.499  0.00  0.00    +0.000 NA
ATOM      5  N   UNL     1      24.141  -1.950  13.689  0.00  0.00    +0.000 NA
ATOM      6  C   UNL     1      27.805  -4.573  15.894  0.00  0.00    +0.000 C 
ATOM      7  C   UNL     1      25.681  -3.558  15.260  0.00  0.00    +0.000 A 
ATOM      8  C   UNL     1      28.503  -3.856  14.764  0.00  0.00    +0.000 C 
ATOM      9  C   UNL     1      26.299  -2.895  14.223  0.00  0.00    +0.000 A 
ATOM     10  C   UNL     1      28.597  -5.490  16.819  0.00  0.00    +0.000 C 
ATOM     11  C   UNL     1      28.185  -2.258  12.824  0.00  0.00    +0.000 C 
ATOM     12  C   UNL     1      25.460  -2.101  13.471  0.00  0.00    +0.000 A 
ATOM     13  C   UNL     1      23.620  -2.625  14.711  0.00  0.00    +0.000 A 
ATOM     14  N   UNL     1      22.258  -2.461  14.924  0.00  0.00    +0.000 N 
ATOM     15  H   UNL     1      21.858  -1.828  14.242  0.00  0.00    +0.000 HD
ENDROOT
BRANCH  14  16
ATOM     16  C   UNL     1      21.397  -3.007  15.883  0.00  0.00    +0.000 A 
ATOM     17  C   UNL     1      20.294  -3.760  15.460  0.00  0.00    +0.000 A 
ATOM     18  C   UNL     1      19.414  -4.320  16.385  0.00  0.00    +0.000 A 
ATOM     19  F   UNL     1      18.370  -5.034  15.941  0.00  0.00    +0.000 F 
ATOM     20  C   UNL     1      19.616  -4.138  17.747  0.00  0.00    +0.000 A 
ATOM     21  C   UNL     1      20.705  -3.392  18.174  0.00  0.00    +0.000 A 
ATOM     22  F   UNL     1      20.911  -3.211  19.486  0.00  0.00    +0.000 F 
ATOM     23  C   UNL     1      21.589  -2.832  17.255  0.00  0.00    +0.000 A 
BRANCH  20  24
ATOM     24  O   UNL     1      18.749  -4.689  18.649  0.00  0.00    +0.000 OA
ATOM     25  H   UNL     1      17.856  -4.345  18.457  0.00  0.00    +0.000 HD
ENDBRANCH  20  24
ENDBRANCH  14  16
BRANCH   2  26
ATOM     26  C   UNL     1      25.773  -5.087  17.184  0.00  0.00    +0.000 C 
ATOM     27  C   UNL     1      25.058  -5.807  18.334  0.00  0.00    +0.000 C 
BRANCH  27  28
ATOM     28  C   UNL     1      24.400  -6.474  19.391  0.00  0.00    +0.000 C 
ATOM     29  C   UNL     1      22.921  -6.317  19.567  0.00  0.00    +0.000 C 
ATOM     30  C   UNL     1      25.192  -7.294  20.362  0.00  0.00    +0.000 C 
ENDBRANCH  27  28
ENDBRANCH   2  26
TORSDOF 4
ENDMDL
