MODEL 1
REMARK VINA RESULT:      -5.4      0.000      0.000
REMARK  Name = 26879_Levamisole.pdbqt.pdb
REMARK  1 active torsions:
REMARK  status: ('A' for Active; 'I' for Inactive)
REMARK    1  A    between atoms: C_5  and  C_9
REMARK                            x       y       z     vdW  Elec       q    Type
REMARK                         _______ _______ _______ _____ _____    ______ ____
ROOT
ATOM      1  S   UNL     1      17.688  19.197   3.554  0.00  0.00    +0.000 S 
ATOM      2  N   UNL     1      20.063  17.686   3.620  0.00  0.00    +0.000 NA
ATOM      3  N   UNL     1      19.702  19.224   1.764  0.00  0.00    +0.000 NA
ATOM      4  C   UNL     1      21.248  18.237   3.040  0.00  0.00    +0.000 C 
ATOM      5  C   UNL     1      21.038  19.029   1.899  0.00  0.00    +0.000 C 
ATOM      6  C   UNL     1      19.694  18.183   4.921  0.00  0.00    +0.000 C 
ATOM      7  C   UNL     1      19.128  18.502   2.772  0.00  0.00    +0.000 C 
ATOM      8  C   UNL     1      18.413  18.946   5.055  0.00  0.00    +0.000 C 
ENDROOT
BRANCH   5   9
ATOM      9  C   UNL     1      22.035  19.620   1.020  0.00  0.00    +0.000 A 
ATOM     10  C   UNL     1      22.054  19.348  -0.351  0.00  0.00    +0.000 A 
ATOM     11  C   UNL     1      23.008  20.478   1.542  0.00  0.00    +0.000 A 
ATOM     12  C   UNL     1      23.017  19.919  -1.182  0.00  0.00    +0.000 A 
ATOM     13  C   UNL     1      23.973  21.051   0.716  0.00  0.00    +0.000 A 
ATOM     14  C   UNL     1      23.977  20.771  -0.646  0.00  0.00    +0.000 A 
ENDBRANCH   5   9
TORSDOF 1
ENDMDL
MODEL 2
REMARK VINA RESULT:      -5.1     33.505     34.258
REMARK  Name = 26879_Levamisole.pdbqt.pdb
REMARK  1 active torsions:
REMARK  status: ('A' for Active; 'I' for Inactive)
REMARK    1  A    between atoms: C_5  and  C_9
REMARK                            x       y       z     vdW  Elec       q    Type
REMARK                         _______ _______ _______ _____ _____    ______ ____
ROOT
ATOM      1  S   UNL     1      43.567  -5.082  14.177  0.00  0.00    +0.000 S 
ATOM      2  N   UNL     1      42.695  -4.274  11.625  0.00  0.00    +0.000 NA
ATOM      3  N   UNL     1      44.722  -3.278  12.542  0.00  0.00    +0.000 NA
ATOM      4  C   UNL     1      43.667  -3.864  10.661  0.00  0.00    +0.000 C 
ATOM      5  C   UNL     1      44.779  -3.187  11.189  0.00  0.00    +0.000 C 
ATOM      6  C   UNL     1      42.551  -5.693  11.829  0.00  0.00    +0.000 C 
ATOM      7  C   UNL     1      43.558  -3.943  12.810  0.00  0.00    +0.000 C 
ATOM      8  C   UNL     1      42.909  -6.260  13.168  0.00  0.00    +0.000 C 
ENDROOT
BRANCH   5   9
ATOM      9  C   UNL     1      45.865  -2.542  10.466  0.00  0.00    +0.000 A 
ATOM     10  C   UNL     1      46.869  -3.288   9.840  0.00  0.00    +0.000 A 
ATOM     11  C   UNL     1      45.924  -1.148  10.389  0.00  0.00    +0.000 A 
ATOM     12  C   UNL     1      47.905  -2.658   9.153  0.00  0.00    +0.000 A 
ATOM     13  C   UNL     1      46.958  -0.513   9.704  0.00  0.00    +0.000 A 
ATOM     14  C   UNL     1      47.948  -1.269   9.085  0.00  0.00    +0.000 A 
ENDBRANCH   5   9
TORSDOF 1
ENDMDL
MODEL 3
REMARK VINA RESULT:      -5.1     32.691     33.678
REMARK  Name = 26879_Levamisole.pdbqt.pdb
REMARK  1 active torsions:
REMARK  status: ('A' for Active; 'I' for Inactive)
REMARK    1  A    between atoms: C_5  and  C_9
REMARK                            x       y       z     vdW  Elec       q    Type
REMARK                         _______ _______ _______ _____ _____    ______ ____
ROOT
ATOM      1  S   UNL     1      42.738  -6.987  12.043  0.00  0.00    +0.000 S 
ATOM      2  N   UNL     1      42.582  -4.774  10.310  0.00  0.00    +0.000 NA
ATOM      3  N   UNL     1      42.776  -4.376  12.707  0.00  0.00    +0.000 NA
ATOM      4  C   UNL     1      43.241  -3.560  10.679  0.00  0.00    +0.000 C 
ATOM      5  C   UNL     1      43.245  -3.281  12.055  0.00  0.00    +0.000 C 
ATOM      6  C   UNL     1      43.417  -5.824   9.784  0.00  0.00    +0.000 C 
ATOM      7  C   UNL     1      42.436  -5.263  11.723  0.00  0.00    +0.000 C 
ATOM      8  C   UNL     1      43.540  -7.095  10.564  0.00  0.00    +0.000 C 
ENDROOT
BRANCH   5   9
ATOM      9  C   UNL     1      43.719  -2.081  12.727  0.00  0.00    +0.000 A 
ATOM     10  C   UNL     1      44.759  -2.129  13.661  0.00  0.00    +0.000 A 
ATOM     11  C   UNL     1      43.130  -0.844  12.449  0.00  0.00    +0.000 A 
ATOM     12  C   UNL     1      45.201  -0.971  14.300  0.00  0.00    +0.000 A 
ATOM     13  C   UNL     1      43.569   0.316  13.084  0.00  0.00    +0.000 A 
ATOM     14  C   UNL     1      44.605   0.252  14.010  0.00  0.00    +0.000 A 
ENDBRANCH   5   9
TORSDOF 1
ENDMDL
MODEL 4
REMARK VINA RESULT:      -4.5      3.953      5.222
REMARK  Name = 26879_Levamisole.pdbqt.pdb
REMARK  1 active torsions:
REMARK  status: ('A' for Active; 'I' for Inactive)
REMARK    1  A    between atoms: C_5  and  C_9
REMARK                            x       y       z     vdW  Elec       q    Type
REMARK                         _______ _______ _______ _____ _____    ______ ____
ROOT
ATOM      1  S   UNL     1      20.100  20.796   1.327  0.00  0.00    +0.000 S 
ATOM      2  N   UNL     1      22.897  20.552   1.540  0.00  0.00    +0.000 NA
ATOM      3  N   UNL     1      21.874  22.727   1.950  0.00  0.00    +0.000 NA
ATOM      4  C   UNL     1      23.595  21.396   2.459  0.00  0.00    +0.000 C 
ATOM      5  C   UNL     1      23.064  22.689   2.600  0.00  0.00    +0.000 C 
ATOM      6  C   UNL     1      22.205  19.422   2.105  0.00  0.00    +0.000 C 
ATOM      7  C   UNL     1      21.737  21.494   1.376  0.00  0.00    +0.000 C 
ATOM      8  C   UNL     1      20.712  19.378   2.002  0.00  0.00    +0.000 C 
ENDROOT
BRANCH   5   9
ATOM      9  C   UNL     1      23.611  23.807   3.353  0.00  0.00    +0.000 A 
ATOM     10  C   UNL     1      24.628  24.612   2.830  0.00  0.00    +0.000 A 
ATOM     11  C   UNL     1      23.125  24.096   4.631  0.00  0.00    +0.000 A 
ATOM     12  C   UNL     1      25.146  25.679   3.563  0.00  0.00    +0.000 A 
ATOM     13  C   UNL     1      23.638  25.161   5.368  0.00  0.00    +0.000 A 
ATOM     14  C   UNL     1      24.649  25.953   4.833  0.00  0.00    +0.000 A 
ENDBRANCH   5   9
TORSDOF 1
ENDMDL
MODEL 5
REMARK VINA RESULT:      -4.4     24.728     25.743
REMARK  Name = 26879_Levamisole.pdbqt.pdb
REMARK  1 active torsions:
REMARK  status: ('A' for Active; 'I' for Inactive)
REMARK    1  A    between atoms: C_5  and  C_9
REMARK                            x       y       z     vdW  Elec       q    Type
REMARK                         _______ _______ _______ _____ _____    ______ ____
ROOT
ATOM      1  S   UNL     1      21.736  -4.025  16.740  0.00  0.00    +0.000 S 
ATOM      2  N   UNL     1      21.962  -2.317  14.513  0.00  0.00    +0.000 NA
ATOM      3  N   UNL     1      23.989  -2.979  15.696  0.00  0.00    +0.000 NA
ATOM      4  C   UNL     1      23.147  -2.377  13.715  0.00  0.00    +0.000 C 
ATOM      5  C   UNL     1      24.329  -2.644  14.426  0.00  0.00    +0.000 C 
ATOM      6  C   UNL     1      20.994  -3.363  14.304  0.00  0.00    +0.000 C 
ATOM      7  C   UNL     1      22.629  -2.845  15.752  0.00  0.00    +0.000 C 
ATOM      8  C   UNL     1      20.713  -4.309  15.430  0.00  0.00    +0.000 C 
ENDROOT
BRANCH   5   9
ATOM      9  C   UNL     1      25.696  -2.646  13.927  0.00  0.00    +0.000 A 
ATOM     10  C   UNL     1      26.722  -3.305  14.611  0.00  0.00    +0.000 A 
ATOM     11  C   UNL     1      26.010  -1.975  12.742  0.00  0.00    +0.000 A 
ATOM     12  C   UNL     1      28.028  -3.297  14.123  0.00  0.00    +0.000 A 
ATOM     13  C   UNL     1      27.313  -1.963  12.250  0.00  0.00    +0.000 A 
ATOM     14  C   UNL     1      28.322  -2.624  12.941  0.00  0.00    +0.000 A 
ENDBRANCH   5   9
TORSDOF 1
ENDMDL
MODEL 6
REMARK VINA RESULT:      -4.1     35.651     36.752
REMARK  Name = 26879_Levamisole.pdbqt.pdb
REMARK  1 active torsions:
REMARK  status: ('A' for Active; 'I' for Inactive)
REMARK    1  A    between atoms: C_5  and  C_9
REMARK                            x       y       z     vdW  Elec       q    Type
REMARK                         _______ _______ _______ _____ _____    ______ ____
ROOT
ATOM      1  S   UNL     1      33.206   9.553  38.385  0.00  0.00    +0.000 S 
ATOM      2  N   UNL     1      32.170   9.126  35.802  0.00  0.00    +0.000 NA
ATOM      3  N   UNL     1      34.185  10.476  36.050  0.00  0.00    +0.000 NA
ATOM      4  C   UNL     1      33.072   9.092  34.693  0.00  0.00    +0.000 C 
ATOM      5  C   UNL     1      34.171   9.961  34.794  0.00  0.00    +0.000 C 
ATOM      6  C   UNL     1      32.111   7.941  36.618  0.00  0.00    +0.000 C 
ATOM      7  C   UNL     1      33.071   9.969  36.660  0.00  0.00    +0.000 C 
ATOM      8  C   UNL     1      32.562   8.033  38.043  0.00  0.00    +0.000 C 
ENDROOT
BRANCH   5   9
ATOM      9  C   UNL     1      35.185  10.246  33.791  0.00  0.00    +0.000 A 
ATOM     10  C   UNL     1      35.748   9.231  33.012  0.00  0.00    +0.000 A 
ATOM     11  C   UNL     1      35.623  11.559  33.591  0.00  0.00    +0.000 A 
ATOM     12  C   UNL     1      36.721   9.518  32.056  0.00  0.00    +0.000 A 
ATOM     13  C   UNL     1      36.596  11.851  32.637  0.00  0.00    +0.000 A 
ATOM     14  C   UNL     1      37.145  10.830  31.870  0.00  0.00    +0.000 A 
ENDBRANCH   5   9
TORSDOF 1
ENDMDL
MODEL 7
REMARK VINA RESULT:      -4.1     14.698     15.731
REMARK  Name = 26879_Levamisole.pdbqt.pdb
REMARK  1 active torsions:
REMARK  status: ('A' for Active; 'I' for Inactive)
REMARK    1  A    between atoms: C_5  and  C_9
REMARK                            x       y       z     vdW  Elec       q    Type
REMARK                         _______ _______ _______ _____ _____    ______ ____
ROOT
ATOM      1  S   UNL     1      25.582  10.029 -11.183  0.00  0.00    +0.000 S 
ATOM      2  N   UNL     1      24.859   9.750  -8.477  0.00  0.00    +0.000 NA
ATOM      3  N   UNL     1      27.070   9.005  -9.184  0.00  0.00    +0.000 NA
ATOM      4  C   UNL     1      25.880   9.823  -7.479  0.00  0.00    +0.000 C 
ATOM      5  C   UNL     1      27.120   9.284  -7.857  0.00  0.00    +0.000 C 
ATOM      6  C   UNL     1      24.415  11.002  -9.035  0.00  0.00    +0.000 C 
ATOM      7  C   UNL     1      25.795   9.312  -9.569  0.00  0.00    +0.000 C 
ATOM      8  C   UNL     1      24.666  11.262 -10.488  0.00  0.00    +0.000 C 
ENDROOT
BRANCH   5   9
ATOM      9  C   UNL     1      28.307   9.098  -7.035  0.00  0.00    +0.000 A 
ATOM     10  C   UNL     1      29.189   8.036  -7.256  0.00  0.00    +0.000 A 
ATOM     11  C   UNL     1      28.584   9.989  -5.994  0.00  0.00    +0.000 A 
ATOM     12  C   UNL     1      30.321   7.868  -6.460  0.00  0.00    +0.000 A 
ATOM     13  C   UNL     1      29.714   9.826  -5.195  0.00  0.00    +0.000 A 
ATOM     14  C   UNL     1      30.582   8.765  -5.429  0.00  0.00    +0.000 A 
ENDBRANCH   5   9
TORSDOF 1
ENDMDL
MODEL 8
REMARK VINA RESULT:      -4.0      2.847      5.916
REMARK  Name = 26879_Levamisole.pdbqt.pdb
REMARK  1 active torsions:
REMARK  status: ('A' for Active; 'I' for Inactive)
REMARK    1  A    between atoms: C_5  and  C_9
REMARK                            x       y       z     vdW  Elec       q    Type
REMARK                         _______ _______ _______ _____ _____    ______ ____
ROOT
ATOM      1  S   UNL     1      20.938  21.619   1.218  0.00  0.00    +0.000 S 
ATOM      2  N   UNL     1      20.160  20.945   3.838  0.00  0.00    +0.000 NA
ATOM      3  N   UNL     1      18.592  20.559   2.012  0.00  0.00    +0.000 NA
ATOM      4  C   UNL     1      19.249  19.859   4.029  0.00  0.00    +0.000 C 
ATOM      5  C   UNL     1      18.275  19.718   3.028  0.00  0.00    +0.000 C 
ATOM      6  C   UNL     1      21.530  20.593   3.566  0.00  0.00    +0.000 C 
ATOM      7  C   UNL     1      19.700  21.237   2.437  0.00  0.00    +0.000 C 
ATOM      8  C   UNL     1      22.108  20.955   2.233  0.00  0.00    +0.000 C 
ENDROOT
BRANCH   5   9
ATOM      9  C   UNL     1      17.145  18.802   2.997  0.00  0.00    +0.000 A 
ATOM     10  C   UNL     1      16.557  18.406   1.792  0.00  0.00    +0.000 A 
ATOM     11  C   UNL     1      16.618  18.299   4.191  0.00  0.00    +0.000 A 
ATOM     12  C   UNL     1      15.473  17.530   1.777  0.00  0.00    +0.000 A 
ATOM     13  C   UNL     1      15.535  17.423   4.182  0.00  0.00    +0.000 A 
ATOM     14  C   UNL     1      14.962  17.039   2.974  0.00  0.00    +0.000 A 
ENDBRANCH   5   9
TORSDOF 1
ENDMDL
MODEL 9
REMARK VINA RESULT:      -3.8     16.608     18.468
REMARK  Name = 26879_Levamisole.pdbqt.pdb
REMARK  1 active torsions:
REMARK  status: ('A' for Active; 'I' for Inactive)
REMARK    1  A    between atoms: C_5  and  C_9
REMARK                            x       y       z     vdW  Elec       q    Type
REMARK                         _______ _______ _______ _____ _____    ______ ____
ROOT
ATOM      1  S   UNL     1      35.794  11.534  -9.701  0.00  0.00    +0.000 S 
ATOM      2  N   UNL     1      35.910  11.138  -6.916  0.00  0.00    +0.000 NA
ATOM      3  N   UNL     1      33.729  11.402  -7.975  0.00  0.00    +0.000 NA
ATOM      4  C   UNL     1      34.827  10.464  -6.269  0.00  0.00    +0.000 C 
ATOM      5  C   UNL     1      33.558  10.716  -6.817  0.00  0.00    +0.000 C 
ATOM      6  C   UNL     1      36.850  10.309  -7.626  0.00  0.00    +0.000 C 
ATOM      7  C   UNL     1      35.077  11.611  -8.075  0.00  0.00    +0.000 C 
ATOM      8  C   UNL     1      36.953  10.461  -9.112  0.00  0.00    +0.000 C 
ENDROOT
BRANCH   5   9
ATOM      9  C   UNL     1      32.262  10.285  -6.315  0.00  0.00    +0.000 A 
ATOM     10  C   UNL     1      32.068   8.998  -5.804  0.00  0.00    +0.000 A 
ATOM     11  C   UNL     1      31.174  11.162  -6.342  0.00  0.00    +0.000 A 
ATOM     12  C   UNL     1      30.821   8.597  -5.329  0.00  0.00    +0.000 A 
ATOM     13  C   UNL     1      29.925  10.766  -5.869  0.00  0.00    +0.000 A 
ATOM     14  C   UNL     1      29.749   9.483  -5.362  0.00  0.00    +0.000 A 
ENDBRANCH   5   9
TORSDOF 1
ENDMDL
