MODEL 1
REMARK VINA RESULT:      -5.1      0.000      0.000
REMARK  Name = 27924_Phorbol.pdbqt.pdb
REMARK  26 active torsions:
REMARK  status: ('A' for Active; 'I' for Inactive)
REMARK    1  A    between atoms: O_1  and  C_10
REMARK    2  A    between atoms: O_1  and  C_26
REMARK    3  A    between atoms: O_2  and  C_13
REMARK    4  A    between atoms: O_2  and  C_28
REMARK    5  A    between atoms: O_3  and  C_14
REMARK    6  A    between atoms: O_4  and  C_20
REMARK    7  A    between atoms: O_7  and  C_29
REMARK    8  A    between atoms: C_11  and  C_16
REMARK    9  A    between atoms: C_11  and  C_17
REMARK   10  A    between atoms: C_15  and  C_21
REMARK   11  A    between atoms: C_22  and  C_29
REMARK   12  A    between atoms: C_26  and  C_30
REMARK   13  A    between atoms: C_27  and  C_31
REMARK   14  A    between atoms: C_28  and  C_32
REMARK   15  A    between atoms: C_32  and  C_33
REMARK   16  A    between atoms: C_33  and  C_34
REMARK   17  A    between atoms: C_34  and  C_35
REMARK   18  A    between atoms: C_35  and  C_36
REMARK   19  A    between atoms: C_36  and  C_37
REMARK   20  A    between atoms: C_37  and  C_38
REMARK   21  A    between atoms: C_38  and  C_39
REMARK   22  A    between atoms: C_39  and  C_40
REMARK   23  A    between atoms: C_40  and  C_41
REMARK   24  A    between atoms: C_41  and  C_42
REMARK   25  A    between atoms: C_42  and  C_43
REMARK   26  A    between atoms: C_43  and  C_44
REMARK                            x       y       z     vdW  Elec       q    Type
REMARK                         _______ _______ _______ _____ _____    ______ ____
ROOT
ATOM      1  O   UNL     1      15.678  -3.870  13.414  0.00  0.00    +0.000 OA
ATOM      2  C   UNL     1      22.065  -4.193  16.491  0.00  0.00    +0.000 C 
ATOM      3  C   UNL     1      23.316  -3.989  15.657  0.00  0.00    +0.000 C 
ATOM      4  C   UNL     1      22.933  -5.399  16.192  0.00  0.00    +0.000 C 
ATOM      5  C   UNL     1      20.718  -3.798  15.965  0.00  0.00    +0.000 C 
ATOM      6  C   UNL     1      23.121  -3.539  14.198  0.00  0.00    +0.000 C 
ATOM      7  C   UNL     1      20.567  -3.540  14.395  0.00  0.00    +0.000 C 
ATOM      8  C   UNL     1      21.830  -2.662  14.034  0.00  0.00    +0.000 C 
ATOM      9  C   UNL     1      23.652  -5.966  17.405  0.00  0.00    +0.000 C 
ATOM     10  C   UNL     1      22.449  -6.498  15.279  0.00  0.00    +0.000 C 
ATOM     11  C   UNL     1      19.098  -2.940  14.109  0.00  0.00    +0.000 C 
ATOM     12  C   UNL     1      19.578  -4.611  16.550  0.00  0.00    +0.000 C 
ATOM     13  C   UNL     1      17.893  -3.934  14.419  0.00  0.00    +0.000 C 
ATOM     14  C   UNL     1      21.810  -1.999  12.656  0.00  0.00    +0.000 C 
ATOM     15  C   UNL     1      18.465  -3.924  16.884  0.00  0.00    +0.000 C 
ATOM     16  C   UNL     1      17.341  -3.922  15.862  0.00  0.00    +0.000 C 
ATOM     17  C   UNL     1      18.722  -2.502  12.699  0.00  0.00    +0.000 C 
ATOM     18  C   UNL     1      16.847  -3.513  13.409  0.00  0.00    +0.000 C 
ATOM     19  C   UNL     1      17.461  -2.744  12.320  0.00  0.00    +0.000 C 
ATOM     20  C   UNL     1      16.740  -2.386  11.081  0.00  0.00    +0.000 C 
ENDROOT
BRANCH   7  21
ATOM     21  O   UNL     1      20.691  -4.749  13.635  0.00  0.00    +0.000 OA
ATOM     22  H   UNL     1      21.399  -5.293  14.047  0.00  0.00    +0.000 HD
ENDBRANCH   7  21
BRANCH  13  23
ATOM     23  O   UNL     1      18.211  -5.291  14.025  0.00  0.00    +0.000 OA
ATOM     24  H   UNL     1      17.872  -5.395  13.111  0.00  0.00    +0.000 HD
ENDBRANCH  13  23
BRANCH   3  25
ATOM     25  O   UNL     1      24.276  -3.197  16.403  0.00  0.00    +0.000 OA
BRANCH  25  27
ATOM     26  O   UNL     1      23.402  -2.192  18.211  0.00  0.00    +0.000 OA
ATOM     27  C   UNL     1      23.974  -2.090  17.128  0.00  0.00    +0.000 C 
ATOM     28  C   UNL     1      24.424  -0.752  16.622  0.00  0.00    +0.000 C 
ENDBRANCH  25  27
ENDBRANCH   3  25
BRANCH  15  29
ATOM     29  C   UNL     1      18.463  -2.757  17.837  0.00  0.00    +0.000 C 
BRANCH  29  30
ATOM     30  O   UNL     1      18.396  -3.265  19.159  0.00  0.00    +0.000 OA
ATOM     31  H   UNL     1      18.689  -2.548  19.749  0.00  0.00    +0.000 HD
ENDBRANCH  29  30
ENDBRANCH  15  29
BRANCH   6  32
ATOM     32  O   UNL     1      24.293  -2.773  13.806  0.00  0.00    +0.000 OA
BRANCH  32  34
ATOM     33  O   UNL     1      25.509  -4.408  12.885  0.00  0.00    +0.000 OA
ATOM     34  C   UNL     1      25.473  -3.294  13.402  0.00  0.00    +0.000 C 
BRANCH  34  35
ATOM     35  C   UNL     1      26.739  -2.496  13.593  0.00  0.00    +0.000 C 
BRANCH  35  36
ATOM     36  C   UNL     1      27.430  -2.841  14.907  0.00  0.00    +0.000 C 
BRANCH  36  37
ATOM     37  C   UNL     1      28.725  -3.645  14.744  0.00  0.00    +0.000 C 
BRANCH  37  38
ATOM     38  C   UNL     1      29.334  -3.587  13.337  0.00  0.00    +0.000 C 
BRANCH  38  39
ATOM     39  C   UNL     1      29.760  -4.967  12.825  0.00  0.00    +0.000 C 
BRANCH  39  40
ATOM     40  C   UNL     1      28.756  -5.597  11.856  0.00  0.00    +0.000 C 
BRANCH  40  41
ATOM     41  C   UNL     1      29.061  -7.065  11.547  0.00  0.00    +0.000 C 
BRANCH  41  42
ATOM     42  C   UNL     1      28.335  -8.043  12.476  0.00  0.00    +0.000 C 
BRANCH  42  43
ATOM     43  C   UNL     1      27.035  -7.528  13.101  0.00  0.00    +0.000 C 
BRANCH  43  44
ATOM     44  C   UNL     1      26.866  -7.807  14.598  0.00  0.00    +0.000 C 
BRANCH  44  45
ATOM     45  C   UNL     1      26.826  -6.571  15.501  0.00  0.00    +0.000 C 
BRANCH  45  46
ATOM     46  C   UNL     1      27.825  -6.562  16.660  0.00  0.00    +0.000 C 
ATOM     47  C   UNL     1      28.135  -7.947  17.204  0.00  0.00    +0.000 C 
ENDBRANCH  45  46
ENDBRANCH  44  45
ENDBRANCH  43  44
ENDBRANCH  42  43
ENDBRANCH  41  42
ENDBRANCH  40  41
ENDBRANCH  39  40
ENDBRANCH  38  39
ENDBRANCH  37  38
ENDBRANCH  36  37
ENDBRANCH  35  36
ENDBRANCH  34  35
ENDBRANCH  32  34
ENDBRANCH   6  32
TORSDOF 20
ENDMDL
MODEL 2
REMARK VINA RESULT:      -4.7     28.503     32.417
REMARK  Name = 27924_Phorbol.pdbqt.pdb
REMARK  26 active torsions:
REMARK  status: ('A' for Active; 'I' for Inactive)
REMARK    1  A    between atoms: O_1  and  C_10
REMARK    2  A    between atoms: O_1  and  C_26
REMARK    3  A    between atoms: O_2  and  C_13
REMARK    4  A    between atoms: O_2  and  C_28
REMARK    5  A    between atoms: O_3  and  C_14
REMARK    6  A    between atoms: O_4  and  C_20
REMARK    7  A    between atoms: O_7  and  C_29
REMARK    8  A    between atoms: C_11  and  C_16
REMARK    9  A    between atoms: C_11  and  C_17
REMARK   10  A    between atoms: C_15  and  C_21
REMARK   11  A    between atoms: C_22  and  C_29
REMARK   12  A    between atoms: C_26  and  C_30
REMARK   13  A    between atoms: C_27  and  C_31
REMARK   14  A    between atoms: C_28  and  C_32
REMARK   15  A    between atoms: C_32  and  C_33
REMARK   16  A    between atoms: C_33  and  C_34
REMARK   17  A    between atoms: C_34  and  C_35
REMARK   18  A    between atoms: C_35  and  C_36
REMARK   19  A    between atoms: C_36  and  C_37
REMARK   20  A    between atoms: C_37  and  C_38
REMARK   21  A    between atoms: C_38  and  C_39
REMARK   22  A    between atoms: C_39  and  C_40
REMARK   23  A    between atoms: C_40  and  C_41
REMARK   24  A    between atoms: C_41  and  C_42
REMARK   25  A    between atoms: C_42  and  C_43
REMARK   26  A    between atoms: C_43  and  C_44
REMARK                            x       y       z     vdW  Elec       q    Type
REMARK                         _______ _______ _______ _____ _____    ______ ____
ROOT
ATOM      1  O   UNL     1      23.038  26.600  32.039  0.00  0.00    +0.000 OA
ATOM      2  C   UNL     1      23.488  19.532  31.587  0.00  0.00    +0.000 C 
ATOM      3  C   UNL     1      24.670  18.810  32.205  0.00  0.00    +0.000 C 
ATOM      4  C   UNL     1      24.537  18.949  30.662  0.00  0.00    +0.000 C 
ATOM      5  C   UNL     1      23.180  20.954  31.950  0.00  0.00    +0.000 C 
ATOM      6  C   UNL     1      25.632  19.648  33.067  0.00  0.00    +0.000 C 
ATOM      7  C   UNL     1      24.318  21.812  32.671  0.00  0.00    +0.000 C 
ATOM      8  C   UNL     1      24.886  20.833  33.775  0.00  0.00    +0.000 C 
ATOM      9  C   UNL     1      24.054  17.767  29.837  0.00  0.00    +0.000 C 
ATOM     10  C   UNL     1      25.448  19.843  29.856  0.00  0.00    +0.000 C 
ATOM     11  C   UNL     1      23.687  23.221  33.135  0.00  0.00    +0.000 C 
ATOM     12  C   UNL     1      22.461  21.716  30.852  0.00  0.00    +0.000 C 
ATOM     13  C   UNL     1      23.229  24.177  31.947  0.00  0.00    +0.000 C 
ATOM     14  C   UNL     1      25.787  21.471  34.833  0.00  0.00    +0.000 C 
ATOM     15  C   UNL     1      21.450  22.519  31.247  0.00  0.00    +0.000 C 
ATOM     16  C   UNL     1      21.786  23.989  31.427  0.00  0.00    +0.000 C 
ATOM     17  C   UNL     1      24.532  24.196  33.946  0.00  0.00    +0.000 C 
ATOM     18  C   UNL     1      23.447  25.557  32.528  0.00  0.00    +0.000 C 
ATOM     19  C   UNL     1      24.359  25.496  33.675  0.00  0.00    +0.000 C 
ATOM     20  C   UNL     1      24.935  26.699  34.313  0.00  0.00    +0.000 C 
ENDROOT
BRANCH   7  21
ATOM     21  O   UNL     1      25.415  22.101  31.794  0.00  0.00    +0.000 OA
ATOM     22  H   UNL     1      25.135  22.825  31.190  0.00  0.00    +0.000 HD
ENDBRANCH   7  21
BRANCH  13  23
ATOM     23  O   UNL     1      24.161  24.129  30.838  0.00  0.00    +0.000 OA
ATOM     24  H   UNL     1      24.082  24.992  30.380  0.00  0.00    +0.000 HD
ENDBRANCH  13  23
BRANCH   3  25
ATOM     25  O   UNL     1      24.216  17.584  32.837  0.00  0.00    +0.000 OA
BRANCH  25  27
ATOM     26  O   UNL     1      22.127  16.762  32.852  0.00  0.00    +0.000 OA
ATOM     27  C   UNL     1      23.002  17.413  33.419  0.00  0.00    +0.000 C 
ATOM     28  C   UNL     1      22.778  17.962  34.796  0.00  0.00    +0.000 C 
ENDBRANCH  25  27
ENDBRANCH   3  25
BRANCH  15  29
ATOM     29  C   UNL     1      20.264  22.033  32.039  0.00  0.00    +0.000 C 
BRANCH  29  30
ATOM     30  O   UNL     1      19.690  20.936  31.349  0.00  0.00    +0.000 OA
ATOM     31  H   UNL     1      19.781  20.161  31.931  0.00  0.00    +0.000 HD
ENDBRANCH  29  30
ENDBRANCH  15  29
BRANCH   6  32
ATOM     32  O   UNL     1      26.221  18.768  34.063  0.00  0.00    +0.000 OA
BRANCH  32  34
ATOM     33  O   UNL     1      27.870  17.591  33.117  0.00  0.00    +0.000 OA
ATOM     34  C   UNL     1      27.490  18.300  34.046  0.00  0.00    +0.000 C 
BRANCH  34  35
ATOM     35  C   UNL     1      28.426  18.656  35.173  0.00  0.00    +0.000 C 
BRANCH  35  36
ATOM     36  C   UNL     1      29.191  19.943  34.885  0.00  0.00    +0.000 C 
BRANCH  36  37
ATOM     37  C   UNL     1      30.708  19.828  35.076  0.00  0.00    +0.000 C 
BRANCH  37  38
ATOM     38  C   UNL     1      31.308  20.878  36.021  0.00  0.00    +0.000 C 
BRANCH  38  39
ATOM     39  C   UNL     1      32.749  21.245  35.649  0.00  0.00    +0.000 C 
BRANCH  39  40
ATOM     40  C   UNL     1      33.577  21.750  36.834  0.00  0.00    +0.000 C 
BRANCH  40  41
ATOM     41  C   UNL     1      34.719  22.680  36.415  0.00  0.00    +0.000 C 
BRANCH  41  42
ATOM     42  C   UNL     1      35.117  22.526  34.945  0.00  0.00    +0.000 C 
BRANCH  42  43
ATOM     43  C   UNL     1      34.933  23.769  34.071  0.00  0.00    +0.000 C 
BRANCH  43  44
ATOM     44  C   UNL     1      34.221  24.949  34.741  0.00  0.00    +0.000 C 
BRANCH  44  45
ATOM     45  C   UNL     1      32.855  25.317  34.155  0.00  0.00    +0.000 C 
BRANCH  45  46
ATOM     46  C   UNL     1      31.641  24.720  34.870  0.00  0.00    +0.000 C 
ATOM     47  C   UNL     1      31.678  24.902  36.379  0.00  0.00    +0.000 C 
ENDBRANCH  45  46
ENDBRANCH  44  45
ENDBRANCH  43  44
ENDBRANCH  42  43
ENDBRANCH  41  42
ENDBRANCH  40  41
ENDBRANCH  39  40
ENDBRANCH  38  39
ENDBRANCH  37  38
ENDBRANCH  36  37
ENDBRANCH  35  36
ENDBRANCH  34  35
ENDBRANCH  32  34
ENDBRANCH   6  32
TORSDOF 20
ENDMDL
MODEL 3
REMARK VINA RESULT:      -4.4     27.975     32.000
REMARK  Name = 27924_Phorbol.pdbqt.pdb
REMARK  26 active torsions:
REMARK  status: ('A' for Active; 'I' for Inactive)
REMARK    1  A    between atoms: O_1  and  C_10
REMARK    2  A    between atoms: O_1  and  C_26
REMARK    3  A    between atoms: O_2  and  C_13
REMARK    4  A    between atoms: O_2  and  C_28
REMARK    5  A    between atoms: O_3  and  C_14
REMARK    6  A    between atoms: O_4  and  C_20
REMARK    7  A    between atoms: O_7  and  C_29
REMARK    8  A    between atoms: C_11  and  C_16
REMARK    9  A    between atoms: C_11  and  C_17
REMARK   10  A    between atoms: C_15  and  C_21
REMARK   11  A    between atoms: C_22  and  C_29
REMARK   12  A    between atoms: C_26  and  C_30
REMARK   13  A    between atoms: C_27  and  C_31
REMARK   14  A    between atoms: C_28  and  C_32
REMARK   15  A    between atoms: C_32  and  C_33
REMARK   16  A    between atoms: C_33  and  C_34
REMARK   17  A    between atoms: C_34  and  C_35
REMARK   18  A    between atoms: C_35  and  C_36
REMARK   19  A    between atoms: C_36  and  C_37
REMARK   20  A    between atoms: C_37  and  C_38
REMARK   21  A    between atoms: C_38  and  C_39
REMARK   22  A    between atoms: C_39  and  C_40
REMARK   23  A    between atoms: C_40  and  C_41
REMARK   24  A    between atoms: C_41  and  C_42
REMARK   25  A    between atoms: C_42  and  C_43
REMARK   26  A    between atoms: C_43  and  C_44
REMARK                            x       y       z     vdW  Elec       q    Type
REMARK                         _______ _______ _______ _____ _____    ______ ____
ROOT
ATOM      1  O   UNL     1      23.442  26.344  31.835  0.00  0.00    +0.000 OA
ATOM      2  C   UNL     1      23.067  19.262  31.580  0.00  0.00    +0.000 C 
ATOM      3  C   UNL     1      24.039  18.425  32.390  0.00  0.00    +0.000 C 
ATOM      4  C   UNL     1      24.167  18.522  30.843  0.00  0.00    +0.000 C 
ATOM      5  C   UNL     1      22.888  20.723  31.865  0.00  0.00    +0.000 C 
ATOM      6  C   UNL     1      24.953  19.171  33.380  0.00  0.00    +0.000 C 
ATOM      7  C   UNL     1      23.998  21.462  32.744  0.00  0.00    +0.000 C 
ATOM      8  C   UNL     1      24.260  20.463  33.940  0.00  0.00    +0.000 C 
ATOM      9  C   UNL     1      23.674  17.379  29.972  0.00  0.00    +0.000 C 
ATOM     10  C   UNL     1      25.296  19.270  30.178  0.00  0.00    +0.000 C 
ATOM     11  C   UNL     1      23.485  22.953  33.078  0.00  0.00    +0.000 C 
ATOM     12  C   UNL     1      22.449  21.526  30.655  0.00  0.00    +0.000 C 
ATOM     13  C   UNL     1      23.340  23.914  31.815  0.00  0.00    +0.000 C 
ATOM     14  C   UNL     1      25.059  21.025  35.117  0.00  0.00    +0.000 C 
ATOM     15  C   UNL     1      21.498  22.459  30.871  0.00  0.00    +0.000 C 
ATOM     16  C   UNL     1      21.983  23.883  31.077  0.00  0.00    +0.000 C 
ATOM     17  C   UNL     1      24.308  23.848  33.996  0.00  0.00    +0.000 C 
ATOM     18  C   UNL     1      23.636  25.278  32.400  0.00  0.00    +0.000 C 
ATOM     19  C   UNL     1      24.344  25.149  33.679  0.00  0.00    +0.000 C 
ATOM     20  C   UNL     1      24.959  26.296  34.379  0.00  0.00    +0.000 C 
ENDROOT
BRANCH   7  21
ATOM     21  O   UNL     1      25.245  21.584  32.047  0.00  0.00    +0.000 OA
ATOM     22  H   UNL     1      25.461  20.707  31.659  0.00  0.00    +0.000 HD
ENDBRANCH   7  21
BRANCH  13  23
ATOM     23  O   UNL     1      24.419  23.713  30.870  0.00  0.00    +0.000 OA
ATOM     24  H   UNL     1      23.996  23.435  30.031  0.00  0.00    +0.000 HD
ENDBRANCH  13  23
BRANCH   3  25
ATOM     25  O   UNL     1      23.343  17.287  32.962  0.00  0.00    +0.000 OA
BRANCH  25  27
ATOM     26  O   UNL     1      21.768  17.958  34.415  0.00  0.00    +0.000 OA
ATOM     27  C   UNL     1      22.064  17.306  33.415  0.00  0.00    +0.000 C 
ATOM     28  C   UNL     1      21.009  16.588  32.629  0.00  0.00    +0.000 C 
ENDBRANCH  25  27
ENDBRANCH   3  25
BRANCH  15  29
ATOM     29  C   UNL     1      20.152  22.149  31.472  0.00  0.00    +0.000 C 
BRANCH  29  30
ATOM     30  O   UNL     1      19.778  20.842  31.072  0.00  0.00    +0.000 OA
ATOM     31  H   UNL     1      20.160  20.700  30.188  0.00  0.00    +0.000 HD
ENDBRANCH  29  30
ENDBRANCH  15  29
BRANCH   6  32
ATOM     32  O   UNL     1      25.265  18.264  34.472  0.00  0.00    +0.000 OA
BRANCH  32  34
ATOM     33  O   UNL     1      26.705  17.128  35.752  0.00  0.00    +0.000 OA
ATOM     34  C   UNL     1      26.456  17.654  34.670  0.00  0.00    +0.000 C 
BRANCH  34  35
ATOM     35  C   UNL     1      27.470  17.628  33.553  0.00  0.00    +0.000 C 
BRANCH  35  36
ATOM     36  C   UNL     1      28.887  17.840  34.073  0.00  0.00    +0.000 C 
BRANCH  36  37
ATOM     37  C   UNL     1      29.145  19.240  34.640  0.00  0.00    +0.000 C 
BRANCH  37  38
ATOM     38  C   UNL     1      30.320  19.319  35.624  0.00  0.00    +0.000 C 
BRANCH  38  39
ATOM     39  C   UNL     1      31.239  20.512  35.345  0.00  0.00    +0.000 C 
BRANCH  39  40
ATOM     40  C   UNL     1      32.343  20.691  36.390  0.00  0.00    +0.000 C 
BRANCH  40  41
ATOM     41  C   UNL     1      32.232  22.009  37.161  0.00  0.00    +0.000 C 
BRANCH  41  42
ATOM     42  C   UNL     1      30.973  22.100  38.027  0.00  0.00    +0.000 C 
BRANCH  42  43
ATOM     43  C   UNL     1      29.951  23.161  37.608  0.00  0.00    +0.000 C 
BRANCH  43  44
ATOM     44  C   UNL     1      28.655  22.625  36.992  0.00  0.00    +0.000 C 
BRANCH  44  45
ATOM     45  C   UNL     1      27.715  23.681  36.404  0.00  0.00    +0.000 C 
BRANCH  45  46
ATOM     46  C   UNL     1      27.783  23.861  34.885  0.00  0.00    +0.000 C 
ATOM     47  C   UNL     1      28.491  22.720  34.172  0.00  0.00    +0.000 C 
ENDBRANCH  45  46
ENDBRANCH  44  45
ENDBRANCH  43  44
ENDBRANCH  42  43
ENDBRANCH  41  42
ENDBRANCH  40  41
ENDBRANCH  39  40
ENDBRANCH  38  39
ENDBRANCH  37  38
ENDBRANCH  36  37
ENDBRANCH  35  36
ENDBRANCH  34  35
ENDBRANCH  32  34
ENDBRANCH   6  32
TORSDOF 20
ENDMDL
MODEL 4
REMARK VINA RESULT:      -4.1     28.213     32.041
REMARK  Name = 27924_Phorbol.pdbqt.pdb
REMARK  26 active torsions:
REMARK  status: ('A' for Active; 'I' for Inactive)
REMARK    1  A    between atoms: O_1  and  C_10
REMARK    2  A    between atoms: O_1  and  C_26
REMARK    3  A    between atoms: O_2  and  C_13
REMARK    4  A    between atoms: O_2  and  C_28
REMARK    5  A    between atoms: O_3  and  C_14
REMARK    6  A    between atoms: O_4  and  C_20
REMARK    7  A    between atoms: O_7  and  C_29
REMARK    8  A    between atoms: C_11  and  C_16
REMARK    9  A    between atoms: C_11  and  C_17
REMARK   10  A    between atoms: C_15  and  C_21
REMARK   11  A    between atoms: C_22  and  C_29
REMARK   12  A    between atoms: C_26  and  C_30
REMARK   13  A    between atoms: C_27  and  C_31
REMARK   14  A    between atoms: C_28  and  C_32
REMARK   15  A    between atoms: C_32  and  C_33
REMARK   16  A    between atoms: C_33  and  C_34
REMARK   17  A    between atoms: C_34  and  C_35
REMARK   18  A    between atoms: C_35  and  C_36
REMARK   19  A    between atoms: C_36  and  C_37
REMARK   20  A    between atoms: C_37  and  C_38
REMARK   21  A    between atoms: C_38  and  C_39
REMARK   22  A    between atoms: C_39  and  C_40
REMARK   23  A    between atoms: C_40  and  C_41
REMARK   24  A    between atoms: C_41  and  C_42
REMARK   25  A    between atoms: C_42  and  C_43
REMARK   26  A    between atoms: C_43  and  C_44
REMARK                            x       y       z     vdW  Elec       q    Type
REMARK                         _______ _______ _______ _____ _____    ______ ____
ROOT
ATOM      1  O   UNL     1      23.612  26.659  31.753  0.00  0.00    +0.000 OA
ATOM      2  C   UNL     1      23.502  19.565  31.649  0.00  0.00    +0.000 C 
ATOM      3  C   UNL     1      24.698  18.783  32.159  0.00  0.00    +0.000 C 
ATOM      4  C   UNL     1      24.383  18.859  30.637  0.00  0.00    +0.000 C 
ATOM      5  C   UNL     1      23.343  21.021  31.966  0.00  0.00    +0.000 C 
ATOM      6  C   UNL     1      25.818  19.585  32.848  0.00  0.00    +0.000 C 
ATOM      7  C   UNL     1      24.621  21.822  32.494  0.00  0.00    +0.000 C 
ATOM      8  C   UNL     1      25.252  20.856  33.573  0.00  0.00    +0.000 C 
ATOM      9  C   UNL     1      23.718  17.681  29.946  0.00  0.00    +0.000 C 
ATOM     10  C   UNL     1      25.245  19.641  29.678  0.00  0.00    +0.000 C 
ATOM     11  C   UNL     1      24.154  23.296  32.951  0.00  0.00    +0.000 C 
ATOM     12  C   UNL     1      22.547  21.784  30.923  0.00  0.00    +0.000 C 
ATOM     13  C   UNL     1      23.618  24.227  31.775  0.00  0.00    +0.000 C 
ATOM     14  C   UNL     1      26.322  21.472  34.476  0.00  0.00    +0.000 C 
ATOM     15  C   UNL     1      21.653  22.680  31.393  0.00  0.00    +0.000 C 
ATOM     16  C   UNL     1      22.112  24.126  31.448  0.00  0.00    +0.000 C 
ATOM     17  C   UNL     1      25.161  24.241  33.596  0.00  0.00    +0.000 C 
ATOM     18  C   UNL     1      24.004  25.613  32.247  0.00  0.00    +0.000 C 
ATOM     19  C   UNL     1      25.047  25.536  33.276  0.00  0.00    +0.000 C 
ATOM     20  C   UNL     1      25.782  26.720  33.769  0.00  0.00    +0.000 C 
ENDROOT
BRANCH   7  21
ATOM     21  O   UNL     1      25.615  21.984  31.475  0.00  0.00    +0.000 OA
ATOM     22  H   UNL     1      26.248  22.674  31.777  0.00  0.00    +0.000 HD
ENDBRANCH   7  21
BRANCH  13  23
ATOM     23  O   UNL     1      24.397  24.056  30.566  0.00  0.00    +0.000 OA
ATOM     24  H   UNL     1      24.582  23.096  30.496  0.00  0.00    +0.000 HD
ENDBRANCH  13  23
BRANCH   3  25
ATOM     25  O   UNL     1      24.242  17.628  32.909  0.00  0.00    +0.000 OA
BRANCH  25  27
ATOM     26  O   UNL     1      23.147  18.276  34.758  0.00  0.00    +0.000 OA
ATOM     27  C   UNL     1      23.159  17.609  33.726  0.00  0.00    +0.000 C 
ATOM     28  C   UNL     1      21.950  16.829  33.304  0.00  0.00    +0.000 C 
ENDBRANCH  25  27
ENDBRANCH   3  25
BRANCH  15  29
ATOM     29  C   UNL     1      20.545  22.325  32.350  0.00  0.00    +0.000 C 
BRANCH  29  30
ATOM     30  O   UNL     1      19.310  22.453  31.666  0.00  0.00    +0.000 OA
ATOM     31  H   UNL     1      19.231  21.677  31.083  0.00  0.00    +0.000 HD
ENDBRANCH  29  30
ENDBRANCH  15  29
BRANCH   6  32
ATOM     32  O   UNL     1      26.465  18.711  33.813  0.00  0.00    +0.000 OA
BRANCH  32  34
ATOM     33  O   UNL     1      27.862  17.347  32.722  0.00  0.00    +0.000 OA
ATOM     34  C   UNL     1      27.673  18.124  33.655  0.00  0.00    +0.000 C 
BRANCH  34  35
ATOM     35  C   UNL     1      28.779  18.433  34.633  0.00  0.00    +0.000 C 
BRANCH  35  36
ATOM     36  C   UNL     1      28.282  18.408  36.073  0.00  0.00    +0.000 C 
BRANCH  36  37
ATOM     37  C   UNL     1      29.380  18.622  37.120  0.00  0.00    +0.000 C 
BRANCH  37  38
ATOM     38  C   UNL     1      30.281  17.401  37.354  0.00  0.00    +0.000 C 
BRANCH  38  39
ATOM     39  C   UNL     1      31.640  17.533  36.659  0.00  0.00    +0.000 C 
BRANCH  39  40
ATOM     40  C   UNL     1      32.769  16.789  37.377  0.00  0.00    +0.000 C 
BRANCH  40  41
ATOM     41  C   UNL     1      34.031  17.637  37.551  0.00  0.00    +0.000 C 
BRANCH  41  42
ATOM     42  C   UNL     1      33.739  19.132  37.711  0.00  0.00    +0.000 C 
BRANCH  42  43
ATOM     43  C   UNL     1      34.527  20.067  36.789  0.00  0.00    +0.000 C 
BRANCH  43  44
ATOM     44  C   UNL     1      35.659  20.855  37.456  0.00  0.00    +0.000 C 
BRANCH  44  45
ATOM     45  C   UNL     1      36.182  22.059  36.667  0.00  0.00    +0.000 C 
BRANCH  45  46
ATOM     46  C   UNL     1      37.647  22.428  36.909  0.00  0.00    +0.000 C 
ATOM     47  C   UNL     1      38.423  22.696  35.630  0.00  0.00    +0.000 C 
ENDBRANCH  45  46
ENDBRANCH  44  45
ENDBRANCH  43  44
ENDBRANCH  42  43
ENDBRANCH  41  42
ENDBRANCH  40  41
ENDBRANCH  39  40
ENDBRANCH  38  39
ENDBRANCH  37  38
ENDBRANCH  36  37
ENDBRANCH  35  36
ENDBRANCH  34  35
ENDBRANCH  32  34
ENDBRANCH   6  32
TORSDOF 20
ENDMDL
MODEL 5
REMARK VINA RESULT:      -4.0     29.346     32.148
REMARK  Name = 27924_Phorbol.pdbqt.pdb
REMARK  26 active torsions:
REMARK  status: ('A' for Active; 'I' for Inactive)
REMARK    1  A    between atoms: O_1  and  C_10
REMARK    2  A    between atoms: O_1  and  C_26
REMARK    3  A    between atoms: O_2  and  C_13
REMARK    4  A    between atoms: O_2  and  C_28
REMARK    5  A    between atoms: O_3  and  C_14
REMARK    6  A    between atoms: O_4  and  C_20
REMARK    7  A    between atoms: O_7  and  C_29
REMARK    8  A    between atoms: C_11  and  C_16
REMARK    9  A    between atoms: C_11  and  C_17
REMARK   10  A    between atoms: C_15  and  C_21
REMARK   11  A    between atoms: C_22  and  C_29
REMARK   12  A    between atoms: C_26  and  C_30
REMARK   13  A    between atoms: C_27  and  C_31
REMARK   14  A    between atoms: C_28  and  C_32
REMARK   15  A    between atoms: C_32  and  C_33
REMARK   16  A    between atoms: C_33  and  C_34
REMARK   17  A    between atoms: C_34  and  C_35
REMARK   18  A    between atoms: C_35  and  C_36
REMARK   19  A    between atoms: C_36  and  C_37
REMARK   20  A    between atoms: C_37  and  C_38
REMARK   21  A    between atoms: C_38  and  C_39
REMARK   22  A    between atoms: C_39  and  C_40
REMARK   23  A    between atoms: C_40  and  C_41
REMARK   24  A    between atoms: C_41  and  C_42
REMARK   25  A    between atoms: C_42  and  C_43
REMARK   26  A    between atoms: C_43  and  C_44
REMARK                            x       y       z     vdW  Elec       q    Type
REMARK                         _______ _______ _______ _____ _____    ______ ____
ROOT
ATOM      1  O   UNL     1      20.188  19.139  -3.624  0.00  0.00    +0.000 OA
ATOM      2  C   UNL     1      22.992  22.812   1.762  0.00  0.00    +0.000 C 
ATOM      3  C   UNL     1      22.654  24.282   1.931  0.00  0.00    +0.000 C 
ATOM      4  C   UNL     1      24.061  23.837   1.438  0.00  0.00    +0.000 C 
ATOM      5  C   UNL     1      22.171  21.933   0.867  0.00  0.00    +0.000 C 
ATOM      6  C   UNL     1      21.562  24.860   1.012  0.00  0.00    +0.000 C 
ATOM      7  C   UNL     1      21.205  22.630  -0.196  0.00  0.00    +0.000 C 
ATOM      8  C   UNL     1      20.495  23.774   0.631  0.00  0.00    +0.000 C 
ATOM      9  C   UNL     1      25.234  23.841   2.403  0.00  0.00    +0.000 C 
ATOM     10  C   UNL     1      24.520  24.059   0.018  0.00  0.00    +0.000 C 
ATOM     11  C   UNL     1      20.293  21.495  -0.888  0.00  0.00    +0.000 C 
ATOM     12  C   UNL     1      22.947  20.762   0.294  0.00  0.00    +0.000 C 
ATOM     13  C   UNL     1      21.090  20.441  -1.777  0.00  0.00    +0.000 C 
ATOM     14  C   UNL     1      19.286  24.430  -0.036  0.00  0.00    +0.000 C 
ATOM     15  C   UNL     1      22.304  19.575   0.267  0.00  0.00    +0.000 C 
ATOM     16  C   UNL     1      21.640  19.197  -1.045  0.00  0.00    +0.000 C 
ATOM     17  C   UNL     1      19.203  21.898  -1.873  0.00  0.00    +0.000 C 
ATOM     18  C   UNL     1      20.079  20.071  -2.841  0.00  0.00    +0.000 C 
ATOM     19  C   UNL     1      19.020  21.084  -2.921  0.00  0.00    +0.000 C 
ATOM     20  C   UNL     1      18.016  21.117  -4.005  0.00  0.00    +0.000 C 
ENDROOT
BRANCH   7  21
ATOM     21  O   UNL     1      21.935  23.288  -1.240  0.00  0.00    +0.000 OA
ATOM     22  H   UNL     1      22.441  24.027  -0.834  0.00  0.00    +0.000 HD
ENDBRANCH   7  21
BRANCH  13  23
ATOM     23  O   UNL     1      22.151  21.077  -2.530  0.00  0.00    +0.000 OA
ATOM     24  H   UNL     1      22.949  21.037  -1.962  0.00  0.00    +0.000 HD
ENDBRANCH  13  23
BRANCH   3  25
ATOM     25  O   UNL     1      22.471  24.582   3.339  0.00  0.00    +0.000 OA
BRANCH  25  27
ATOM     26  O   UNL     1      23.569  26.527   3.566  0.00  0.00    +0.000 OA
ATOM     27  C   UNL     1      23.230  25.450   4.053  0.00  0.00    +0.000 C 
ATOM     28  C   UNL     1      23.577  25.109   5.471  0.00  0.00    +0.000 C 
ENDBRANCH  25  27
ENDBRANCH   3  25
BRANCH  15  29
ATOM     29  C   UNL     1      21.720  18.919   1.491  0.00  0.00    +0.000 C 
BRANCH  29  30
ATOM     30  O   UNL     1      21.382  17.583   1.160  0.00  0.00    +0.000 OA
ATOM     31  H   UNL     1      20.499  17.611   0.749  0.00  0.00    +0.000 HD
ENDBRANCH  29  30
ENDBRANCH  15  29
BRANCH   6  32
ATOM     32  O   UNL     1      20.920  25.958   1.717  0.00  0.00    +0.000 OA
BRANCH  32  34
ATOM     33  O   UNL     1      20.328  28.105   1.927  0.00  0.00    +0.000 OA
ATOM     34  C   UNL     1      21.098  27.273   1.453  0.00  0.00    +0.000 C 
BRANCH  34  35
ATOM     35  C   UNL     1      22.246  27.702   0.574  0.00  0.00    +0.000 C 
BRANCH  35  36
ATOM     36  C   UNL     1      21.758  28.263  -0.757  0.00  0.00    +0.000 C 
BRANCH  36  37
ATOM     37  C   UNL     1      21.488  27.198  -1.825  0.00  0.00    +0.000 C 
BRANCH  37  38
ATOM     38  C   UNL     1      22.739  26.452  -2.308  0.00  0.00    +0.000 C 
BRANCH  38  39
ATOM     39  C   UNL     1      23.895  27.401  -2.640  0.00  0.00    +0.000 C 
BRANCH  39  40
ATOM     40  C   UNL     1      25.168  26.679  -3.092  0.00  0.00    +0.000 C 
BRANCH  40  41
ATOM     41  C   UNL     1      26.443  27.279  -2.494  0.00  0.00    +0.000 C 
BRANCH  41  42
ATOM     42  C   UNL     1      26.988  26.481  -1.306  0.00  0.00    +0.000 C 
BRANCH  42  43
ATOM     43  C   UNL     1      28.192  25.583  -1.603  0.00  0.00    +0.000 C 
BRANCH  43  44
ATOM     44  C   UNL     1      27.944  24.077  -1.467  0.00  0.00    +0.000 C 
BRANCH  44  45
ATOM     45  C   UNL     1      27.138  23.434  -2.599  0.00  0.00    +0.000 C 
BRANCH  45  46
ATOM     46  C   UNL     1      27.484  23.906  -4.013  0.00  0.00    +0.000 C 
ATOM     47  C   UNL     1      28.732  23.249  -4.582  0.00  0.00    +0.000 C 
ENDBRANCH  45  46
ENDBRANCH  44  45
ENDBRANCH  43  44
ENDBRANCH  42  43
ENDBRANCH  41  42
ENDBRANCH  40  41
ENDBRANCH  39  40
ENDBRANCH  38  39
ENDBRANCH  37  38
ENDBRANCH  36  37
ENDBRANCH  35  36
ENDBRANCH  34  35
ENDBRANCH  32  34
ENDBRANCH   6  32
TORSDOF 20
ENDMDL
MODEL 6
REMARK VINA RESULT:      -3.9     26.168     30.553
REMARK  Name = 27924_Phorbol.pdbqt.pdb
REMARK  26 active torsions:
REMARK  status: ('A' for Active; 'I' for Inactive)
REMARK    1  A    between atoms: O_1  and  C_10
REMARK    2  A    between atoms: O_1  and  C_26
REMARK    3  A    between atoms: O_2  and  C_13
REMARK    4  A    between atoms: O_2  and  C_28
REMARK    5  A    between atoms: O_3  and  C_14
REMARK    6  A    between atoms: O_4  and  C_20
REMARK    7  A    between atoms: O_7  and  C_29
REMARK    8  A    between atoms: C_11  and  C_16
REMARK    9  A    between atoms: C_11  and  C_17
REMARK   10  A    between atoms: C_15  and  C_21
REMARK   11  A    between atoms: C_22  and  C_29
REMARK   12  A    between atoms: C_26  and  C_30
REMARK   13  A    between atoms: C_27  and  C_31
REMARK   14  A    between atoms: C_28  and  C_32
REMARK   15  A    between atoms: C_32  and  C_33
REMARK   16  A    between atoms: C_33  and  C_34
REMARK   17  A    between atoms: C_34  and  C_35
REMARK   18  A    between atoms: C_35  and  C_36
REMARK   19  A    between atoms: C_36  and  C_37
REMARK   20  A    between atoms: C_37  and  C_38
REMARK   21  A    between atoms: C_38  and  C_39
REMARK   22  A    between atoms: C_39  and  C_40
REMARK   23  A    between atoms: C_40  and  C_41
REMARK   24  A    between atoms: C_41  and  C_42
REMARK   25  A    between atoms: C_42  and  C_43
REMARK   26  A    between atoms: C_43  and  C_44
REMARK                            x       y       z     vdW  Elec       q    Type
REMARK                         _______ _______ _______ _____ _____    ______ ____
ROOT
ATOM      1  O   UNL     1      38.372   8.775  33.046  0.00  0.00    +0.000 OA
ATOM      2  C   UNL     1      33.399   9.630  38.035  0.00  0.00    +0.000 C 
ATOM      3  C   UNL     1      32.782  10.997  38.259  0.00  0.00    +0.000 C 
ATOM      4  C   UNL     1      33.779  10.392  39.289  0.00  0.00    +0.000 C 
ATOM      5  C   UNL     1      34.180   9.334  36.790  0.00  0.00    +0.000 C 
ATOM      6  C   UNL     1      33.147  12.105  37.254  0.00  0.00    +0.000 C 
ATOM      7  C   UNL     1      34.689  10.565  35.908  0.00  0.00    +0.000 C 
ATOM      8  C   UNL     1      33.430  11.517  35.827  0.00  0.00    +0.000 C 
ATOM      9  C   UNL     1      33.255   9.778  40.575  0.00  0.00    +0.000 C 
ATOM     10  C   UNL     1      35.173  10.941  39.472  0.00  0.00    +0.000 C 
ATOM     11  C   UNL     1      35.318   9.994  34.538  0.00  0.00    +0.000 C 
ATOM     12  C   UNL     1      35.233   8.258  36.979  0.00  0.00    +0.000 C 
ATOM     13  C   UNL     1      36.639   9.122  34.716  0.00  0.00    +0.000 C 
ATOM     14  C   UNL     1      33.510  12.643  34.796  0.00  0.00    +0.000 C 
ATOM     15  C   UNL     1      35.346   7.353  35.983  0.00  0.00    +0.000 C 
ATOM     16  C   UNL     1      36.439   7.610  34.959  0.00  0.00    +0.000 C 
ATOM     17  C   UNL     1      35.787  10.964  33.461  0.00  0.00    +0.000 C 
ATOM     18  C   UNL     1      37.393   9.395  33.433  0.00  0.00    +0.000 C 
ATOM     19  C   UNL     1      36.892  10.614  32.789  0.00  0.00    +0.000 C 
ATOM     20  C   UNL     1      37.568  11.258  31.643  0.00  0.00    +0.000 C 
ENDROOT
BRANCH   7  21
ATOM     21  O   UNL     1      35.715  11.317  36.570  0.00  0.00    +0.000 OA
ATOM     22  H   UNL     1      36.055  11.986  35.936  0.00  0.00    +0.000 HD
ENDBRANCH   7  21
BRANCH  13  23
ATOM     23  O   UNL     1      37.505   9.674  35.737  0.00  0.00    +0.000 OA
ATOM     24  H   UNL     1      36.925   9.892  36.496  0.00  0.00    +0.000 HD
ENDBRANCH  13  23
BRANCH   3  25
ATOM     25  O   UNL     1      31.358  10.856  38.502  0.00  0.00    +0.000 OA
BRANCH  25  27
ATOM     26  O   UNL     1      30.407   9.921  36.696  0.00  0.00    +0.000 OA
ATOM     27  C   UNL     1      30.558   9.930  37.916  0.00  0.00    +0.000 C 
ATOM     28  C   UNL     1      29.931   8.872  38.773  0.00  0.00    +0.000 C 
ENDBRANCH  25  27
ENDBRANCH   3  25
BRANCH  15  29
ATOM     29  C   UNL     1      34.200   6.507  35.495  0.00  0.00    +0.000 C 
BRANCH  29  30
ATOM     30  O   UNL     1      34.059   6.712  34.099  0.00  0.00    +0.000 OA
ATOM     31  H   UNL     1      34.037   7.676  33.960  0.00  0.00    +0.000 HD
ENDBRANCH  29  30
ENDBRANCH  15  29
BRANCH   6  32
ATOM     32  O   UNL     1      32.033  13.038  37.193  0.00  0.00    +0.000 OA
BRANCH  32  34
ATOM     33  O   UNL     1      31.109  15.061  37.425  0.00  0.00    +0.000 OA
ATOM     34  C   UNL     1      32.033  14.296  37.689  0.00  0.00    +0.000 C 
BRANCH  34  35
ATOM     35  C   UNL     1      33.176  14.747  38.564  0.00  0.00    +0.000 C 
BRANCH  35  36
ATOM     36  C   UNL     1      32.751  14.881  40.022  0.00  0.00    +0.000 C 
BRANCH  36  37
ATOM     37  C   UNL     1      32.676  13.550  40.779  0.00  0.00    +0.000 C 
BRANCH  37  38
ATOM     38  C   UNL     1      32.208  13.675  42.235  0.00  0.00    +0.000 C 
BRANCH  38  39
ATOM     39  C   UNL     1      31.510  12.407  42.738  0.00  0.00    +0.000 C 
BRANCH  39  40
ATOM     40  C   UNL     1      29.992  12.426  42.541  0.00  0.00    +0.000 C 
BRANCH  40  41
ATOM     41  C   UNL     1      29.511  11.423  41.489  0.00  0.00    +0.000 C 
BRANCH  41  42
ATOM     42  C   UNL     1      28.572  12.041  40.448  0.00  0.00    +0.000 C 
BRANCH  42  43
ATOM     43  C   UNL     1      29.150  13.206  39.639  0.00  0.00    +0.000 C 
BRANCH  43  44
ATOM     44  C   UNL     1      28.446  14.554  39.826  0.00  0.00    +0.000 C 
BRANCH  44  45
ATOM     45  C   UNL     1      29.285  15.651  40.489  0.00  0.00    +0.000 C 
BRANCH  45  46
ATOM     46  C   UNL     1      29.190  17.038  39.851  0.00  0.00    +0.000 C 
ATOM     47  C   UNL     1      30.534  17.737  39.717  0.00  0.00    +0.000 C 
ENDBRANCH  45  46
ENDBRANCH  44  45
ENDBRANCH  43  44
ENDBRANCH  42  43
ENDBRANCH  41  42
ENDBRANCH  40  41
ENDBRANCH  39  40
ENDBRANCH  38  39
ENDBRANCH  37  38
ENDBRANCH  36  37
ENDBRANCH  35  36
ENDBRANCH  34  35
ENDBRANCH  32  34
ENDBRANCH   6  32
TORSDOF 20
ENDMDL
MODEL 7
REMARK VINA RESULT:      -3.9     26.395     29.679
REMARK  Name = 27924_Phorbol.pdbqt.pdb
REMARK  26 active torsions:
REMARK  status: ('A' for Active; 'I' for Inactive)
REMARK    1  A    between atoms: O_1  and  C_10
REMARK    2  A    between atoms: O_1  and  C_26
REMARK    3  A    between atoms: O_2  and  C_13
REMARK    4  A    between atoms: O_2  and  C_28
REMARK    5  A    between atoms: O_3  and  C_14
REMARK    6  A    between atoms: O_4  and  C_20
REMARK    7  A    between atoms: O_7  and  C_29
REMARK    8  A    between atoms: C_11  and  C_16
REMARK    9  A    between atoms: C_11  and  C_17
REMARK   10  A    between atoms: C_15  and  C_21
REMARK   11  A    between atoms: C_22  and  C_29
REMARK   12  A    between atoms: C_26  and  C_30
REMARK   13  A    between atoms: C_27  and  C_31
REMARK   14  A    between atoms: C_28  and  C_32
REMARK   15  A    between atoms: C_32  and  C_33
REMARK   16  A    between atoms: C_33  and  C_34
REMARK   17  A    between atoms: C_34  and  C_35
REMARK   18  A    between atoms: C_35  and  C_36
REMARK   19  A    between atoms: C_36  and  C_37
REMARK   20  A    between atoms: C_37  and  C_38
REMARK   21  A    between atoms: C_38  and  C_39
REMARK   22  A    between atoms: C_39  and  C_40
REMARK   23  A    between atoms: C_40  and  C_41
REMARK   24  A    between atoms: C_41  and  C_42
REMARK   25  A    between atoms: C_42  and  C_43
REMARK   26  A    between atoms: C_43  and  C_44
REMARK                            x       y       z     vdW  Elec       q    Type
REMARK                         _______ _______ _______ _____ _____    ______ ____
ROOT
ATOM      1  O   UNL     1      42.734   4.108  33.710  0.00  0.00    +0.000 OA
ATOM      2  C   UNL     1      39.073  10.068  32.513  0.00  0.00    +0.000 C 
ATOM      3  C   UNL     1      38.436  10.809  33.674  0.00  0.00    +0.000 C 
ATOM      4  C   UNL     1      37.565  10.013  32.660  0.00  0.00    +0.000 C 
ATOM      5  C   UNL     1      40.122   9.023  32.751  0.00  0.00    +0.000 C 
ATOM      6  C   UNL     1      38.777  10.316  35.092  0.00  0.00    +0.000 C 
ATOM      7  C   UNL     1      40.270   8.424  34.224  0.00  0.00    +0.000 C 
ATOM      8  C   UNL     1      40.218   9.699  35.157  0.00  0.00    +0.000 C 
ATOM      9  C   UNL     1      36.805  10.754  31.574  0.00  0.00    +0.000 C 
ATOM     10  C   UNL     1      36.867   8.729  33.039  0.00  0.00    +0.000 C 
ATOM     11  C   UNL     1      41.578   7.483  34.270  0.00  0.00    +0.000 C 
ATOM     12  C   UNL     1      40.176   7.964  31.665  0.00  0.00    +0.000 C 
ATOM     13  C   UNL     1      41.498   6.174  33.366  0.00  0.00    +0.000 C 
ATOM     14  C   UNL     1      40.637   9.480  36.611  0.00  0.00    +0.000 C 
ATOM     15  C   UNL     1      41.408   7.582  31.266  0.00  0.00    +0.000 C 
ATOM     16  C   UNL     1      41.962   6.319  31.900  0.00  0.00    +0.000 C 
ATOM     17  C   UNL     1      42.017   6.864  35.591  0.00  0.00    +0.000 C 
ATOM     18  C   UNL     1      42.349   5.187  34.136  0.00  0.00    +0.000 C 
ATOM     19  C   UNL     1      42.514   5.622  35.527  0.00  0.00    +0.000 C 
ATOM     20  C   UNL     1      43.104   4.764  36.576  0.00  0.00    +0.000 C 
ENDROOT
BRANCH   7  21
ATOM     21  O   UNL     1      39.146   7.614  34.594  0.00  0.00    +0.000 OA
ATOM     22  H   UNL     1      38.688   7.339  33.769  0.00  0.00    +0.000 HD
ENDBRANCH   7  21
BRANCH  13  23
ATOM     23  O   UNL     1      40.177   5.582  33.408  0.00  0.00    +0.000 OA
ATOM     24  H   UNL     1      40.163   5.005  34.200  0.00  0.00    +0.000 HD
ENDBRANCH  13  23
BRANCH   3  25
ATOM     25  O   UNL     1      38.594  12.239  33.484  0.00  0.00    +0.000 OA
BRANCH  25  27
ATOM     26  O   UNL     1      39.576  13.204  31.710  0.00  0.00    +0.000 OA
ATOM     27  C   UNL     1      39.655  12.830  32.879  0.00  0.00    +0.000 C 
ATOM     28  C   UNL     1      40.892  13.093  33.684  0.00  0.00    +0.000 C 
ENDBRANCH  25  27
ENDBRANCH   3  25
BRANCH  15  29
ATOM     29  C   UNL     1      42.445   8.540  30.740  0.00  0.00    +0.000 C 
BRANCH  29  30
ATOM     30  O   UNL     1      43.719   8.097  31.174  0.00  0.00    +0.000 OA
ATOM     31  H   UNL     1      44.128   8.843  31.648  0.00  0.00    +0.000 HD
ENDBRANCH  29  30
ENDBRANCH  15  29
BRANCH   6  32
ATOM     32  O   UNL     1      38.684  11.452  35.995  0.00  0.00    +0.000 OA
BRANCH  32  34
ATOM     33  O   UNL     1      37.921  11.418  38.097  0.00  0.00    +0.000 OA
ATOM     34  C   UNL     1      37.708  11.651  36.909  0.00  0.00    +0.000 C 
BRANCH  34  35
ATOM     35  C   UNL     1      36.361  12.160  36.457  0.00  0.00    +0.000 C 
BRANCH  35  36
ATOM     36  C   UNL     1      35.458  11.025  35.991  0.00  0.00    +0.000 C 
BRANCH  36  37
ATOM     37  C   UNL     1      34.057  11.042  36.613  0.00  0.00    +0.000 C 
BRANCH  37  38
ATOM     38  C   UNL     1      33.026  10.175  35.877  0.00  0.00    +0.000 C 
BRANCH  38  39
ATOM     39  C   UNL     1      33.587   9.565  34.587  0.00  0.00    +0.000 C 
BRANCH  39  40
ATOM     40  C   UNL     1      33.576   8.034  34.580  0.00  0.00    +0.000 C 
BRANCH  40  41
ATOM     41  C   UNL     1      33.446   7.428  35.980  0.00  0.00    +0.000 C 
BRANCH  41  42
ATOM     42  C   UNL     1      34.634   6.546  36.371  0.00  0.00    +0.000 C 
BRANCH  42  43
ATOM     43  C   UNL     1      36.017   7.187  36.225  0.00  0.00    +0.000 C 
BRANCH  43  44
ATOM     44  C   UNL     1      37.018   6.862  37.338  0.00  0.00    +0.000 C 
BRANCH  44  45
ATOM     45  C   UNL     1      37.531   8.063  38.138  0.00  0.00    +0.000 C 
BRANCH  45  46
ATOM     46  C   UNL     1      36.838   8.313  39.480  0.00  0.00    +0.000 C 
ATOM     47  C   UNL     1      35.526   9.070  39.352  0.00  0.00    +0.000 C 
ENDBRANCH  45  46
ENDBRANCH  44  45
ENDBRANCH  43  44
ENDBRANCH  42  43
ENDBRANCH  41  42
ENDBRANCH  40  41
ENDBRANCH  39  40
ENDBRANCH  38  39
ENDBRANCH  37  38
ENDBRANCH  36  37
ENDBRANCH  35  36
ENDBRANCH  34  35
ENDBRANCH  32  34
ENDBRANCH   6  32
TORSDOF 20
ENDMDL
MODEL 8
REMARK VINA RESULT:      -3.8     27.115     31.663
REMARK  Name = 27924_Phorbol.pdbqt.pdb
REMARK  26 active torsions:
REMARK  status: ('A' for Active; 'I' for Inactive)
REMARK    1  A    between atoms: O_1  and  C_10
REMARK    2  A    between atoms: O_1  and  C_26
REMARK    3  A    between atoms: O_2  and  C_13
REMARK    4  A    between atoms: O_2  and  C_28
REMARK    5  A    between atoms: O_3  and  C_14
REMARK    6  A    between atoms: O_4  and  C_20
REMARK    7  A    between atoms: O_7  and  C_29
REMARK    8  A    between atoms: C_11  and  C_16
REMARK    9  A    between atoms: C_11  and  C_17
REMARK   10  A    between atoms: C_15  and  C_21
REMARK   11  A    between atoms: C_22  and  C_29
REMARK   12  A    between atoms: C_26  and  C_30
REMARK   13  A    between atoms: C_27  and  C_31
REMARK   14  A    between atoms: C_28  and  C_32
REMARK   15  A    between atoms: C_32  and  C_33
REMARK   16  A    between atoms: C_33  and  C_34
REMARK   17  A    between atoms: C_34  and  C_35
REMARK   18  A    between atoms: C_35  and  C_36
REMARK   19  A    between atoms: C_36  and  C_37
REMARK   20  A    between atoms: C_37  and  C_38
REMARK   21  A    between atoms: C_38  and  C_39
REMARK   22  A    between atoms: C_39  and  C_40
REMARK   23  A    between atoms: C_40  and  C_41
REMARK   24  A    between atoms: C_41  and  C_42
REMARK   25  A    between atoms: C_42  and  C_43
REMARK   26  A    between atoms: C_43  and  C_44
REMARK                            x       y       z     vdW  Elec       q    Type
REMARK                         _______ _______ _______ _____ _____    ______ ____
ROOT
ATOM      1  O   UNL     1      27.474  17.739  37.145  0.00  0.00    +0.000 OA
ATOM      2  C   UNL     1      22.824  18.250  31.809  0.00  0.00    +0.000 C 
ATOM      3  C   UNL     1      21.338  18.322  32.107  0.00  0.00    +0.000 C 
ATOM      4  C   UNL     1      21.969  17.037  31.498  0.00  0.00    +0.000 C 
ATOM      5  C   UNL     1      23.836  18.487  32.889  0.00  0.00    +0.000 C 
ATOM      6  C   UNL     1      20.924  18.462  33.584  0.00  0.00    +0.000 C 
ATOM      7  C   UNL     1      23.349  18.418  34.409  0.00  0.00    +0.000 C 
ATOM      8  C   UNL     1      22.003  19.246  34.412  0.00  0.00    +0.000 C 
ATOM      9  C   UNL     1      21.811  16.750  30.015  0.00  0.00    +0.000 C 
ATOM     10  C   UNL     1      22.112  15.761  32.291  0.00  0.00    +0.000 C 
ATOM     11  C   UNL     1      24.557  18.901  35.362  0.00  0.00    +0.000 C 
ATOM     12  C   UNL     1      25.153  17.772  32.650  0.00  0.00    +0.000 C 
ATOM     13  C   UNL     1      25.835  17.951  35.360  0.00  0.00    +0.000 C 
ATOM     14  C   UNL     1      21.449  19.617  35.788  0.00  0.00    +0.000 C 
ATOM     15  C   UNL     1      26.273  18.476  32.924  0.00  0.00    +0.000 C 
ATOM     16  C   UNL     1      26.905  18.235  34.283  0.00  0.00    +0.000 C 
ATOM     17  C   UNL     1      24.329  19.033  36.862  0.00  0.00    +0.000 C 
ATOM     18  C   UNL     1      26.380  18.126  36.761  0.00  0.00    +0.000 C 
ATOM     19  C   UNL     1      25.352  18.679  37.650  0.00  0.00    +0.000 C 
ATOM     20  C   UNL     1      25.512  18.757  39.117  0.00  0.00    +0.000 C 
ENDROOT
BRANCH   7  21
ATOM     21  O   UNL     1      22.998  17.086  34.804  0.00  0.00    +0.000 OA
ATOM     22  H   UNL     1      22.559  17.137  35.682  0.00  0.00    +0.000 HD
ENDBRANCH   7  21
BRANCH  13  23
ATOM     23  O   UNL     1      25.457  16.553  35.321  0.00  0.00    +0.000 OA
ATOM     24  H   UNL     1      24.487  16.530  35.457  0.00  0.00    +0.000 HD
ENDBRANCH  13  23
BRANCH   3  25
ATOM     25  O   UNL     1      20.707  19.278  31.217  0.00  0.00    +0.000 OA
BRANCH  25  27
ATOM     26  O   UNL     1      21.450  21.380  31.492  0.00  0.00    +0.000 OA
ATOM     27  C   UNL     1      21.294  20.410  30.751  0.00  0.00    +0.000 C 
ATOM     28  C   UNL     1      21.821  20.426  29.348  0.00  0.00    +0.000 C 
ENDBRANCH  25  27
ENDBRANCH   3  25
BRANCH  15  29
ATOM     29  C   UNL     1      26.589  19.809  32.299  0.00  0.00    +0.000 C 
BRANCH  29  30
ATOM     30  O   UNL     1      26.590  19.650  30.891  0.00  0.00    +0.000 OA
ATOM     31  H   UNL     1      25.755  20.031  30.565  0.00  0.00    +0.000 HD
ENDBRANCH  29  30
ENDBRANCH  15  29
BRANCH   6  32
ATOM     32  O   UNL     1      19.655  19.171  33.627  0.00  0.00    +0.000 OA
BRANCH  32  34
ATOM     33  O   UNL     1      18.308  17.455  34.119  0.00  0.00    +0.000 OA
ATOM     34  C   UNL     1      18.491  18.670  34.097  0.00  0.00    +0.000 C 
BRANCH  34  35
ATOM     35  C   UNL     1      17.424  19.615  34.593  0.00  0.00    +0.000 C 
BRANCH  35  36
ATOM     36  C   UNL     1      17.434  20.930  33.822  0.00  0.00    +0.000 C 
BRANCH  36  37
ATOM     37  C   UNL     1      17.586  22.174  34.705  0.00  0.00    +0.000 C 
BRANCH  37  38
ATOM     38  C   UNL     1      19.038  22.619  34.928  0.00  0.00    +0.000 C 
BRANCH  38  39
ATOM     39  C   UNL     1      19.464  23.731  33.963  0.00  0.00    +0.000 C 
BRANCH  39  40
ATOM     40  C   UNL     1      20.925  24.159  34.132  0.00  0.00    +0.000 C 
BRANCH  40  41
ATOM     41  C   UNL     1      21.853  22.998  34.496  0.00  0.00    +0.000 C 
BRANCH  41  42
ATOM     42  C   UNL     1      22.715  23.276  35.731  0.00  0.00    +0.000 C 
BRANCH  42  43
ATOM     43  C   UNL     1      24.105  22.633  35.731  0.00  0.00    +0.000 C 
BRANCH  43  44
ATOM     44  C   UNL     1      24.616  22.161  34.366  0.00  0.00    +0.000 C 
BRANCH  44  45
ATOM     45  C   UNL     1      25.452  23.179  33.585  0.00  0.00    +0.000 C 
BRANCH  45  46
ATOM     46  C   UNL     1      24.804  23.741  32.318  0.00  0.00    +0.000 C 
ATOM     47  C   UNL     1      24.675  22.719  31.199  0.00  0.00    +0.000 C 
ENDBRANCH  45  46
ENDBRANCH  44  45
ENDBRANCH  43  44
ENDBRANCH  42  43
ENDBRANCH  41  42
ENDBRANCH  40  41
ENDBRANCH  39  40
ENDBRANCH  38  39
ENDBRANCH  37  38
ENDBRANCH  36  37
ENDBRANCH  35  36
ENDBRANCH  34  35
ENDBRANCH  32  34
ENDBRANCH   6  32
TORSDOF 20
ENDMDL
MODEL 9
REMARK VINA RESULT:      -3.7     34.849     38.911
REMARK  Name = 27924_Phorbol.pdbqt.pdb
REMARK  26 active torsions:
REMARK  status: ('A' for Active; 'I' for Inactive)
REMARK    1  A    between atoms: O_1  and  C_10
REMARK    2  A    between atoms: O_1  and  C_26
REMARK    3  A    between atoms: O_2  and  C_13
REMARK    4  A    between atoms: O_2  and  C_28
REMARK    5  A    between atoms: O_3  and  C_14
REMARK    6  A    between atoms: O_4  and  C_20
REMARK    7  A    between atoms: O_7  and  C_29
REMARK    8  A    between atoms: C_11  and  C_16
REMARK    9  A    between atoms: C_11  and  C_17
REMARK   10  A    between atoms: C_15  and  C_21
REMARK   11  A    between atoms: C_22  and  C_29
REMARK   12  A    between atoms: C_26  and  C_30
REMARK   13  A    between atoms: C_27  and  C_31
REMARK   14  A    between atoms: C_28  and  C_32
REMARK   15  A    between atoms: C_32  and  C_33
REMARK   16  A    between atoms: C_33  and  C_34
REMARK   17  A    between atoms: C_34  and  C_35
REMARK   18  A    between atoms: C_35  and  C_36
REMARK   19  A    between atoms: C_36  and  C_37
REMARK   20  A    between atoms: C_37  and  C_38
REMARK   21  A    between atoms: C_38  and  C_39
REMARK   22  A    between atoms: C_39  and  C_40
REMARK   23  A    between atoms: C_40  and  C_41
REMARK   24  A    between atoms: C_41  and  C_42
REMARK   25  A    between atoms: C_42  and  C_43
REMARK   26  A    between atoms: C_43  and  C_44
REMARK                            x       y       z     vdW  Elec       q    Type
REMARK                         _______ _______ _______ _____ _____    ______ ____
ROOT
ATOM      1  O   UNL     1      40.467  22.865  24.879  0.00  0.00    +0.000 OA
ATOM      2  C   UNL     1      41.991  27.057  30.398  0.00  0.00    +0.000 C 
ATOM      3  C   UNL     1      43.182  26.737  31.283  0.00  0.00    +0.000 C 
ATOM      4  C   UNL     1      41.728  26.517  31.790  0.00  0.00    +0.000 C 
ATOM      5  C   UNL     1      41.841  26.416  29.051  0.00  0.00    +0.000 C 
ATOM      6  C   UNL     1      44.115  25.603  30.821  0.00  0.00    +0.000 C 
ATOM      7  C   UNL     1      42.714  25.117  28.732  0.00  0.00    +0.000 C 
ATOM      8  C   UNL     1      44.156  25.494  29.256  0.00  0.00    +0.000 C 
ATOM      9  C   UNL     1      41.100  27.523  32.740  0.00  0.00    +0.000 C 
ATOM     10  C   UNL     1      41.150  25.138  31.992  0.00  0.00    +0.000 C 
ATOM     11  C   UNL     1      42.529  24.740  27.175  0.00  0.00    +0.000 C 
ATOM     12  C   UNL     1      40.398  26.294  28.598  0.00  0.00    +0.000 C 
ATOM     13  C   UNL     1      41.060  24.284  26.763  0.00  0.00    +0.000 C 
ATOM     14  C   UNL     1      45.289  24.564  28.819  0.00  0.00    +0.000 C 
ATOM     15  C   UNL     1      40.153  26.584  27.302  0.00  0.00    +0.000 C 
ATOM     16  C   UNL     1      40.081  25.405  26.349  0.00  0.00    +0.000 C 
ATOM     17  C   UNL     1      43.337  23.597  26.574  0.00  0.00    +0.000 C 
ATOM     18  C   UNL     1      41.318  23.311  25.634  0.00  0.00    +0.000 C 
ATOM     19  C   UNL     1      42.708  22.840  25.666  0.00  0.00    +0.000 C 
ATOM     20  C   UNL     1      43.201  21.724  24.832  0.00  0.00    +0.000 C 
ENDROOT
BRANCH   7  21
ATOM     21  O   UNL     1      42.295  23.982  29.501  0.00  0.00    +0.000 OA
ATOM     22  H   UNL     1      41.328  23.866  29.365  0.00  0.00    +0.000 HD
ENDBRANCH   7  21
BRANCH  13  23
ATOM     23  O   UNL     1      40.455  23.457  27.787  0.00  0.00    +0.000 OA
ATOM     24  H   UNL     1      40.389  24.019  28.587  0.00  0.00    +0.000 HD
ENDBRANCH  13  23
BRANCH   3  25
ATOM     25  O   UNL     1      43.867  27.966  31.642  0.00  0.00    +0.000 OA
BRANCH  25  27
ATOM     26  O   UNL     1      44.793  28.920  29.832  0.00  0.00    +0.000 OA
ATOM     27  C   UNL     1      44.055  29.022  30.810  0.00  0.00    +0.000 C 
ATOM     28  C   UNL     1      43.284  30.283  31.059  0.00  0.00    +0.000 C 
ENDBRANCH  25  27
ENDBRANCH   3  25
BRANCH  15  29
ATOM     29  C   UNL     1      40.510  27.901  26.664  0.00  0.00    +0.000 C 
BRANCH  29  30
ATOM     30  O   UNL     1      40.549  27.717  25.259  0.00  0.00    +0.000 OA
ATOM     31  H   UNL     1      41.488  27.711  25.004  0.00  0.00    +0.000 HD
ENDBRANCH  29  30
ENDBRANCH  15  29
BRANCH   6  32
ATOM     32  O   UNL     1      45.446  25.883  31.333  0.00  0.00    +0.000 OA
BRANCH  32  34
ATOM     33  O   UNL     1      47.228  25.042  32.391  0.00  0.00    +0.000 OA
ATOM     34  C   UNL     1      46.022  25.278  32.397  0.00  0.00    +0.000 C 
BRANCH  34  35
ATOM     35  C   UNL     1      45.172  24.898  33.583  0.00  0.00    +0.000 C 
BRANCH  35  36
ATOM     36  C   UNL     1      45.160  25.994  34.642  0.00  0.00    +0.000 C 
BRANCH  36  37
ATOM     37  C   UNL     1      43.763  26.531  34.974  0.00  0.00    +0.000 C 
BRANCH  37  38
ATOM     38  C   UNL     1      43.085  25.842  36.165  0.00  0.00    +0.000 C 
BRANCH  38  39
ATOM     39  C   UNL     1      41.695  25.300  35.816  0.00  0.00    +0.000 C 
BRANCH  39  40
ATOM     40  C   UNL     1      41.701  23.829  35.392  0.00  0.00    +0.000 C 
BRANCH  40  41
ATOM     41  C   UNL     1      40.303  23.290  35.077  0.00  0.00    +0.000 C 
BRANCH  41  42
ATOM     42  C   UNL     1      39.962  22.008  35.842  0.00  0.00    +0.000 C 
BRANCH  42  43
ATOM     43  C   UNL     1      40.031  20.710  35.031  0.00  0.00    +0.000 C 
BRANCH  43  44
ATOM     44  C   UNL     1      41.388  20.001  35.033  0.00  0.00    +0.000 C 
BRANCH  44  45
ATOM     45  C   UNL     1      42.265  20.245  33.801  0.00  0.00    +0.000 C 
BRANCH  45  46
ATOM     46  C   UNL     1      42.035  19.297  32.622  0.00  0.00    +0.000 C 
ATOM     47  C   UNL     1      42.139  17.827  32.998  0.00  0.00    +0.000 C 
ENDBRANCH  45  46
ENDBRANCH  44  45
ENDBRANCH  43  44
ENDBRANCH  42  43
ENDBRANCH  41  42
ENDBRANCH  40  41
ENDBRANCH  39  40
ENDBRANCH  38  39
ENDBRANCH  37  38
ENDBRANCH  36  37
ENDBRANCH  35  36
ENDBRANCH  34  35
ENDBRANCH  32  34
ENDBRANCH   6  32
TORSDOF 20
ENDMDL
