MODEL 1
REMARK VINA RESULT:      -3.7      0.000      0.000
REMARK  Name = 2Methylcholine.pdbqt.pdb
REMARK  3 active torsions:
REMARK  status: ('A' for Active; 'I' for Inactive)
REMARK    1  A    between atoms: C_1  and  N_2
REMARK    2  A    between atoms: C_1  and  C_6
REMARK    3  A    between atoms: C_6  and  O_8
REMARK                            x       y       z     vdW  Elec       q    Type
REMARK                         _______ _______ _______ _____ _____    ______ ____
ROOT
ATOM      1  C   UNL     1      42.386  -1.208  13.920  0.00  0.00    +0.000 C 
ENDROOT
BRANCH   1   2
ATOM      2  N   UNL     1      43.457  -2.174  13.776  0.00  0.00    +0.000 N 
ATOM      3  C   UNL     1      43.159  -3.372  14.566  0.00  0.00    +0.000 C 
ATOM      4  C   UNL     1      43.603  -2.551  12.367  0.00  0.00    +0.000 C 
ATOM      5  C   UNL     1      44.716  -1.592  14.247  0.00  0.00    +0.000 C 
ENDBRANCH   1   2
BRANCH   1   6
ATOM      6  C   UNL     1      41.341  -0.280  14.035  0.00  0.00    +0.000 C 
ATOM      7  C   UNL     1      41.318   0.730  15.119  0.00  0.00    +0.000 C 
BRANCH   6   8
ATOM      8  O   UNL     1      40.296  -0.257  13.163  0.00  0.00    +0.000 OA
ATOM      9  H   UNL     1      39.603  -0.859  13.496  0.00  0.00    +0.000 HD
ENDBRANCH   6   8
ENDBRANCH   1   6
TORSDOF 3
ENDMDL
MODEL 2
REMARK VINA RESULT:      -3.6      5.944      7.588
REMARK  Name = 2Methylcholine.pdbqt.pdb
REMARK  3 active torsions:
REMARK  status: ('A' for Active; 'I' for Inactive)
REMARK    1  A    between atoms: C_1  and  N_2
REMARK    2  A    between atoms: C_1  and  C_6
REMARK    3  A    between atoms: C_6  and  O_8
REMARK                            x       y       z     vdW  Elec       q    Type
REMARK                         _______ _______ _______ _____ _____    ______ ____
ROOT
ATOM      1  C   UNL     1      43.312  -6.760   9.684  0.00  0.00    +0.000 C 
ENDROOT
BRANCH   1   2
ATOM      2  N   UNL     1      42.394  -6.396  10.745  0.00  0.00    +0.000 N 
ATOM      3  C   UNL     1      41.043  -6.227  10.202  0.00  0.00    +0.000 C 
ATOM      4  C   UNL     1      42.373  -7.444  11.769  0.00  0.00    +0.000 C 
ATOM      5  C   UNL     1      42.823  -5.137  11.360  0.00  0.00    +0.000 C 
ENDBRANCH   1   2
BRANCH   1   6
ATOM      6  C   UNL     1      44.179  -7.126   8.644  0.00  0.00    +0.000 C 
ATOM      7  C   UNL     1      45.606  -6.725   8.648  0.00  0.00    +0.000 C 
BRANCH   6   8
ATOM      8  O   UNL     1      43.761  -7.865   7.581  0.00  0.00    +0.000 OA
ATOM      9  H   UNL     1      44.221  -8.726   7.604  0.00  0.00    +0.000 HD
ENDBRANCH   6   8
ENDBRANCH   1   6
TORSDOF 3
ENDMDL
MODEL 3
REMARK VINA RESULT:      -3.5      2.166      2.564
REMARK  Name = 2Methylcholine.pdbqt.pdb
REMARK  3 active torsions:
REMARK  status: ('A' for Active; 'I' for Inactive)
REMARK    1  A    between atoms: C_1  and  N_2
REMARK    2  A    between atoms: C_1  and  C_6
REMARK    3  A    between atoms: C_6  and  O_8
REMARK                            x       y       z     vdW  Elec       q    Type
REMARK                         _______ _______ _______ _____ _____    ______ ____
ROOT
ATOM      1  C   UNL     1      42.757  -0.234  14.013  0.00  0.00    +0.000 C 
ENDROOT
BRANCH   1   2
ATOM      2  N   UNL     1      43.979   0.416  13.582  0.00  0.00    +0.000 N 
ATOM      3  C   UNL     1      45.136  -0.227  14.213  0.00  0.00    +0.000 C 
ATOM      4  C   UNL     1      44.110   0.318  12.126  0.00  0.00    +0.000 C 
ATOM      5  C   UNL     1      43.950   1.830  13.965  0.00  0.00    +0.000 C 
ENDBRANCH   1   2
BRANCH   1   6
ATOM      6  C   UNL     1      41.587  -0.887  14.425  0.00  0.00    +0.000 C 
ATOM      7  C   UNL     1      40.360  -0.132  14.775  0.00  0.00    +0.000 C 
BRANCH   6   8
ATOM      8  O   UNL     1      41.512  -2.242  14.526  0.00  0.00    +0.000 OA
ATOM      9  H   UNL     1      40.978  -2.464  15.313  0.00  0.00    +0.000 HD
ENDBRANCH   6   8
ENDBRANCH   1   6
TORSDOF 3
ENDMDL
MODEL 4
REMARK VINA RESULT:      -3.5      4.169      5.528
REMARK  Name = 2Methylcholine.pdbqt.pdb
REMARK  3 active torsions:
REMARK  status: ('A' for Active; 'I' for Inactive)
REMARK    1  A    between atoms: C_1  and  N_2
REMARK    2  A    between atoms: C_1  and  C_6
REMARK    3  A    between atoms: C_6  and  O_8
REMARK                            x       y       z     vdW  Elec       q    Type
REMARK                         _______ _______ _______ _____ _____    ______ ____
ROOT
ATOM      1  C   UNL     1      42.340  -5.834  12.377  0.00  0.00    +0.000 C 
ENDROOT
BRANCH   1   2
ATOM      2  N   UNL     1      43.137  -4.891  13.136  0.00  0.00    +0.000 N 
ATOM      3  C   UNL     1      43.464  -3.730  12.303  0.00  0.00    +0.000 C 
ATOM      4  C   UNL     1      42.391  -4.442  14.315  0.00  0.00    +0.000 C 
ATOM      5  C   UNL     1      44.380  -5.532  13.573  0.00  0.00    +0.000 C 
ENDBRANCH   1   2
BRANCH   1   6
ATOM      6  C   UNL     1      41.549  -6.728  11.640  0.00  0.00    +0.000 C 
ATOM      7  C   UNL     1      41.074  -6.398  10.275  0.00  0.00    +0.000 C 
BRANCH   6   8
ATOM      8  O   UNL     1      41.175  -7.939  12.135  0.00  0.00    +0.000 OA
ATOM      9  H   UNL     1      40.352  -7.823  12.646  0.00  0.00    +0.000 HD
ENDBRANCH   6   8
ENDBRANCH   1   6
TORSDOF 3
ENDMDL
MODEL 5
REMARK VINA RESULT:      -3.5     30.932     31.712
REMARK  Name = 2Methylcholine.pdbqt.pdb
REMARK  3 active torsions:
REMARK  status: ('A' for Active; 'I' for Inactive)
REMARK    1  A    between atoms: C_1  and  N_2
REMARK    2  A    between atoms: C_1  and  C_6
REMARK    3  A    between atoms: C_6  and  O_8
REMARK                            x       y       z     vdW  Elec       q    Type
REMARK                         _______ _______ _______ _____ _____    ______ ____
ROOT
ATOM      1  C   UNL     1      21.634  19.503   3.011  0.00  0.00    +0.000 C 
ENDROOT
BRANCH   1   2
ATOM      2  N   UNL     1      22.100  20.764   2.468  0.00  0.00    +0.000 N 
ATOM      3  C   UNL     1      21.519  20.980   1.140  0.00  0.00    +0.000 C 
ATOM      4  C   UNL     1      21.706  21.865   3.351  0.00  0.00    +0.000 C 
ATOM      5  C   UNL     1      23.561  20.743   2.353  0.00  0.00    +0.000 C 
ENDBRANCH   1   2
BRANCH   1   6
ATOM      6  C   UNL     1      21.205  18.271   3.523  0.00  0.00    +0.000 C 
ATOM      7  C   UNL     1      20.280  18.192   4.679  0.00  0.00    +0.000 C 
BRANCH   6   8
ATOM      8  O   UNL     1      21.611  17.085   2.992  0.00  0.00    +0.000 OA
ATOM      9  H   UNL     1      21.580  16.406   3.693  0.00  0.00    +0.000 HD
ENDBRANCH   6   8
ENDBRANCH   1   6
TORSDOF 3
ENDMDL
MODEL 6
REMARK VINA RESULT:      -3.3     30.464     31.366
REMARK  Name = 2Methylcholine.pdbqt.pdb
REMARK  3 active torsions:
REMARK  status: ('A' for Active; 'I' for Inactive)
REMARK    1  A    between atoms: C_1  and  N_2
REMARK    2  A    between atoms: C_1  and  C_6
REMARK    3  A    between atoms: C_6  and  O_8
REMARK                            x       y       z     vdW  Elec       q    Type
REMARK                         _______ _______ _______ _____ _____    ______ ____
ROOT
ATOM      1  C   UNL     1      21.879  13.865  31.378  0.00  0.00    +0.000 C 
ENDROOT
BRANCH   1   2
ATOM      2  N   UNL     1      21.521  15.255  31.172  0.00  0.00    +0.000 N 
ATOM      3  C   UNL     1      20.071  15.377  30.995  0.00  0.00    +0.000 C 
ATOM      4  C   UNL     1      21.933  16.054  32.329  0.00  0.00    +0.000 C 
ATOM      5  C   UNL     1      22.194  15.766  29.974  0.00  0.00    +0.000 C 
ENDBRANCH   1   2
BRANCH   1   6
ATOM      6  C   UNL     1      22.219  12.524  31.605  0.00  0.00    +0.000 C 
ATOM      7  C   UNL     1      22.608  12.041  32.951  0.00  0.00    +0.000 C 
BRANCH   6   8
ATOM      8  O   UNL     1      22.212  11.598  30.608  0.00  0.00    +0.000 OA
ATOM      9  H   UNL     1      21.545  11.862  29.946  0.00  0.00    +0.000 HD
ENDBRANCH   6   8
ENDBRANCH   1   6
TORSDOF 3
ENDMDL
MODEL 7
REMARK VINA RESULT:      -3.1     23.176     24.471
REMARK  Name = 2Methylcholine.pdbqt.pdb
REMARK  3 active torsions:
REMARK  status: ('A' for Active; 'I' for Inactive)
REMARK    1  A    between atoms: C_1  and  N_2
REMARK    2  A    between atoms: C_1  and  C_6
REMARK    3  A    between atoms: C_6  and  O_8
REMARK                            x       y       z     vdW  Elec       q    Type
REMARK                         _______ _______ _______ _____ _____    ______ ____
ROOT
ATOM      1  C   UNL     1      24.944   0.106  31.033  0.00  0.00    +0.000 C 
ENDROOT
BRANCH   1   2
ATOM      2  N   UNL     1      25.918  -0.531  30.169  0.00  0.00    +0.000 N 
ATOM      3  C   UNL     1      26.957  -1.176  30.977  0.00  0.00    +0.000 C 
ATOM      4  C   UNL     1      25.261  -1.542  29.336  0.00  0.00    +0.000 C 
ATOM      5  C   UNL     1      26.540   0.472  29.301  0.00  0.00    +0.000 C 
ENDBRANCH   1   2
BRANCH   1   6
ATOM      6  C   UNL     1      23.982   0.710  31.855  0.00  0.00    +0.000 C 
ATOM      7  C   UNL     1      23.313  -0.040  32.944  0.00  0.00    +0.000 C 
BRANCH   6   8
ATOM      8  O   UNL     1      23.611   2.010  31.700  0.00  0.00    +0.000 OA
ATOM      9  H   UNL     1      23.555   2.422  32.583  0.00  0.00    +0.000 HD
ENDBRANCH   6   8
ENDBRANCH   1   6
TORSDOF 3
ENDMDL
MODEL 8
REMARK VINA RESULT:      -3.0     10.064     10.893
REMARK  Name = 2Methylcholine.pdbqt.pdb
REMARK  3 active torsions:
REMARK  status: ('A' for Active; 'I' for Inactive)
REMARK    1  A    between atoms: C_1  and  N_2
REMARK    2  A    between atoms: C_1  and  C_6
REMARK    3  A    between atoms: C_6  and  O_8
REMARK                            x       y       z     vdW  Elec       q    Type
REMARK                         _______ _______ _______ _____ _____    ______ ____
ROOT
ATOM      1  C   UNL     1      42.309  -1.184  24.182  0.00  0.00    +0.000 C 
ENDROOT
BRANCH   1   2
ATOM      2  N   UNL     1      42.812   0.003  24.844  0.00  0.00    +0.000 N 
ATOM      3  C   UNL     1      42.932   1.100  23.878  0.00  0.00    +0.000 C 
ATOM      4  C   UNL     1      41.895   0.405  25.915  0.00  0.00    +0.000 C 
ATOM      5  C   UNL     1      44.130  -0.272  25.421  0.00  0.00    +0.000 C 
ENDBRANCH   1   2
BRANCH   1   6
ATOM      6  C   UNL     1      41.848  -2.344  23.542  0.00  0.00    +0.000 C 
ATOM      7  C   UNL     1      40.425  -2.751  23.607  0.00  0.00    +0.000 C 
BRANCH   6   8
ATOM      8  O   UNL     1      42.678  -3.155  22.831  0.00  0.00    +0.000 OA
ATOM      9  H   UNL     1      42.192  -3.486  22.052  0.00  0.00    +0.000 HD
ENDBRANCH   6   8
ENDBRANCH   1   6
TORSDOF 3
ENDMDL
MODEL 9
REMARK VINA RESULT:      -3.0     30.198     30.887
REMARK  Name = 2Methylcholine.pdbqt.pdb
REMARK  3 active torsions:
REMARK  status: ('A' for Active; 'I' for Inactive)
REMARK    1  A    between atoms: C_1  and  N_2
REMARK    2  A    between atoms: C_1  and  C_6
REMARK    3  A    between atoms: C_6  and  O_8
REMARK                            x       y       z     vdW  Elec       q    Type
REMARK                         _______ _______ _______ _____ _____    ______ ____
ROOT
ATOM      1  C   UNL     1      22.580  12.195  32.972  0.00  0.00    +0.000 C 
ENDROOT
BRANCH   1   2
ATOM      2  N   UNL     1      22.952  11.824  34.323  0.00  0.00    +0.000 N 
ATOM      3  C   UNL     1      21.918  10.965  34.907  0.00  0.00    +0.000 C 
ATOM      4  C   UNL     1      24.226  11.100  34.309  0.00  0.00    +0.000 C 
ATOM      5  C   UNL     1      23.096  13.028  35.145  0.00  0.00    +0.000 C 
ENDBRANCH   1   2
BRANCH   1   6
ATOM      6  C   UNL     1      22.231  12.530  31.656  0.00  0.00    +0.000 C 
ATOM      7  C   UNL     1      21.880  13.919  31.277  0.00  0.00    +0.000 C 
BRANCH   6   8
ATOM      8  O   UNL     1      22.195  11.604  30.659  0.00  0.00    +0.000 OA
ATOM      9  H   UNL     1      21.614  10.871  30.940  0.00  0.00    +0.000 HD
ENDBRANCH   6   8
ENDBRANCH   1   6
TORSDOF 3
ENDMDL
