MODEL 1
REMARK VINA RESULT:      -8.4      0.000      0.000
REMARK  Name = 3035817_K252a.pdbqt.pdb
REMARK  3 active torsions:
REMARK  status: ('A' for Active; 'I' for Inactive)
REMARK    1  A    between atoms: C_3  and  O_7
REMARK    2  A    between atoms: C_3  and  C_9
REMARK    3  A    between atoms: C_9  and  O_11
REMARK                            x       y       z     vdW  Elec       q    Type
REMARK                         _______ _______ _______ _____ _____    ______ ____
ROOT
ATOM      1  O   UNL     1      12.356   6.024  31.048  0.00  0.00    +0.000 OA
ATOM      2  C   UNL     1      13.049   7.179  30.455  0.00  0.00    +0.000 C 
ATOM      3  C   UNL     1      14.063   7.644  31.587  0.00  0.00    +0.000 C 
ATOM      4  C   UNL     1      13.356   5.360  31.781  0.00  0.00    +0.000 C 
ATOM      5  C   UNL     1      14.208   6.371  32.288  0.00  0.00    +0.000 C 
ATOM      6  C   UNL     1      11.920   8.211  30.128  0.00  0.00    +0.000 C 
ATOM      7  N   UNL     1      13.722   6.685  29.236  0.00  0.00    +0.000 N 
ATOM      8  C   UNL     1      14.222   5.447  28.924  0.00  0.00    +0.000 A 
ATOM      9  C   UNL     1      14.323   4.341  29.769  0.00  0.00    +0.000 A 
ATOM     10  C   UNL     1      14.782   5.236  27.660  0.00  0.00    +0.000 A 
ATOM     11  N   UNL     1      13.961   4.331  31.081  0.00  0.00    +0.000 N 
ATOM     12  C   UNL     1      14.962   3.223  29.224  0.00  0.00    +0.000 A 
ATOM     13  C   UNL     1      14.459   3.075  31.470  0.00  0.00    +0.000 A 
ATOM     14  C   UNL     1      15.047   2.374  30.349  0.00  0.00    +0.000 A 
ATOM     15  C   UNL     1      14.421   2.489  32.745  0.00  0.00    +0.000 A 
ATOM     16  C   UNL     1      15.588   1.094  30.583  0.00  0.00    +0.000 A 
ATOM     17  C   UNL     1      15.538   0.528  31.857  0.00  0.00    +0.000 A 
ATOM     18  C   UNL     1      14.966   1.216  32.917  0.00  0.00    +0.000 A 
ATOM     19  C   UNL     1      15.513   2.990  27.947  0.00  0.00    +0.000 A 
ATOM     20  C   UNL     1      15.405   4.119  27.085  0.00  0.00    +0.000 A 
ATOM     21  C   UNL     1      16.208   1.912  27.284  0.00  0.00    +0.000 C 
ATOM     22  C   UNL     1      16.069   3.744  25.806  0.00  0.00    +0.000 C 
ATOM     23  N   UNL     1      16.481   2.477  26.032  0.00  0.00    +0.000 N 
ATOM     24  H   UNL     1      16.975   1.939  25.333  0.00  0.00    +0.000 HD
ATOM     25  O   UNL     1      16.528   0.780  27.614  0.00  0.00    +0.000 OA
ATOM     26  C   UNL     1      14.685   6.514  27.080  0.00  0.00    +0.000 A 
ATOM     27  C   UNL     1      14.071   7.388  28.054  0.00  0.00    +0.000 A 
ATOM     28  C   UNL     1      15.083   7.061  25.843  0.00  0.00    +0.000 A 
ATOM     29  C   UNL     1      13.902   8.752  27.761  0.00  0.00    +0.000 A 
ATOM     30  C   UNL     1      14.310   9.245  26.522  0.00  0.00    +0.000 A 
ATOM     31  C   UNL     1      14.886   8.414  25.574  0.00  0.00    +0.000 A 
ENDROOT
BRANCH   3  32
ATOM     32  O   UNL     1      15.350   8.063  31.109  0.00  0.00    +0.000 OA
ATOM     33  H   UNL     1      15.394   7.838  30.153  0.00  0.00    +0.000 HD
ENDBRANCH   3  32
BRANCH   3  34
ATOM     34  C   UNL     1      13.454   8.717  32.486  0.00  0.00    +0.000 C 
ATOM     35  O   UNL     1      12.599   8.420  33.325  0.00  0.00    +0.000 OA
BRANCH  34  36
ATOM     36  O   UNL     1      13.935   9.962  32.186  0.00  0.00    +0.000 OA
ATOM     37  C   UNL     1      13.061  11.049  32.321  0.00  0.00    +0.000 C 
ENDBRANCH  34  36
ENDBRANCH   3  34
TORSDOF 3
ENDMDL
MODEL 2
REMARK VINA RESULT:      -8.0     30.404     34.512
REMARK  Name = 3035817_K252a.pdbqt.pdb
REMARK  3 active torsions:
REMARK  status: ('A' for Active; 'I' for Inactive)
REMARK    1  A    between atoms: C_3  and  O_7
REMARK    2  A    between atoms: C_3  and  C_9
REMARK    3  A    between atoms: C_9  and  O_11
REMARK                            x       y       z     vdW  Elec       q    Type
REMARK                         _______ _______ _______ _____ _____    ______ ____
ROOT
ATOM      1  O   UNL     1      22.417  20.353   2.746  0.00  0.00    +0.000 OA
ATOM      2  C   UNL     1      21.563  20.268   1.550  0.00  0.00    +0.000 C 
ATOM      3  C   UNL     1      20.183  20.904   2.014  0.00  0.00    +0.000 C 
ATOM      4  C   UNL     1      22.069  21.583   3.332  0.00  0.00    +0.000 C 
ATOM      5  C   UNL     1      20.685  21.757   3.088  0.00  0.00    +0.000 C 
ATOM      6  C   UNL     1      21.493  18.744   1.204  0.00  0.00    +0.000 C 
ATOM      7  N   UNL     1      22.240  21.048   0.494  0.00  0.00    +0.000 N 
ATOM      8  C   UNL     1      23.074  22.134   0.573  0.00  0.00    +0.000 A 
ATOM      9  C   UNL     1      23.400  22.864   1.716  0.00  0.00    +0.000 A 
ATOM     10  C   UNL     1      23.619  22.663  -0.602  0.00  0.00    +0.000 A 
ATOM     11  N   UNL     1      22.902  22.625   2.959  0.00  0.00    +0.000 N 
ATOM     12  C   UNL     1      24.203  23.990   1.502  0.00  0.00    +0.000 A 
ATOM     13  C   UNL     1      23.390  23.750   3.647  0.00  0.00    +0.000 A 
ATOM     14  C   UNL     1      24.206  24.578   2.786  0.00  0.00    +0.000 A 
ATOM     15  C   UNL     1      23.182  24.096   4.993  0.00  0.00    +0.000 A 
ATOM     16  C   UNL     1      24.772  25.744   3.339  0.00  0.00    +0.000 A 
ATOM     17  C   UNL     1      24.555  26.070   4.677  0.00  0.00    +0.000 A 
ATOM     18  C   UNL     1      23.772  25.259   5.486  0.00  0.00    +0.000 A 
ATOM     19  C   UNL     1      24.774  24.523   0.329  0.00  0.00    +0.000 A 
ATOM     20  C   UNL     1      24.442  23.773  -0.836  0.00  0.00    +0.000 A 
ATOM     21  C   UNL     1      25.582  25.668  -0.020  0.00  0.00    +0.000 C 
ATOM     22  C   UNL     1      25.067  24.478  -1.989  0.00  0.00    +0.000 C 
ATOM     23  N   UNL     1      25.687  25.530  -1.410  0.00  0.00    +0.000 N 
ATOM     24  H   UNL     1      26.210  26.208  -1.946  0.00  0.00    +0.000 HD
ATOM     25  O   UNL     1      26.092  26.573   0.623  0.00  0.00    +0.000 OA
ATOM     26  C   UNL     1      23.028  21.852  -1.588  0.00  0.00    +0.000 A 
ATOM     27  C   UNL     1      22.174  20.900  -0.915  0.00  0.00    +0.000 A 
ATOM     28  C   UNL     1      23.082  21.828  -2.997  0.00  0.00    +0.000 A 
ATOM     29  C   UNL     1      21.407  19.994  -1.668  0.00  0.00    +0.000 A 
ATOM     30  C   UNL     1      21.497  20.009  -3.060  0.00  0.00    +0.000 A 
ATOM     31  C   UNL     1      22.324  20.906  -3.716  0.00  0.00    +0.000 A 
ENDROOT
BRANCH   3  32
ATOM     32  O   UNL     1      19.536  21.725   1.030  0.00  0.00    +0.000 OA
ATOM     33  H   UNL     1      18.830  21.182   0.615  0.00  0.00    +0.000 HD
ENDBRANCH   3  32
BRANCH   3  34
ATOM     34  C   UNL     1      19.219  19.844   2.540  0.00  0.00    +0.000 C 
ATOM     35  O   UNL     1      18.392  19.321   1.789  0.00  0.00    +0.000 OA
BRANCH  34  36
ATOM     36  O   UNL     1      19.380  19.635   3.883  0.00  0.00    +0.000 OA
ATOM     37  C   UNL     1      19.598  18.321   4.317  0.00  0.00    +0.000 C 
ENDBRANCH  34  36
ENDBRANCH   3  34
TORSDOF 3
ENDMDL
MODEL 3
REMARK VINA RESULT:      -7.9     32.424     36.223
REMARK  Name = 3035817_K252a.pdbqt.pdb
REMARK  3 active torsions:
REMARK  status: ('A' for Active; 'I' for Inactive)
REMARK    1  A    between atoms: C_3  and  O_7
REMARK    2  A    between atoms: C_3  and  C_9
REMARK    3  A    between atoms: C_9  and  O_11
REMARK                            x       y       z     vdW  Elec       q    Type
REMARK                         _______ _______ _______ _____ _____    ______ ____
ROOT
ATOM      1  O   UNL     1      23.025  23.173   0.361  0.00  0.00    +0.000 OA
ATOM      2  C   UNL     1      23.119  23.040   1.824  0.00  0.00    +0.000 C 
ATOM      3  C   UNL     1      23.970  21.715   2.038  0.00  0.00    +0.000 C 
ATOM      4  C   UNL     1      24.281  22.746  -0.106  0.00  0.00    +0.000 C 
ATOM      5  C   UNL     1      24.696  21.714   0.770  0.00  0.00    +0.000 C 
ATOM      6  C   UNL     1      21.639  22.950   2.323  0.00  0.00    +0.000 C 
ATOM      7  N   UNL     1      23.799  24.256   2.314  0.00  0.00    +0.000 N 
ATOM      8  C   UNL     1      24.724  25.072   1.715  0.00  0.00    +0.000 A 
ATOM      9  C   UNL     1      25.357  24.870   0.488  0.00  0.00    +0.000 A 
ATOM     10  C   UNL     1      25.182  26.203   2.400  0.00  0.00    +0.000 A 
ATOM     11  N   UNL     1      25.174  23.784  -0.311  0.00  0.00    +0.000 N 
ATOM     12  C   UNL     1      26.334  25.814   0.152  0.00  0.00    +0.000 A 
ATOM     13  C   UNL     1      26.180  24.003  -1.269  0.00  0.00    +0.000 A 
ATOM     14  C   UNL     1      26.878  25.246  -1.021  0.00  0.00    +0.000 A 
ATOM     15  C   UNL     1      26.521  23.191  -2.363  0.00  0.00    +0.000 A 
ATOM     16  C   UNL     1      27.916  25.605  -1.904  0.00  0.00    +0.000 A 
ATOM     17  C   UNL     1      28.239  24.787  -2.986  0.00  0.00    +0.000 A 
ATOM     18  C   UNL     1      27.553  23.601  -3.207  0.00  0.00    +0.000 A 
ATOM     19  C   UNL     1      26.791  26.966   0.822  0.00  0.00    +0.000 A 
ATOM     20  C   UNL     1      26.140  27.172   2.073  0.00  0.00    +0.000 A 
ATOM     21  C   UNL     1      27.789  27.985   0.598  0.00  0.00    +0.000 C 
ATOM     22  C   UNL     1      26.757  28.383   2.680  0.00  0.00    +0.000 C 
ATOM     23  N   UNL     1      27.672  28.759   1.760  0.00  0.00    +0.000 N 
ATOM     24  H   UNL     1      28.264  29.568   1.888  0.00  0.00    +0.000 HD
ATOM     25  O   UNL     1      28.577  28.216  -0.307  0.00  0.00    +0.000 OA
ATOM     26  C   UNL     1      24.510  26.090   3.631  0.00  0.00    +0.000 A 
ATOM     27  C   UNL     1      23.702  24.893   3.577  0.00  0.00    +0.000 A 
ATOM     28  C   UNL     1      24.515  26.846   4.821  0.00  0.00    +0.000 A 
ATOM     29  C   UNL     1      22.960  24.499   4.705  0.00  0.00    +0.000 A 
ATOM     30  C   UNL     1      22.996  25.282   5.859  0.00  0.00    +0.000 A 
ATOM     31  C   UNL     1      23.755  26.440   5.917  0.00  0.00    +0.000 A 
ENDROOT
BRANCH   3  32
ATOM     32  O   UNL     1      24.915  21.772   3.116  0.00  0.00    +0.000 OA
ATOM     33  H   UNL     1      24.538  22.365   3.803  0.00  0.00    +0.000 HD
ENDBRANCH   3  32
BRANCH   3  34
ATOM     34  C   UNL     1      23.077  20.484   2.177  0.00  0.00    +0.000 C 
ATOM     35  O   UNL     1      22.627  20.159   3.278  0.00  0.00    +0.000 OA
BRANCH  34  36
ATOM     36  O   UNL     1      22.925  19.832   0.984  0.00  0.00    +0.000 OA
ATOM     37  C   UNL     1      21.619  19.606   0.527  0.00  0.00    +0.000 C 
ENDBRANCH  34  36
ENDBRANCH   3  34
TORSDOF 3
ENDMDL
MODEL 4
REMARK VINA RESULT:      -7.9      2.224      5.478
REMARK  Name = 3035817_K252a.pdbqt.pdb
REMARK  3 active torsions:
REMARK  status: ('A' for Active; 'I' for Inactive)
REMARK    1  A    between atoms: C_3  and  O_7
REMARK    2  A    between atoms: C_3  and  C_9
REMARK    3  A    between atoms: C_9  and  O_11
REMARK                            x       y       z     vdW  Elec       q    Type
REMARK                         _______ _______ _______ _____ _____    ______ ____
ROOT
ATOM      1  O   UNL     1      12.961   3.441  30.911  0.00  0.00    +0.000 OA
ATOM      2  C   UNL     1      13.465   4.335  31.966  0.00  0.00    +0.000 C 
ATOM      3  C   UNL     1      14.883   3.725  32.344  0.00  0.00    +0.000 C 
ATOM      4  C   UNL     1      14.103   3.117  30.158  0.00  0.00    +0.000 C 
ATOM      5  C   UNL     1      15.176   3.054  31.080  0.00  0.00    +0.000 C 
ATOM      6  C   UNL     1      12.400   4.261  33.110  0.00  0.00    +0.000 C 
ATOM      7  N   UNL     1      13.549   5.684  31.371  0.00  0.00    +0.000 N 
ATOM      8  C   UNL     1      13.767   6.084  30.077  0.00  0.00    +0.000 A 
ATOM      9  C   UNL     1      14.092   5.274  28.988  0.00  0.00    +0.000 A 
ATOM     10  C   UNL     1      13.756   7.449  29.774  0.00  0.00    +0.000 A 
ATOM     11  N   UNL     1      14.282   3.928  29.051  0.00  0.00    +0.000 N 
ATOM     12  C   UNL     1      14.355   5.950  27.792  0.00  0.00    +0.000 A 
ATOM     13  C   UNL     1      14.775   3.682  27.757  0.00  0.00    +0.000 A 
ATOM     14  C   UNL     1      14.801   4.894  26.967  0.00  0.00    +0.000 A 
ATOM     15  C   UNL     1      15.192   2.458  27.211  0.00  0.00    +0.000 A 
ATOM     16  C   UNL     1      15.270   4.806  25.641  0.00  0.00    +0.000 A 
ATOM     17  C   UNL     1      15.678   3.580  25.116  0.00  0.00    +0.000 A 
ATOM     18  C   UNL     1      15.640   2.430  25.890  0.00  0.00    +0.000 A 
ATOM     19  C   UNL     1      14.329   7.322  27.468  0.00  0.00    +0.000 A 
ATOM     20  C   UNL     1      13.993   8.146  28.581  0.00  0.00    +0.000 A 
ATOM     21  C   UNL     1      14.600   8.130  26.303  0.00  0.00    +0.000 C 
ATOM     22  C   UNL     1      14.056   9.554  28.102  0.00  0.00    +0.000 C 
ATOM     23  N   UNL     1      14.405   9.424  26.803  0.00  0.00    +0.000 N 
ATOM     24  H   UNL     1      14.528  10.223  26.197  0.00  0.00    +0.000 HD
ATOM     25  O   UNL     1      14.919   7.878  25.151  0.00  0.00    +0.000 OA
ATOM     26  C   UNL     1      13.556   8.028  31.040  0.00  0.00    +0.000 A 
ATOM     27  C   UNL     1      13.463   6.952  32.001  0.00  0.00    +0.000 A 
ATOM     28  C   UNL     1      13.478   9.355  31.508  0.00  0.00    +0.000 A 
ATOM     29  C   UNL     1      13.318   7.245  33.368  0.00  0.00    +0.000 A 
ATOM     30  C   UNL     1      13.245   8.576  33.781  0.00  0.00    +0.000 A 
ATOM     31  C   UNL     1      13.316   9.615  32.868  0.00  0.00    +0.000 A 
ENDROOT
BRANCH   3  32
ATOM     32  O   UNL     1      15.907   4.697  32.604  0.00  0.00    +0.000 OA
ATOM     33  H   UNL     1      16.388   4.406  33.410  0.00  0.00    +0.000 HD
ENDBRANCH   3  32
BRANCH   3  34
ATOM     34  C   UNL     1      14.784   2.733  33.500  0.00  0.00    +0.000 C 
ATOM     35  O   UNL     1      15.072   3.079  34.649  0.00  0.00    +0.000 OA
BRANCH  34  36
ATOM     36  O   UNL     1      14.409   1.490  33.069  0.00  0.00    +0.000 OA
ATOM     37  C   UNL     1      13.460   0.795  33.830  0.00  0.00    +0.000 C 
ENDBRANCH  34  36
ENDBRANCH   3  34
TORSDOF 3
ENDMDL
MODEL 5
REMARK VINA RESULT:      -7.6     31.070     34.888
REMARK  Name = 3035817_K252a.pdbqt.pdb
REMARK  3 active torsions:
REMARK  status: ('A' for Active; 'I' for Inactive)
REMARK    1  A    between atoms: C_3  and  O_7
REMARK    2  A    between atoms: C_3  and  C_9
REMARK    3  A    between atoms: C_9  and  O_11
REMARK                            x       y       z     vdW  Elec       q    Type
REMARK                         _______ _______ _______ _____ _____    ______ ____
ROOT
ATOM      1  O   UNL     1      22.371  24.579   2.419  0.00  0.00    +0.000 OA
ATOM      2  C   UNL     1      23.599  25.007   1.731  0.00  0.00    +0.000 C 
ATOM      3  C   UNL     1      24.768  24.555   2.708  0.00  0.00    +0.000 C 
ATOM      4  C   UNL     1      22.715  23.350   3.008  0.00  0.00    +0.000 C 
ATOM      5  C   UNL     1      24.075  23.462   3.387  0.00  0.00    +0.000 C 
ATOM      6  C   UNL     1      23.456  26.556   1.561  0.00  0.00    +0.000 C 
ATOM      7  N   UNL     1      23.620  24.305   0.431  0.00  0.00    +0.000 N 
ATOM      8  C   UNL     1      23.100  23.092   0.057  0.00  0.00    +0.000 A 
ATOM      9  C   UNL     1      22.505  22.139   0.884  0.00  0.00    +0.000 A 
ATOM     10  C   UNL     1      23.228  22.676  -1.273  0.00  0.00    +0.000 A 
ATOM     11  N   UNL     1      22.374  22.254   2.233  0.00  0.00    +0.000 N 
ATOM     12  C   UNL     1      22.144  20.940   0.258  0.00  0.00    +0.000 A 
ATOM     13  C   UNL     1      21.915  20.964   2.553  0.00  0.00    +0.000 A 
ATOM     14  C   UNL     1      21.743  20.159   1.364  0.00  0.00    +0.000 A 
ATOM     15  C   UNL     1      21.620  20.444   3.824  0.00  0.00    +0.000 A 
ATOM     16  C   UNL     1      21.282  18.837   1.525  0.00  0.00    +0.000 A 
ATOM     17  C   UNL     1      20.993  18.339   2.795  0.00  0.00    +0.000 A 
ATOM     18  C   UNL     1      21.162  19.130   3.922  0.00  0.00    +0.000 A 
ATOM     19  C   UNL     1      22.249  20.515  -1.082  0.00  0.00    +0.000 A 
ATOM     20  C   UNL     1      22.854  21.493  -1.925  0.00  0.00    +0.000 A 
ATOM     21  C   UNL     1      21.944  19.320  -1.832  0.00  0.00    +0.000 C 
ATOM     22  C   UNL     1      22.942  20.888  -3.282  0.00  0.00    +0.000 C 
ATOM     23  N   UNL     1      22.397  19.664  -3.112  0.00  0.00    +0.000 N 
ATOM     24  H   UNL     1      22.312  19.002  -3.871  0.00  0.00    +0.000 HD
ATOM     25  O   UNL     1      21.435  18.247  -1.546  0.00  0.00    +0.000 OA
ATOM     26  C   UNL     1      23.972  23.728  -1.837  0.00  0.00    +0.000 A 
ATOM     27  C   UNL     1      24.228  24.691  -0.790  0.00  0.00    +0.000 A 
ATOM     28  C   UNL     1      24.503  23.973  -3.120  0.00  0.00    +0.000 A 
ATOM     29  C   UNL     1      25.009  25.828  -1.062  0.00  0.00    +0.000 A 
ATOM     30  C   UNL     1      25.511  26.026  -2.348  0.00  0.00    +0.000 A 
ATOM     31  C   UNL     1      25.258  25.118  -3.364  0.00  0.00    +0.000 A 
ENDROOT
BRANCH   3  32
ATOM     32  O   UNL     1      25.933  24.032   2.053  0.00  0.00    +0.000 OA
ATOM     33  H   UNL     1      26.215  23.233   2.551  0.00  0.00    +0.000 HD
ENDBRANCH   3  32
BRANCH   3  34
ATOM     34  C   UNL     1      25.156  25.666   3.679  0.00  0.00    +0.000 C 
ATOM     35  O   UNL     1      26.114  26.404   3.436  0.00  0.00    +0.000 OA
BRANCH  34  36
ATOM     36  O   UNL     1      24.364  25.663   4.794  0.00  0.00    +0.000 OA
ATOM     37  C   UNL     1      23.969  26.903   5.316  0.00  0.00    +0.000 C 
ENDBRANCH  34  36
ENDBRANCH   3  34
TORSDOF 3
ENDMDL
MODEL 6
REMARK VINA RESULT:      -7.4     32.706     35.922
REMARK  Name = 3035817_K252a.pdbqt.pdb
REMARK  3 active torsions:
REMARK  status: ('A' for Active; 'I' for Inactive)
REMARK    1  A    between atoms: C_3  and  O_7
REMARK    2  A    between atoms: C_3  and  C_9
REMARK    3  A    between atoms: C_9  and  O_11
REMARK                            x       y       z     vdW  Elec       q    Type
REMARK                         _______ _______ _______ _____ _____    ______ ____
ROOT
ATOM      1  O   UNL     1      24.591  22.569   2.865  0.00  0.00    +0.000 OA
ATOM      2  C   UNL     1      24.190  22.560   1.449  0.00  0.00    +0.000 C 
ATOM      3  C   UNL     1      22.602  22.580   1.497  0.00  0.00    +0.000 C 
ATOM      4  C   UNL     1      23.654  23.415   3.484  0.00  0.00    +0.000 C 
ATOM      5  C   UNL     1      22.430  23.212   2.803  0.00  0.00    +0.000 C 
ATOM      6  C   UNL     1      24.807  21.250   0.857  0.00  0.00    +0.000 C 
ATOM      7  N   UNL     1      24.771  23.773   0.840  0.00  0.00    +0.000 N 
ATOM      8  C   UNL     1      25.070  24.997   1.382  0.00  0.00    +0.000 A 
ATOM      9  C   UNL     1      24.771  25.443   2.670  0.00  0.00    +0.000 A 
ATOM     10  C   UNL     1      25.663  25.974   0.576  0.00  0.00    +0.000 A 
ATOM     11  N   UNL     1      24.089  24.724   3.603  0.00  0.00    +0.000 N 
ATOM     12  C   UNL     1      25.105  26.775   2.939  0.00  0.00    +0.000 A 
ATOM     13  C   UNL     1      23.905  25.706   4.592  0.00  0.00    +0.000 A 
ATOM     14  C   UNL     1      24.538  26.952   4.220  0.00  0.00    +0.000 A 
ATOM     15  C   UNL     1      23.227  25.581   5.816  0.00  0.00    +0.000 A 
ATOM     16  C   UNL     1      24.442  28.034   5.118  0.00  0.00    +0.000 A 
ATOM     17  C   UNL     1      23.767  27.889   6.329  0.00  0.00    +0.000 A 
ATOM     18  C   UNL     1      23.169  26.684   6.668  0.00  0.00    +0.000 A 
ATOM     19  C   UNL     1      25.720  27.764   2.144  0.00  0.00    +0.000 A 
ATOM     20  C   UNL     1      26.027  27.304   0.830  0.00  0.00    +0.000 A 
ATOM     21  C   UNL     1      26.087  29.152   2.293  0.00  0.00    +0.000 C 
ATOM     22  C   UNL     1      26.618  28.460   0.102  0.00  0.00    +0.000 C 
ATOM     23  N   UNL     1      26.606  29.447   1.025  0.00  0.00    +0.000 N 
ATOM     24  H   UNL     1      26.952  30.375   0.825  0.00  0.00    +0.000 HD
ATOM     25  O   UNL     1      26.018  29.954   3.212  0.00  0.00    +0.000 OA
ATOM     26  C   UNL     1      25.717  25.330  -0.672  0.00  0.00    +0.000 A 
ATOM     27  C   UNL     1      25.147  24.011  -0.507  0.00  0.00    +0.000 A 
ATOM     28  C   UNL     1      26.152  25.718  -1.956  0.00  0.00    +0.000 A 
ATOM     29  C   UNL     1      25.020  23.160  -1.618  0.00  0.00    +0.000 A 
ATOM     30  C   UNL     1      25.467  23.590  -2.868  0.00  0.00    +0.000 A 
ATOM     31  C   UNL     1      26.029  24.845  -3.036  0.00  0.00    +0.000 A 
ENDROOT
BRANCH   3  32
ATOM     32  O   UNL     1      21.979  23.400   0.497  0.00  0.00    +0.000 OA
ATOM     33  H   UNL     1      21.074  23.613   0.815  0.00  0.00    +0.000 HD
ENDBRANCH   3  32
BRANCH   3  34
ATOM     34  C   UNL     1      22.017  21.170   1.471  0.00  0.00    +0.000 C 
ATOM     35  O   UNL     1      21.999  20.481   2.494  0.00  0.00    +0.000 OA
BRANCH  34  36
ATOM     36  O   UNL     1      21.605  20.816   0.216  0.00  0.00    +0.000 OA
ATOM     37  C   UNL     1      21.843  19.499  -0.201  0.00  0.00    +0.000 C 
ENDBRANCH  34  36
ENDBRANCH   3  34
TORSDOF 3
ENDMDL
MODEL 7
REMARK VINA RESULT:      -7.3      2.170      5.639
REMARK  Name = 3035817_K252a.pdbqt.pdb
REMARK  3 active torsions:
REMARK  status: ('A' for Active; 'I' for Inactive)
REMARK    1  A    between atoms: C_3  and  O_7
REMARK    2  A    between atoms: C_3  and  C_9
REMARK    3  A    between atoms: C_9  and  O_11
REMARK                            x       y       z     vdW  Elec       q    Type
REMARK                         _______ _______ _______ _____ _____    ______ ____
ROOT
ATOM      1  O   UNL     1      15.041   8.859  32.254  0.00  0.00    +0.000 OA
ATOM      2  C   UNL     1      14.031   8.329  33.184  0.00  0.00    +0.000 C 
ATOM      3  C   UNL     1      12.785   9.297  32.993  0.00  0.00    +0.000 C 
ATOM      4  C   UNL     1      14.299   9.267  31.132  0.00  0.00    +0.000 C 
ATOM      5  C   UNL     1      13.064   9.747  31.632  0.00  0.00    +0.000 C 
ATOM      6  C   UNL     1      14.697   8.397  34.597  0.00  0.00    +0.000 C 
ATOM      7  N   UNL     1      13.760   6.939  32.763  0.00  0.00    +0.000 N 
ATOM      8  C   UNL     1      13.827   6.344  31.529  0.00  0.00    +0.000 A 
ATOM      9  C   UNL     1      14.063   6.969  30.304  0.00  0.00    +0.000 A 
ATOM     10  C   UNL     1      13.554   4.977  31.415  0.00  0.00    +0.000 A 
ATOM     11  N   UNL     1      14.236   8.308  30.136  0.00  0.00    +0.000 N 
ATOM     12  C   UNL     1      13.985   6.139  29.180  0.00  0.00    +0.000 A 
ATOM     13  C   UNL     1      14.224   8.389  28.732  0.00  0.00    +0.000 A 
ATOM     14  C   UNL     1      14.100   7.078  28.132  0.00  0.00    +0.000 A 
ATOM     15  C   UNL     1      14.331   9.539  27.933  0.00  0.00    +0.000 A 
ATOM     16  C   UNL     1      14.078   6.998  26.725  0.00  0.00    +0.000 A 
ATOM     17  C   UNL     1      14.188   8.151  25.949  0.00  0.00    +0.000 A 
ATOM     18  C   UNL     1      14.310   9.397  26.546  0.00  0.00    +0.000 A 
ATOM     19  C   UNL     1      13.730   4.758  29.052  0.00  0.00    +0.000 A 
ATOM     20  C   UNL     1      13.493   4.123  30.306  0.00  0.00    +0.000 A 
ATOM     21  C   UNL     1      13.600   3.810  27.971  0.00  0.00    +0.000 C 
ATOM     22  C   UNL     1      13.192   2.695  30.008  0.00  0.00    +0.000 C 
ATOM     23  N   UNL     1      13.284   2.633  28.662  0.00  0.00    +0.000 N 
ATOM     24  H   UNL     1      13.129   1.775  28.151  0.00  0.00    +0.000 HD
ATOM     25  O   UNL     1      13.710   3.889  26.757  0.00  0.00    +0.000 OA
ATOM     26  C   UNL     1      13.214   4.636  32.737  0.00  0.00    +0.000 A 
ATOM     27  C   UNL     1      13.313   5.837  33.535  0.00  0.00    +0.000 A 
ATOM     28  C   UNL     1      12.790   3.445  33.363  0.00  0.00    +0.000 A 
ATOM     29  C   UNL     1      12.970   5.800  34.898  0.00  0.00    +0.000 A 
ATOM     30  C   UNL     1      12.558   4.597  35.471  0.00  0.00    +0.000 A 
ATOM     31  C   UNL     1      12.474   3.436  34.720  0.00  0.00    +0.000 A 
ENDROOT
BRANCH   3  32
ATOM     32  O   UNL     1      11.506   8.645  33.015  0.00  0.00    +0.000 OA
ATOM     33  H   UNL     1      10.865   9.243  32.573  0.00  0.00    +0.000 HD
ENDBRANCH   3  32
BRANCH   3  34
ATOM     34  C   UNL     1      12.810  10.455  33.987  0.00  0.00    +0.000 C 
ATOM     35  O   UNL     1      12.164  10.395  35.036  0.00  0.00    +0.000 OA
BRANCH  34  36
ATOM     36  O   UNL     1      13.560  11.501  33.525  0.00  0.00    +0.000 OA
ATOM     37  C   UNL     1      13.266  12.781  34.015  0.00  0.00    +0.000 C 
ENDBRANCH  34  36
ENDBRANCH   3  34
TORSDOF 3
ENDMDL
MODEL 8
REMARK VINA RESULT:      -7.2     29.732     33.713
REMARK  Name = 3035817_K252a.pdbqt.pdb
REMARK  3 active torsions:
REMARK  status: ('A' for Active; 'I' for Inactive)
REMARK    1  A    between atoms: C_3  and  O_7
REMARK    2  A    between atoms: C_3  and  C_9
REMARK    3  A    between atoms: C_9  and  O_11
REMARK                            x       y       z     vdW  Elec       q    Type
REMARK                         _______ _______ _______ _____ _____    ______ ____
ROOT
ATOM      1  O   UNL     1      21.313  22.698   1.661  0.00  0.00    +0.000 OA
ATOM      2  C   UNL     1      21.960  22.144   0.461  0.00  0.00    +0.000 C 
ATOM      3  C   UNL     1      22.860  20.959   1.019  0.00  0.00    +0.000 C 
ATOM      4  C   UNL     1      21.041  21.572   2.458  0.00  0.00    +0.000 C 
ATOM      5  C   UNL     1      22.107  20.667   2.237  0.00  0.00    +0.000 C 
ATOM      6  C   UNL     1      22.762  23.334  -0.160  0.00  0.00    +0.000 C 
ATOM      7  N   UNL     1      20.873  21.682  -0.428  0.00  0.00    +0.000 N 
ATOM      8  C   UNL     1      19.615  21.217  -0.143  0.00  0.00    +0.000 A 
ATOM      9  C   UNL     1      19.082  20.947   1.119  0.00  0.00    +0.000 A 
ATOM     10  C   UNL     1      18.757  20.880  -1.195  0.00  0.00    +0.000 A 
ATOM     11  N   UNL     1      19.759  21.076   2.292  0.00  0.00    +0.000 N 
ATOM     12  C   UNL     1      17.800  20.389   1.123  0.00  0.00    +0.000 A 
ATOM     13  C   UNL     1      18.839  20.490   3.179  0.00  0.00    +0.000 A 
ATOM     14  C   UNL     1      17.630  20.091   2.493  0.00  0.00    +0.000 A 
ATOM     15  C   UNL     1      18.980  20.294   4.563  0.00  0.00    +0.000 A 
ATOM     16  C   UNL     1      16.609  19.490   3.255  0.00  0.00    +0.000 A 
ATOM     17  C   UNL     1      16.766  19.305   4.628  0.00  0.00    +0.000 A 
ATOM     18  C   UNL     1      17.933  19.700   5.267  0.00  0.00    +0.000 A 
ATOM     19  C   UNL     1      16.917  20.062   0.073  0.00  0.00    +0.000 A 
ATOM     20  C   UNL     1      17.463  20.343  -1.213  0.00  0.00    +0.000 A 
ATOM     21  C   UNL     1      15.606  19.470  -0.051  0.00  0.00    +0.000 C 
ATOM     22  C   UNL     1      16.449  19.903  -2.211  0.00  0.00    +0.000 C 
ATOM     23  N   UNL     1      15.443  19.430  -1.442  0.00  0.00    +0.000 N 
ATOM     24  H   UNL     1      14.593  19.054  -1.840  0.00  0.00    +0.000 HD
ATOM     25  O   UNL     1      14.776  19.073   0.752  0.00  0.00    +0.000 OA
ATOM     26  C   UNL     1      19.572  21.104  -2.319  0.00  0.00    +0.000 A 
ATOM     27  C   UNL     1      20.859  21.559  -1.840  0.00  0.00    +0.000 A 
ATOM     28  C   UNL     1      19.392  20.939  -3.708  0.00  0.00    +0.000 A 
ATOM     29  C   UNL     1      21.897  21.806  -2.755  0.00  0.00    +0.000 A 
ATOM     30  C   UNL     1      21.668  21.630  -4.119  0.00  0.00    +0.000 A 
ATOM     31  C   UNL     1      20.435  21.210  -4.591  0.00  0.00    +0.000 A 
ENDROOT
BRANCH   3  32
ATOM     32  O   UNL     1      22.889  19.784   0.196  0.00  0.00    +0.000 OA
ATOM     33  H   UNL     1      23.104  20.072  -0.718  0.00  0.00    +0.000 HD
ENDBRANCH   3  32
BRANCH   3  34
ATOM     34  C   UNL     1      24.279  21.426   1.332  0.00  0.00    +0.000 C 
ATOM     35  O   UNL     1      25.185  21.274   0.508  0.00  0.00    +0.000 OA
BRANCH  34  36
ATOM     36  O   UNL     1      24.375  21.942   2.595  0.00  0.00    +0.000 OA
ATOM     37  C   UNL     1      24.756  23.285   2.723  0.00  0.00    +0.000 C 
ENDBRANCH  34  36
ENDBRANCH   3  34
TORSDOF 3
ENDMDL
MODEL 9
REMARK VINA RESULT:      -7.1     13.429     16.327
REMARK  Name = 3035817_K252a.pdbqt.pdb
REMARK  3 active torsions:
REMARK  status: ('A' for Active; 'I' for Inactive)
REMARK    1  A    between atoms: C_3  and  O_7
REMARK    2  A    between atoms: C_3  and  C_9
REMARK    3  A    between atoms: C_9  and  O_11
REMARK                            x       y       z     vdW  Elec       q    Type
REMARK                         _______ _______ _______ _____ _____    ______ ____
ROOT
ATOM      1  O   UNL     1      24.921  -6.720  26.785  0.00  0.00    +0.000 OA
ATOM      2  C   UNL     1      25.467  -6.022  25.610  0.00  0.00    +0.000 C 
ATOM      3  C   UNL     1      24.212  -5.270  24.990  0.00  0.00    +0.000 C 
ATOM      4  C   UNL     1      23.976  -5.822  27.312  0.00  0.00    +0.000 C 
ATOM      5  C   UNL     1      23.404  -5.156  26.201  0.00  0.00    +0.000 C 
ATOM      6  C   UNL     1      26.063  -7.149  24.704  0.00  0.00    +0.000 C 
ATOM      7  N   UNL     1      26.509  -5.103  26.113  0.00  0.00    +0.000 N 
ATOM      8  C   UNL     1      26.636  -4.461  27.318  0.00  0.00    +0.000 A 
ATOM      9  C   UNL     1      25.706  -4.431  28.358  0.00  0.00    +0.000 A 
ATOM     10  C   UNL     1      27.763  -3.667  27.553  0.00  0.00    +0.000 A 
ATOM     11  N   UNL     1      24.481  -5.022  28.323  0.00  0.00    +0.000 N 
ATOM     12  C   UNL     1      26.047  -3.619  29.446  0.00  0.00    +0.000 A 
ATOM     13  C   UNL     1      23.919  -4.507  29.505  0.00  0.00    +0.000 A 
ATOM     14  C   UNL     1      24.864  -3.674  30.216  0.00  0.00    +0.000 A 
ATOM     15  C   UNL     1      22.630  -4.731  30.016  0.00  0.00    +0.000 A 
ATOM     16  C   UNL     1      24.444  -3.087  31.426  0.00  0.00    +0.000 A 
ATOM     17  C   UNL     1      23.161  -3.323  31.918  0.00  0.00    +0.000 A 
ATOM     18  C   UNL     1      22.272  -4.129  31.222  0.00  0.00    +0.000 A 
ATOM     19  C   UNL     1      27.185  -2.829  29.704  0.00  0.00    +0.000 A 
ATOM     20  C   UNL     1      28.135  -2.866  28.641  0.00  0.00    +0.000 A 
ATOM     21  C   UNL     1      27.634  -1.945  30.753  0.00  0.00    +0.000 C 
ATOM     22  C   UNL     1      29.245  -1.954  29.032  0.00  0.00    +0.000 C 
ATOM     23  N   UNL     1      28.858  -1.493  30.241  0.00  0.00    +0.000 N 
ATOM     24  H   UNL     1      29.417  -0.841  30.773  0.00  0.00    +0.000 HD
ATOM     25  O   UNL     1      27.170  -1.603  31.831  0.00  0.00    +0.000 OA
ATOM     26  C   UNL     1      28.443  -3.755  26.325  0.00  0.00    +0.000 A 
ATOM     27  C   UNL     1      27.660  -4.602  25.453  0.00  0.00    +0.000 A 
ATOM     28  C   UNL     1      29.628  -3.183  25.819  0.00  0.00    +0.000 A 
ATOM     29  C   UNL     1      28.078  -4.820  24.129  0.00  0.00    +0.000 A 
ATOM     30  C   UNL     1      29.260  -4.233  23.676  0.00  0.00    +0.000 A 
ATOM     31  C   UNL     1      30.028  -3.432  24.507  0.00  0.00    +0.000 A 
ENDROOT
BRANCH   3  32
ATOM     32  O   UNL     1      24.487  -3.953  24.487  0.00  0.00    +0.000 OA
ATOM     33  H   UNL     1      25.166  -4.044  23.784  0.00  0.00    +0.000 HD
ENDBRANCH   3  32
BRANCH   3  34
ATOM     34  C   UNL     1      23.516  -6.112  23.924  0.00  0.00    +0.000 C 
ATOM     35  O   UNL     1      22.777  -7.045  24.248  0.00  0.00    +0.000 OA
BRANCH  34  36
ATOM     36  O   UNL     1      23.870  -5.724  22.661  0.00  0.00    +0.000 OA
ATOM     37  C   UNL     1      23.849  -6.695  21.651  0.00  0.00    +0.000 C 
ENDBRANCH  34  36
ENDBRANCH   3  34
TORSDOF 3
ENDMDL
