MODEL 1
REMARK VINA RESULT:      -5.3      0.000      0.000
REMARK  Name = 3136_Dimethoxy.pdbqt.pdb
REMARK  2 active torsions:
REMARK  status: ('A' for Active; 'I' for Inactive)
REMARK    1  A    between atoms: C_7  and  O_13
REMARK    2  A    between atoms: C_8  and  O_15
REMARK                            x       y       z     vdW  Elec       q    Type
REMARK                         _______ _______ _______ _____ _____    ______ ____
ROOT
ATOM      1  O   UNL     1      24.421  -2.713  16.404  0.00  0.00    +0.000 OA
ATOM      2  O   UNL     1      28.267  -3.338  12.768  0.00  0.00    +0.000 OA
ATOM      3  C   UNL     1      25.318  -2.047  14.349  0.00  0.00    +0.000 A 
ATOM      4  C   UNL     1      26.333  -2.193  13.414  0.00  0.00    +0.000 A 
ATOM      5  C   UNL     1      25.290  -2.878  15.557  0.00  0.00    +0.000 C 
ATOM      6  C   UNL     1      27.403  -3.175  13.618  0.00  0.00    +0.000 C 
ATOM      7  C   UNL     1      26.350  -3.902  15.726  0.00  0.00    +0.000 C 
ATOM      8  C   UNL     1      27.389  -3.973  14.868  0.00  0.00    +0.000 C 
ATOM      9  C   UNL     1      24.310  -1.105  14.145  0.00  0.00    +0.000 A 
ATOM     10  C   UNL     1      26.346  -1.400  12.266  0.00  0.00    +0.000 A 
ATOM     11  C   UNL     1      24.322  -0.311  13.000  0.00  0.00    +0.000 A 
ATOM     12  C   UNL     1      25.339  -0.459  12.060  0.00  0.00    +0.000 A 
ENDROOT
BRANCH   7  13
ATOM     13  O   UNL     1      26.240  -4.685  16.861  0.00  0.00    +0.000 OA
ATOM     14  C   UNL     1      25.615  -5.903  16.537  0.00  0.00    +0.000 C 
ENDBRANCH   7  13
BRANCH   8  15
ATOM     15  O   UNL     1      28.451  -4.846  15.024  0.00  0.00    +0.000 OA
ATOM     16  C   UNL     1      29.389  -4.295  15.917  0.00  0.00    +0.000 C 
ENDBRANCH   8  15
TORSDOF 2
ENDMDL
MODEL 2
REMARK VINA RESULT:      -5.2      2.032      2.363
REMARK  Name = 3136_Dimethoxy.pdbqt.pdb
REMARK  2 active torsions:
REMARK  status: ('A' for Active; 'I' for Inactive)
REMARK    1  A    between atoms: C_7  and  O_13
REMARK    2  A    between atoms: C_8  and  O_15
REMARK                            x       y       z     vdW  Elec       q    Type
REMARK                         _______ _______ _______ _____ _____    ______ ____
ROOT
ATOM      1  O   UNL     1      24.352  -5.192  14.267  0.00  0.00    +0.000 OA
ATOM      2  O   UNL     1      27.708  -1.700  12.043  0.00  0.00    +0.000 OA
ATOM      3  C   UNL     1      24.689  -3.025  13.457  0.00  0.00    +0.000 A 
ATOM      4  C   UNL     1      25.570  -2.109  12.901  0.00  0.00    +0.000 A 
ATOM      5  C   UNL     1      25.116  -4.401  13.730  0.00  0.00    +0.000 C 
ATOM      6  C   UNL     1      26.949  -2.495  12.581  0.00  0.00    +0.000 C 
ATOM      7  C   UNL     1      26.498  -4.792  13.356  0.00  0.00    +0.000 C 
ATOM      8  C   UNL     1      27.381  -3.875  12.910  0.00  0.00    +0.000 C 
ATOM      9  C   UNL     1      23.383  -2.642  13.762  0.00  0.00    +0.000 A 
ATOM     10  C   UNL     1      25.151  -0.803  12.640  0.00  0.00    +0.000 A 
ATOM     11  C   UNL     1      22.963  -1.340  13.504  0.00  0.00    +0.000 A 
ATOM     12  C   UNL     1      23.846  -0.420  12.943  0.00  0.00    +0.000 A 
ENDROOT
BRANCH   7  13
ATOM     13  O   UNL     1      26.823  -6.115  13.595  0.00  0.00    +0.000 OA
ATOM     14  C   UNL     1      26.668  -6.861  12.412  0.00  0.00    +0.000 C 
ENDBRANCH   7  13
BRANCH   8  15
ATOM     15  O   UNL     1      28.705  -4.162  12.630  0.00  0.00    +0.000 OA
ATOM     16  C   UNL     1      29.479  -4.006  13.795  0.00  0.00    +0.000 C 
ENDBRANCH   8  15
TORSDOF 2
ENDMDL
MODEL 3
REMARK VINA RESULT:      -5.1     18.174     19.960
REMARK  Name = 3136_Dimethoxy.pdbqt.pdb
REMARK  2 active torsions:
REMARK  status: ('A' for Active; 'I' for Inactive)
REMARK    1  A    between atoms: C_7  and  O_13
REMARK    2  A    between atoms: C_8  and  O_15
REMARK                            x       y       z     vdW  Elec       q    Type
REMARK                         _______ _______ _______ _____ _____    ______ ____
ROOT
ATOM      1  O   UNL     1      13.171   5.284  29.874  0.00  0.00    +0.000 OA
ATOM      2  O   UNL     1      15.351   6.493  25.164  0.00  0.00    +0.000 OA
ATOM      3  C   UNL     1      13.865   6.957  28.396  0.00  0.00    +0.000 A 
ATOM      4  C   UNL     1      14.455   7.272  27.180  0.00  0.00    +0.000 A 
ATOM      5  C   UNL     1      13.645   5.559  28.780  0.00  0.00    +0.000 C 
ATOM      6  C   UNL     1      14.878   6.213  26.257  0.00  0.00    +0.000 C 
ATOM      7  C   UNL     1      14.033   4.500  27.816  0.00  0.00    +0.000 C 
ATOM      8  C   UNL     1      14.696   4.803  26.682  0.00  0.00    +0.000 C 
ATOM      9  C   UNL     1      13.473   7.974  29.266  0.00  0.00    +0.000 A 
ATOM     10  C   UNL     1      14.653   8.606  26.822  0.00  0.00    +0.000 A 
ATOM     11  C   UNL     1      13.671   9.307  28.912  0.00  0.00    +0.000 A 
ATOM     12  C   UNL     1      14.260   9.623  27.690  0.00  0.00    +0.000 A 
ENDROOT
BRANCH   7  13
ATOM     13  O   UNL     1      13.756   3.206  28.218  0.00  0.00    +0.000 OA
ATOM     14  C   UNL     1      12.533   2.789  27.662  0.00  0.00    +0.000 C 
ENDBRANCH   7  13
BRANCH   8  15
ATOM     15  O   UNL     1      15.161   3.853  25.790  0.00  0.00    +0.000 OA
ATOM     16  C   UNL     1      16.458   3.450  26.161  0.00  0.00    +0.000 C 
ENDBRANCH   8  15
TORSDOF 2
ENDMDL
MODEL 4
REMARK VINA RESULT:      -5.1     26.354     29.009
REMARK  Name = 3136_Dimethoxy.pdbqt.pdb
REMARK  2 active torsions:
REMARK  status: ('A' for Active; 'I' for Inactive)
REMARK    1  A    between atoms: C_7  and  O_13
REMARK    2  A    between atoms: C_8  and  O_15
REMARK                            x       y       z     vdW  Elec       q    Type
REMARK                         _______ _______ _______ _____ _____    ______ ____
ROOT
ATOM      1  O   UNL     1      26.166  23.298   0.823  0.00  0.00    +0.000 OA
ATOM      2  O   UNL     1      21.883  22.537   3.902  0.00  0.00    +0.000 OA
ATOM      3  C   UNL     1      24.869  24.053   2.617  0.00  0.00    +0.000 A 
ATOM      4  C   UNL     1      23.740  23.868   3.402  0.00  0.00    +0.000 A 
ATOM      5  C   UNL     1      25.198  23.105   1.547  0.00  0.00    +0.000 C 
ATOM      6  C   UNL     1      22.848  22.726   3.175  0.00  0.00    +0.000 C 
ATOM      7  C   UNL     1      24.315  21.927   1.360  0.00  0.00    +0.000 C 
ATOM      8  C   UNL     1      23.167  21.804   2.057  0.00  0.00    +0.000 C 
ATOM      9  C   UNL     1      25.704  25.147   2.840  0.00  0.00    +0.000 A 
ATOM     10  C   UNL     1      23.441  24.774   4.421  0.00  0.00    +0.000 A 
ATOM     11  C   UNL     1      25.406  26.053   3.855  0.00  0.00    +0.000 A 
ATOM     12  C   UNL     1      24.275  25.867   4.646  0.00  0.00    +0.000 A 
ENDROOT
BRANCH   7  13
ATOM     13  O   UNL     1      24.706  21.047   0.368  0.00  0.00    +0.000 OA
ATOM     14  C   UNL     1      24.055  21.372  -0.836  0.00  0.00    +0.000 C 
ENDBRANCH   7  13
BRANCH   8  15
ATOM     15  O   UNL     1      22.261  20.776   1.863  0.00  0.00    +0.000 OA
ATOM     16  C   UNL     1      22.609  19.679   2.674  0.00  0.00    +0.000 C 
ENDBRANCH   8  15
TORSDOF 2
ENDMDL
MODEL 5
REMARK VINA RESULT:      -4.8     20.421     22.246
REMARK  Name = 3136_Dimethoxy.pdbqt.pdb
REMARK  2 active torsions:
REMARK  status: ('A' for Active; 'I' for Inactive)
REMARK    1  A    between atoms: C_7  and  O_13
REMARK    2  A    between atoms: C_8  and  O_15
REMARK                            x       y       z     vdW  Elec       q    Type
REMARK                         _______ _______ _______ _____ _____    ______ ____
ROOT
ATOM      1  O   UNL     1      14.060  10.042  30.517  0.00  0.00    +0.000 OA
ATOM      2  O   UNL     1      13.595   4.987  28.898  0.00  0.00    +0.000 OA
ATOM      3  C   UNL     1      14.045   8.541  28.724  0.00  0.00    +0.000 A 
ATOM      4  C   UNL     1      13.948   7.222  28.305  0.00  0.00    +0.000 A 
ATOM      5  C   UNL     1      13.924   8.884  30.145  0.00  0.00    +0.000 C 
ATOM      6  C   UNL     1      13.731   6.142  29.275  0.00  0.00    +0.000 C 
ATOM      7  C   UNL     1      13.655   7.789  31.109  0.00  0.00    +0.000 C 
ATOM      8  C   UNL     1      13.662   6.500  30.713  0.00  0.00    +0.000 C 
ATOM      9  C   UNL     1      14.257   9.556  27.793  0.00  0.00    +0.000 A 
ATOM     10  C   UNL     1      14.059   6.908  26.950  0.00  0.00    +0.000 A 
ATOM     11  C   UNL     1      14.370   9.245  26.439  0.00  0.00    +0.000 A 
ATOM     12  C   UNL     1      14.270   7.921  26.018  0.00  0.00    +0.000 A 
ENDROOT
BRANCH   7  13
ATOM     13  O   UNL     1      13.505   8.184  32.425  0.00  0.00    +0.000 OA
ATOM     14  C   UNL     1      14.759   8.192  33.063  0.00  0.00    +0.000 C 
ENDBRANCH   7  13
BRANCH   8  15
ATOM     15  O   UNL     1      13.506   5.432  31.580  0.00  0.00    +0.000 OA
ATOM     16  C   UNL     1      14.767   4.899  31.905  0.00  0.00    +0.000 C 
ENDBRANCH   8  15
TORSDOF 2
ENDMDL
MODEL 6
REMARK VINA RESULT:      -4.5     10.804     12.740
REMARK  Name = 3136_Dimethoxy.pdbqt.pdb
REMARK  2 active torsions:
REMARK  status: ('A' for Active; 'I' for Inactive)
REMARK    1  A    between atoms: C_7  and  O_13
REMARK    2  A    between atoms: C_8  and  O_15
REMARK                            x       y       z     vdW  Elec       q    Type
REMARK                         _______ _______ _______ _____ _____    ______ ____
ROOT
ATOM      1  O   UNL     1      25.901  -5.291  27.151  0.00  0.00    +0.000 OA
ATOM      2  O   UNL     1      30.626  -2.872  26.684  0.00  0.00    +0.000 OA
ATOM      3  C   UNL     1      27.663  -4.663  25.748  0.00  0.00    +0.000 A 
ATOM      4  C   UNL     1      28.881  -4.012  25.622  0.00  0.00    +0.000 A 
ATOM      5  C   UNL     1      26.999  -4.760  27.053  0.00  0.00    +0.000 C 
ATOM      6  C   UNL     1      29.528  -3.400  26.788  0.00  0.00    +0.000 C 
ATOM      7  C   UNL     1      27.688  -4.181  28.232  0.00  0.00    +0.000 C 
ATOM      8  C   UNL     1      28.820  -3.463  28.090  0.00  0.00    +0.000 C 
ATOM      9  C   UNL     1      27.057  -5.235  24.630  0.00  0.00    +0.000 A 
ATOM     10  C   UNL     1      29.506  -3.931  24.376  0.00  0.00    +0.000 A 
ATOM     11  C   UNL     1      27.678  -5.154  23.385  0.00  0.00    +0.000 A 
ATOM     12  C   UNL     1      28.902  -4.503  23.258  0.00  0.00    +0.000 A 
ENDROOT
BRANCH   7  13
ATOM     13  O   UNL     1      27.033  -4.348  29.439  0.00  0.00    +0.000 OA
ATOM     14  C   UNL     1      26.097  -3.312  29.616  0.00  0.00    +0.000 C 
ENDBRANCH   7  13
BRANCH   8  15
ATOM     15  O   UNL     1      29.458  -2.825  29.140  0.00  0.00    +0.000 OA
ATOM     16  C   UNL     1      29.071  -1.472  29.177  0.00  0.00    +0.000 C 
ENDBRANCH   8  15
TORSDOF 2
ENDMDL
MODEL 7
REMARK VINA RESULT:      -4.4     24.050     25.352
REMARK  Name = 3136_Dimethoxy.pdbqt.pdb
REMARK  2 active torsions:
REMARK  status: ('A' for Active; 'I' for Inactive)
REMARK    1  A    between atoms: C_7  and  O_13
REMARK    2  A    between atoms: C_8  and  O_15
REMARK                            x       y       z     vdW  Elec       q    Type
REMARK                         _______ _______ _______ _____ _____    ______ ____
ROOT
ATOM      1  O   UNL     1      35.311   7.950  32.327  0.00  0.00    +0.000 OA
ATOM      2  O   UNL     1      35.397  12.081  35.693  0.00  0.00    +0.000 OA
ATOM      3  C   UNL     1      36.258  10.012  32.892  0.00  0.00    +0.000 A 
ATOM      4  C   UNL     1      36.263  11.099  33.754  0.00  0.00    +0.000 A 
ATOM      5  C   UNL     1      35.348   8.883  33.117  0.00  0.00    +0.000 C 
ATOM      6  C   UNL     1      35.354  11.146  34.905  0.00  0.00    +0.000 C 
ATOM      7  C   UNL     1      34.471   8.921  34.313  0.00  0.00    +0.000 C 
ATOM      8  C   UNL     1      34.406  10.021  35.091  0.00  0.00    +0.000 C 
ATOM      9  C   UNL     1      37.123   9.984  31.798  0.00  0.00    +0.000 A 
ATOM     10  C   UNL     1      37.137  12.164  33.533  0.00  0.00    +0.000 A 
ATOM     11  C   UNL     1      37.995  11.046  31.574  0.00  0.00    +0.000 A 
ATOM     12  C   UNL     1      38.003  12.136  32.441  0.00  0.00    +0.000 A 
ENDROOT
BRANCH   7  13
ATOM     13  O   UNL     1      33.672   7.807  34.494  0.00  0.00    +0.000 OA
ATOM     14  C   UNL     1      34.301   6.914  35.382  0.00  0.00    +0.000 C 
ENDBRANCH   7  13
BRANCH   8  15
ATOM     15  O   UNL     1      33.542  10.148  36.165  0.00  0.00    +0.000 OA
ATOM     16  C   UNL     1      32.310  10.665  35.722  0.00  0.00    +0.000 C 
ENDBRANCH   8  15
TORSDOF 2
ENDMDL
MODEL 8
REMARK VINA RESULT:      -4.4     25.774     27.264
REMARK  Name = 3136_Dimethoxy.pdbqt.pdb
REMARK  2 active torsions:
REMARK  status: ('A' for Active; 'I' for Inactive)
REMARK    1  A    between atoms: C_7  and  O_13
REMARK    2  A    between atoms: C_8  and  O_15
REMARK                            x       y       z     vdW  Elec       q    Type
REMARK                         _______ _______ _______ _____ _____    ______ ____
ROOT
ATOM      1  O   UNL     1      20.666  18.995  33.145  0.00  0.00    +0.000 OA
ATOM      2  O   UNL     1      23.908  16.974  29.430  0.00  0.00    +0.000 OA
ATOM      3  C   UNL     1      21.046  17.313  31.565  0.00  0.00    +0.000 A 
ATOM      4  C   UNL     1      21.879  16.801  30.580  0.00  0.00    +0.000 A 
ATOM      5  C   UNL     1      21.425  18.517  32.313  0.00  0.00    +0.000 C 
ATOM      6  C   UNL     1      23.152  17.456  30.261  0.00  0.00    +0.000 C 
ATOM      7  C   UNL     1      22.738  19.141  32.014  0.00  0.00    +0.000 C 
ATOM      8  C   UNL     1      23.498  18.701  30.990  0.00  0.00    +0.000 C 
ATOM      9  C   UNL     1      19.836  16.684  31.854  0.00  0.00    +0.000 A 
ATOM     10  C   UNL     1      21.510  15.652  29.880  0.00  0.00    +0.000 A 
ATOM     11  C   UNL     1      19.465  15.538  31.155  0.00  0.00    +0.000 A 
ATOM     12  C   UNL     1      20.301  15.021  30.168  0.00  0.00    +0.000 A 
ENDROOT
BRANCH   7  13
ATOM     13  O   UNL     1      23.057  20.243  32.786  0.00  0.00    +0.000 OA
ATOM     14  C   UNL     1      23.906  19.854  33.838  0.00  0.00    +0.000 C 
ENDBRANCH   7  13
BRANCH   8  15
ATOM     15  O   UNL     1      24.687  19.298  30.609  0.00  0.00    +0.000 OA
ATOM     16  C   UNL     1      24.429  20.298  29.653  0.00  0.00    +0.000 C 
ENDBRANCH   8  15
TORSDOF 2
ENDMDL
MODEL 9
REMARK VINA RESULT:      -4.4     24.016     25.290
REMARK  Name = 3136_Dimethoxy.pdbqt.pdb
REMARK  2 active torsions:
REMARK  status: ('A' for Active; 'I' for Inactive)
REMARK    1  A    between atoms: C_7  and  O_13
REMARK    2  A    between atoms: C_8  and  O_15
REMARK                            x       y       z     vdW  Elec       q    Type
REMARK                         _______ _______ _______ _____ _____    ______ ____
ROOT
ATOM      1  O   UNL     1      19.592  14.685  34.825  0.00  0.00    +0.000 OA
ATOM      2  O   UNL     1      22.765  11.997  31.491  0.00  0.00    +0.000 OA
ATOM      3  C   UNL     1      20.641  14.606  32.736  0.00  0.00    +0.000 A 
ATOM      4  C   UNL     1      21.487  13.917  31.878  0.00  0.00    +0.000 A 
ATOM      5  C   UNL     1      20.298  14.052  34.050  0.00  0.00    +0.000 C 
ATOM      6  C   UNL     1      22.061  12.626  32.270  0.00  0.00    +0.000 C 
ATOM      7  C   UNL     1      20.846  12.722  34.413  0.00  0.00    +0.000 C 
ATOM      8  C   UNL     1      21.745  12.103  33.621  0.00  0.00    +0.000 C 
ATOM      9  C   UNL     1      20.107  15.836  32.353  0.00  0.00    +0.000 A 
ATOM     10  C   UNL     1      21.801  14.452  30.628  0.00  0.00    +0.000 A 
ATOM     11  C   UNL     1      20.421  16.372  31.106  0.00  0.00    +0.000 A 
ATOM     12  C   UNL     1      21.267  15.680  30.243  0.00  0.00    +0.000 A 
ENDROOT
BRANCH   7  13
ATOM     13  O   UNL     1      20.447  12.234  35.644  0.00  0.00    +0.000 OA
ATOM     14  C   UNL     1      19.343  11.378  35.478  0.00  0.00    +0.000 C 
ENDBRANCH   7  13
BRANCH   8  15
ATOM     15  O   UNL     1      22.357  10.906  33.949  0.00  0.00    +0.000 OA
ATOM     16  C   UNL     1      23.519  11.159  34.703  0.00  0.00    +0.000 C 
ENDBRANCH   8  15
TORSDOF 2
ENDMDL
