MODEL 1
REMARK VINA RESULT:      -5.2      0.000      0.000
REMARK  Name = 326_Cuminaldehyde.pdb
REMARK  1 active torsions:
REMARK  status: ('A' for Active; 'I' for Inactive)
REMARK    1  A    between atoms: C_1  and  C_7
REMARK                            x       y       z     vdW  Elec       q    Type
REMARK                         _______ _______ _______ _____ _____    ______ ____
ROOT
ATOM      1  C   UNL     1      45.467  -6.994   9.941  0.00  0.00    +0.000 C 
ATOM      2  C   UNL     1      44.136  -7.298   9.643  0.00  0.00    +0.000 C 
ATOM      3  C   UNL     1      45.764  -6.268  11.098  0.00  0.00    +0.000 C 
ATOM      4  C   UNL     1      43.113  -6.882  10.493  0.00  0.00    +0.000 C 
ATOM      5  C   UNL     1      44.741  -5.851  11.948  0.00  0.00    +0.000 C 
ATOM      6  C   UNL     1      43.416  -6.159  11.643  0.00  0.00    +0.000 C 
ATOM      7  O   UNL     1      41.506  -5.380  13.230  0.00  0.00    +0.000 OA
ATOM      8  C   UNL     1      42.369  -5.732  12.513  0.00  0.00    +0.000 C 
ENDROOT
BRANCH   1   9
ATOM      9  C   UNL     1      46.539  -7.431   9.051  0.00  0.00    +0.000 C 
ATOM     10  C   UNL     1      46.251  -7.931   7.658  0.00  0.00    +0.000 C 
ATOM     11  C   UNL     1      47.983  -7.401   9.485  0.00  0.00    +0.000 C 
ENDBRANCH   1   9
TORSDOF 1
ENDMDL
MODEL 2
REMARK VINA RESULT:      -5.2     15.959     19.078
REMARK  Name = 326_Cuminaldehyde.pdb
REMARK  1 active torsions:
REMARK  status: ('A' for Active; 'I' for Inactive)
REMARK    1  A    between atoms: C_1  and  C_7
REMARK                            x       y       z     vdW  Elec       q    Type
REMARK                         _______ _______ _______ _____ _____    ______ ____
ROOT
ATOM      1  C   UNL     1      25.962  -1.981  13.722  0.00  0.00    +0.000 C 
ATOM      2  C   UNL     1      26.501  -2.593  14.856  0.00  0.00    +0.000 C 
ATOM      3  C   UNL     1      26.684  -1.994  12.526  0.00  0.00    +0.000 C 
ATOM      4  C   UNL     1      27.747  -3.214  14.795  0.00  0.00    +0.000 C 
ATOM      5  C   UNL     1      27.931  -2.614  12.464  0.00  0.00    +0.000 C 
ATOM      6  C   UNL     1      28.461  -3.223  13.599  0.00  0.00    +0.000 C 
ATOM      7  O   UNL     1      30.789  -4.380  13.484  0.00  0.00    +0.000 OA
ATOM      8  C   UNL     1      29.737  -3.857  13.536  0.00  0.00    +0.000 C 
ENDROOT
BRANCH   1   9
ATOM      9  C   UNL     1      24.656  -1.332  13.786  0.00  0.00    +0.000 C 
ATOM     10  C   UNL     1      24.306  -0.174  12.885  0.00  0.00    +0.000 C 
ATOM     11  C   UNL     1      23.597  -1.789  14.758  0.00  0.00    +0.000 C 
ENDBRANCH   1   9
TORSDOF 1
ENDMDL
MODEL 3
REMARK VINA RESULT:      -5.2     16.302     18.740
REMARK  Name = 326_Cuminaldehyde.pdb
REMARK  1 active torsions:
REMARK  status: ('A' for Active; 'I' for Inactive)
REMARK    1  A    between atoms: C_1  and  C_7
REMARK                            x       y       z     vdW  Elec       q    Type
REMARK                         _______ _______ _______ _____ _____    ______ ____
ROOT
ATOM      1  C   UNL     1      27.517  -3.164  13.248  0.00  0.00    +0.000 C 
ATOM      2  C   UNL     1      27.495  -2.317  12.138  0.00  0.00    +0.000 C 
ATOM      3  C   UNL     1      26.512  -3.060  14.213  0.00  0.00    +0.000 C 
ATOM      4  C   UNL     1      26.476  -1.376  11.992  0.00  0.00    +0.000 C 
ATOM      5  C   UNL     1      25.494  -2.119  14.069  0.00  0.00    +0.000 C 
ATOM      6  C   UNL     1      25.478  -1.278  12.958  0.00  0.00    +0.000 C 
ATOM      7  O   UNL     1      23.578   0.479  12.689  0.00  0.00    +0.000 OA
ATOM      8  C   UNL     1      24.437  -0.315  12.810  0.00  0.00    +0.000 C 
ENDROOT
BRANCH   1   9
ATOM      9  C   UNL     1      28.584  -4.150  13.400  0.00  0.00    +0.000 C 
ATOM     10  C   UNL     1      28.452  -5.545  12.841  0.00  0.00    +0.000 C 
ATOM     11  C   UNL     1      29.866  -3.819  14.121  0.00  0.00    +0.000 C 
ENDBRANCH   1   9
TORSDOF 1
ENDMDL
MODEL 4
REMARK VINA RESULT:      -5.0     35.151     36.712
REMARK  Name = 326_Cuminaldehyde.pdb
REMARK  1 active torsions:
REMARK  status: ('A' for Active; 'I' for Inactive)
REMARK    1  A    between atoms: C_1  and  C_7
REMARK                            x       y       z     vdW  Elec       q    Type
REMARK                         _______ _______ _______ _____ _____    ______ ____
ROOT
ATOM      1  C   UNL     1      14.468   7.152  26.564  0.00  0.00    +0.000 C 
ATOM      2  C   UNL     1      15.490   6.401  25.978  0.00  0.00    +0.000 C 
ATOM      3  C   UNL     1      13.420   6.497  27.214  0.00  0.00    +0.000 C 
ATOM      4  C   UNL     1      15.465   5.009  26.044  0.00  0.00    +0.000 C 
ATOM      5  C   UNL     1      13.393   5.105  27.280  0.00  0.00    +0.000 C 
ATOM      6  C   UNL     1      14.417   4.363  26.694  0.00  0.00    +0.000 C 
ATOM      7  O   UNL     1      14.369   1.764  26.815  0.00  0.00    +0.000 OA
ATOM      8  C   UNL     1      14.390   2.939  26.760  0.00  0.00    +0.000 C 
ENDROOT
BRANCH   1   9
ATOM      9  C   UNL     1      14.495   8.611  26.495  0.00  0.00    +0.000 C 
ATOM     10  C   UNL     1      14.208   9.461  27.708  0.00  0.00    +0.000 C 
ATOM     11  C   UNL     1      14.811   9.333  25.210  0.00  0.00    +0.000 C 
ENDBRANCH   1   9
TORSDOF 1
ENDMDL
MODEL 5
REMARK VINA RESULT:      -5.0      1.515      1.858
REMARK  Name = 326_Cuminaldehyde.pdb
REMARK  1 active torsions:
REMARK  status: ('A' for Active; 'I' for Inactive)
REMARK    1  A    between atoms: C_1  and  C_7
REMARK                            x       y       z     vdW  Elec       q    Type
REMARK                         _______ _______ _______ _____ _____    ______ ____
ROOT
ATOM      1  C   UNL     1      46.025  -7.023   9.753  0.00  0.00    +0.000 C 
ATOM      2  C   UNL     1      45.213  -7.284   8.646  0.00  0.00    +0.000 C 
ATOM      3  C   UNL     1      45.448  -6.542  10.931  0.00  0.00    +0.000 C 
ATOM      4  C   UNL     1      43.837  -7.068   8.717  0.00  0.00    +0.000 C 
ATOM      5  C   UNL     1      44.073  -6.325  11.002  0.00  0.00    +0.000 C 
ATOM      6  C   UNL     1      43.269  -6.588   9.895  0.00  0.00    +0.000 C 
ATOM      7  O   UNL     1      40.702  -6.183  10.028  0.00  0.00    +0.000 OA
ATOM      8  C   UNL     1      41.863  -6.366   9.968  0.00  0.00    +0.000 C 
ENDROOT
BRANCH   1   9
ATOM      9  C   UNL     1      47.465  -7.250   9.678  0.00  0.00    +0.000 C 
ATOM     10  C   UNL     1      48.051  -8.300   8.767  0.00  0.00    +0.000 C 
ATOM     11  C   UNL     1      48.433  -6.445  10.508  0.00  0.00    +0.000 C 
ENDBRANCH   1   9
TORSDOF 1
ENDMDL
MODEL 6
REMARK VINA RESULT:      -4.9      2.547      4.422
REMARK  Name = 326_Cuminaldehyde.pdb
REMARK  1 active torsions:
REMARK  status: ('A' for Active; 'I' for Inactive)
REMARK    1  A    between atoms: C_1  and  C_7
REMARK                            x       y       z     vdW  Elec       q    Type
REMARK                         _______ _______ _______ _____ _____    ______ ____
ROOT
ATOM      1  C   UNL     1      44.928  -5.913  12.137  0.00  0.00    +0.000 C 
ATOM      2  C   UNL     1      43.658  -6.319  11.721  0.00  0.00    +0.000 C 
ATOM      3  C   UNL     1      46.030  -6.150  11.313  0.00  0.00    +0.000 C 
ATOM      4  C   UNL     1      43.491  -6.954  10.491  0.00  0.00    +0.000 C 
ATOM      5  C   UNL     1      45.865  -6.785  10.083  0.00  0.00    +0.000 C 
ATOM      6  C   UNL     1      44.595  -7.186   9.674  0.00  0.00    +0.000 C 
ATOM      7  O   UNL     1      44.285  -8.373   7.379  0.00  0.00    +0.000 OA
ATOM      8  C   UNL     1      44.425  -7.836   8.416  0.00  0.00    +0.000 C 
ENDROOT
BRANCH   1   9
ATOM      9  C   UNL     1      45.102  -5.247  13.425  0.00  0.00    +0.000 C 
ATOM     10  C   UNL     1      44.237  -5.591  14.612  0.00  0.00    +0.000 C 
ATOM     11  C   UNL     1      46.154  -4.186  13.627  0.00  0.00    +0.000 C 
ENDBRANCH   1   9
TORSDOF 1
ENDMDL
MODEL 7
REMARK VINA RESULT:      -4.8     34.302     36.958
REMARK  Name = 326_Cuminaldehyde.pdb
REMARK  1 active torsions:
REMARK  status: ('A' for Active; 'I' for Inactive)
REMARK    1  A    between atoms: C_1  and  C_7
REMARK                            x       y       z     vdW  Elec       q    Type
REMARK                         _______ _______ _______ _____ _____    ______ ____
ROOT
ATOM      1  C   UNL     1      14.172   7.189  27.534  0.00  0.00    +0.000 C 
ATOM      2  C   UNL     1      13.643   5.916  27.761  0.00  0.00    +0.000 C 
ATOM      3  C   UNL     1      15.161   7.360  26.562  0.00  0.00    +0.000 C 
ATOM      4  C   UNL     1      14.098   4.825  27.023  0.00  0.00    +0.000 C 
ATOM      5  C   UNL     1      15.617   6.268  25.824  0.00  0.00    +0.000 C 
ATOM      6  C   UNL     1      15.085   5.002  26.056  0.00  0.00    +0.000 C 
ATOM      7  O   UNL     1      15.936   2.964  24.680  0.00  0.00    +0.000 OA
ATOM      8  C   UNL     1      15.551   3.885  25.302  0.00  0.00    +0.000 C 
ENDROOT
BRANCH   1   9
ATOM      9  C   UNL     1      13.694   8.333  28.306  0.00  0.00    +0.000 C 
ATOM     10  C   UNL     1      12.634   8.179  29.368  0.00  0.00    +0.000 C 
ATOM     11  C   UNL     1      14.240   9.720  28.078  0.00  0.00    +0.000 C 
ENDBRANCH   1   9
TORSDOF 1
ENDMDL
MODEL 8
REMARK VINA RESULT:      -4.8     37.275     38.189
REMARK  Name = 326_Cuminaldehyde.pdb
REMARK  1 active torsions:
REMARK  status: ('A' for Active; 'I' for Inactive)
REMARK    1  A    between atoms: C_1  and  C_7
REMARK                            x       y       z     vdW  Elec       q    Type
REMARK                         _______ _______ _______ _____ _____    ______ ____
ROOT
ATOM      1  C   UNL     1      22.504  16.823  30.910  0.00  0.00    +0.000 C 
ATOM      2  C   UNL     1      22.308  16.743  32.291  0.00  0.00    +0.000 C 
ATOM      3  C   UNL     1      22.216  15.715  30.110  0.00  0.00    +0.000 C 
ATOM      4  C   UNL     1      21.828  15.567  32.866  0.00  0.00    +0.000 C 
ATOM      5  C   UNL     1      21.736  14.538  30.684  0.00  0.00    +0.000 C 
ATOM      6  C   UNL     1      21.543  14.467  32.062  0.00  0.00    +0.000 C 
ATOM      7  O   UNL     1      20.648  12.271  33.135  0.00  0.00    +0.000 OA
ATOM      8  C   UNL     1      21.053  13.263  32.650  0.00  0.00    +0.000 C 
ENDROOT
BRANCH   1   9
ATOM      9  C   UNL     1      23.006  18.055  30.309  0.00  0.00    +0.000 C 
ATOM     10  C   UNL     1      22.069  19.131  29.820  0.00  0.00    +0.000 C 
ATOM     11  C   UNL     1      24.484  18.307  30.149  0.00  0.00    +0.000 C 
ENDBRANCH   1   9
TORSDOF 1
ENDMDL
MODEL 9
REMARK VINA RESULT:      -4.6     36.226     38.687
REMARK  Name = 326_Cuminaldehyde.pdb
REMARK  1 active torsions:
REMARK  status: ('A' for Active; 'I' for Inactive)
REMARK    1  A    between atoms: C_1  and  C_7
REMARK                            x       y       z     vdW  Elec       q    Type
REMARK                         _______ _______ _______ _____ _____    ______ ____
ROOT
ATOM      1  C   UNL     1      14.248   7.949  27.467  0.00  0.00    +0.000 C 
ATOM      2  C   UNL     1      13.394   7.064  28.129  0.00  0.00    +0.000 C 
ATOM      3  C   UNL     1      14.449   9.230  27.987  0.00  0.00    +0.000 C 
ATOM      4  C   UNL     1      12.748   7.455  29.301  0.00  0.00    +0.000 C 
ATOM      5  C   UNL     1      13.803   9.622  29.158  0.00  0.00    +0.000 C 
ATOM      6  C   UNL     1      12.953   8.733  29.814  0.00  0.00    +0.000 C 
ATOM      7  O   UNL     1      11.747   9.465  32.000  0.00  0.00    +0.000 OA
ATOM      8  C   UNL     1      12.292   9.134  31.012  0.00  0.00    +0.000 C 
ENDROOT
BRANCH   1   9
ATOM      9  C   UNL     1      14.925   7.539  26.240  0.00  0.00    +0.000 C 
ATOM     10  C   UNL     1      15.298   8.539  25.174  0.00  0.00    +0.000 C 
ATOM     11  C   UNL     1      15.282   6.096  25.982  0.00  0.00    +0.000 C 
ENDBRANCH   1   9
TORSDOF 1
ENDMDL
