MODEL 1
REMARK VINA RESULT:      -6.7      0.000      0.000
REMARK  Name = 3363_5FluorouracilDeoxyriboside.pdbqt.pdb
REMARK  4 active torsions:
REMARK  status: ('A' for Active; 'I' for Inactive)
REMARK    1  A    between atoms: N_4  and  C1*_13
REMARK    2  A    between atoms: C3*_12  and  O3*_16
REMARK    3  A    between atoms: C4*_15  and  C5*_18
REMARK    4  A    between atoms: C5*_18  and  O5*_19
REMARK                            x       y       z     vdW  Elec       q    Type
REMARK                         _______ _______ _______ _____ _____    ______ ____
ROOT
ATOM      1  F   UNL     1      45.928  -7.261   9.693  0.00  0.00    +0.000 F 
ATOM      2  O   UNL     1      41.135  -4.711   9.857  0.00  0.00    +0.000 OA
ATOM      3  O   UNL     1      43.802  -7.922   7.948  0.00  0.00    +0.000 OA
ATOM      4  N   UNL     1      43.238  -5.146  10.861  0.00  0.00    +0.000 N 
ATOM      5  N   UNL     1      42.474  -6.359   8.997  0.00  0.00    +0.000 N 
ATOM      6  C   UNL     1      42.190  -5.330   9.927  0.00  0.00    +0.000 C 
ATOM      7  C   UNL     1      44.316  -5.947  10.740  0.00  0.00    +0.000 C 
ATOM      8  C   UNL     1      44.659  -6.898   9.939  0.00  0.00    +0.000 C 
ATOM      9  C   UNL     1      43.636  -7.133   8.870  0.00  0.00    +0.000 C 
ATOM     10  H   UNL     1      41.771  -6.500   8.286  0.00  0.00    +0.000 HD
ENDROOT
BRANCH   4  13
ATOM     11  O4* UNL     1      43.215  -2.837  11.582  0.00  0.00    +0.000 OA
ATOM     12  C3* UNL     1      43.171  -3.155  13.877  0.00  0.00    +0.000 A 
ATOM     13  C1* UNL     1      43.219  -4.211  11.856  0.00  0.00    +0.000 A 
ATOM     14  C2* UNL     1      43.184  -4.413  13.249  0.00  0.00    +0.000 A 
ATOM     15  C4* UNL     1      43.185  -2.177  12.816  0.00  0.00    +0.000 A 
BRANCH  12  16
ATOM     16  O3* UNL     1      42.558  -2.915  15.074  0.00  0.00    +0.000 OA
ATOM     17  H3* UNL     1      42.988  -3.389  15.809  0.00  0.00    +0.000 HD
ENDBRANCH  12  16
BRANCH  15  18
ATOM     18  C5* UNL     1      42.976  -0.788  12.926  0.00  0.00    +0.000 C 
BRANCH  18  19
ATOM     19  O5* UNL     1      42.798   0.525  13.020  0.00  0.00    +0.000 OA
ATOM     20  H5* UNL     1      42.229   0.741  13.780  0.00  0.00    +0.000 HD
ENDBRANCH  18  19
ENDBRANCH  15  18
ENDBRANCH   4  13
TORSDOF 4
ENDMDL
MODEL 2
REMARK VINA RESULT:      -5.7      2.874      3.588
REMARK  Name = 3363_5FluorouracilDeoxyriboside.pdbqt.pdb
REMARK  4 active torsions:
REMARK  status: ('A' for Active; 'I' for Inactive)
REMARK    1  A    between atoms: N_4  and  C1*_13
REMARK    2  A    between atoms: C3*_12  and  O3*_16
REMARK    3  A    between atoms: C4*_15  and  C5*_18
REMARK    4  A    between atoms: C5*_18  and  O5*_19
REMARK                            x       y       z     vdW  Elec       q    Type
REMARK                         _______ _______ _______ _____ _____    ______ ____
ROOT
ATOM      1  F   UNL     1      43.204  -7.106  13.945  0.00  0.00    +0.000 F 
ATOM      2  O   UNL     1      42.032  -4.477   9.338  0.00  0.00    +0.000 OA
ATOM      3  O   UNL     1      41.183  -7.986  12.172  0.00  0.00    +0.000 OA
ATOM      4  N   UNL     1      43.150  -4.509  11.428  0.00  0.00    +0.000 N 
ATOM      5  N   UNL     1      41.586  -6.160  10.828  0.00  0.00    +0.000 N 
ATOM      6  C   UNL     1      42.255  -4.974  10.435  0.00  0.00    +0.000 C 
ATOM      7  C   UNL     1      43.235  -5.230  12.565  0.00  0.00    +0.000 C 
ATOM      8  C   UNL     1      42.674  -6.304  13.006  0.00  0.00    +0.000 C 
ATOM      9  C   UNL     1      41.746  -6.912  11.999  0.00  0.00    +0.000 C 
ATOM     10  H   UNL     1      40.966  -6.551  10.134  0.00  0.00    +0.000 HD
ENDROOT
BRANCH   4  13
ATOM     11  O4* UNL     1      45.017  -3.349  10.420  0.00  0.00    +0.000 OA
ATOM     12  C3* UNL     1      44.815  -1.302  11.487  0.00  0.00    +0.000 A 
ATOM     13  C1* UNL     1      43.925  -3.393  11.296  0.00  0.00    +0.000 A 
ATOM     14  C2* UNL     1      43.790  -2.149  11.943  0.00  0.00    +0.000 A 
ATOM     15  C4* UNL     1      45.573  -2.068  10.528  0.00  0.00    +0.000 A 
BRANCH  12  16
ATOM     16  O3* UNL     1      44.685   0.055  11.389  0.00  0.00    +0.000 OA
ATOM     17  H3* UNL     1      45.214   0.524  12.060  0.00  0.00    +0.000 HD
ENDBRANCH  12  16
BRANCH  15  18
ATOM     18  C5* UNL     1      46.569  -1.599   9.649  0.00  0.00    +0.000 C 
BRANCH  18  19
ATOM     19  O5* UNL     1      47.512  -1.140   8.833  0.00  0.00    +0.000 OA
ATOM     20  H5* UNL     1      48.024  -0.434   9.263  0.00  0.00    +0.000 HD
ENDBRANCH  18  19
ENDBRANCH  15  18
ENDBRANCH   4  13
TORSDOF 4
ENDMDL
MODEL 3
REMARK VINA RESULT:      -5.7      3.014      6.038
REMARK  Name = 3363_5FluorouracilDeoxyriboside.pdbqt.pdb
REMARK  4 active torsions:
REMARK  status: ('A' for Active; 'I' for Inactive)
REMARK    1  A    between atoms: N_4  and  C1*_13
REMARK    2  A    between atoms: C3*_12  and  O3*_16
REMARK    3  A    between atoms: C4*_15  and  C5*_18
REMARK    4  A    between atoms: C5*_18  and  O5*_19
REMARK                            x       y       z     vdW  Elec       q    Type
REMARK                         _______ _______ _______ _____ _____    ______ ____
ROOT
ATOM      1  F   UNL     1      47.202  -1.397  13.040  0.00  0.00    +0.000 F 
ATOM      2  O   UNL     1      41.880  -1.986  13.961  0.00  0.00    +0.000 OA
ATOM      3  O   UNL     1      45.758   0.340  14.744  0.00  0.00    +0.000 OA
ATOM      4  N   UNL     1      43.798  -2.569  12.695  0.00  0.00    +0.000 N 
ATOM      5  N   UNL     1      43.823  -0.806  14.250  0.00  0.00    +0.000 N 
ATOM      6  C   UNL     1      43.052  -1.826  13.641  0.00  0.00    +0.000 C 
ATOM      7  C   UNL     1      45.086  -2.214  12.511  0.00  0.00    +0.000 C 
ATOM      8  C   UNL     1      45.861  -1.312  13.010  0.00  0.00    +0.000 C 
ATOM      9  C   UNL     1      45.180  -0.504  14.071  0.00  0.00    +0.000 C 
ATOM     10  H   UNL     1      43.343  -0.274  14.962  0.00  0.00    +0.000 HD
ENDROOT
BRANCH   4  13
ATOM     11  O4* UNL     1      42.863  -4.798  12.591  0.00  0.00    +0.000 OA
ATOM     12  C3* UNL     1      42.550  -4.973  10.302  0.00  0.00    +0.000 A 
ATOM     13  C1* UNL     1      43.294  -3.615  11.976  0.00  0.00    +0.000 A 
ATOM     14  C2* UNL     1      43.099  -3.710  10.584  0.00  0.00    +0.000 A 
ATOM     15  C4* UNL     1      42.403  -5.641  11.572  0.00  0.00    +0.000 A 
BRANCH  12  16
ATOM     16  O3* UNL     1      41.701  -5.210   9.257  0.00  0.00    +0.000 OA
ATOM     17  H3* UNL     1      41.059  -4.488   9.134  0.00  0.00    +0.000 HD
ENDBRANCH  12  16
BRANCH  15  18
ATOM     18  C5* UNL     1      41.714  -6.841  11.837  0.00  0.00    +0.000 C 
BRANCH  18  19
ATOM     19  O5* UNL     1      41.080  -7.979  12.099  0.00  0.00    +0.000 OA
ATOM     20  H5* UNL     1      41.572  -8.737  11.739  0.00  0.00    +0.000 HD
ENDBRANCH  18  19
ENDBRANCH  15  18
ENDBRANCH   4  13
TORSDOF 4
ENDMDL
MODEL 4
REMARK VINA RESULT:      -5.3      3.130      3.971
REMARK  Name = 3363_5FluorouracilDeoxyriboside.pdbqt.pdb
REMARK  4 active torsions:
REMARK  status: ('A' for Active; 'I' for Inactive)
REMARK    1  A    between atoms: N_4  and  C1*_13
REMARK    2  A    between atoms: C3*_12  and  O3*_16
REMARK    3  A    between atoms: C4*_15  and  C5*_18
REMARK    4  A    between atoms: C5*_18  and  O5*_19
REMARK                            x       y       z     vdW  Elec       q    Type
REMARK                         _______ _______ _______ _____ _____    ______ ____
ROOT
ATOM      1  F   UNL     1      44.309  -6.337  15.416  0.00  0.00    +0.000 F 
ATOM      2  O   UNL     1      43.079  -2.979  11.327  0.00  0.00    +0.000 OA
ATOM      3  O   UNL     1      42.755  -7.157  13.199  0.00  0.00    +0.000 OA
ATOM      4  N   UNL     1      43.935  -3.283  13.517  0.00  0.00    +0.000 N 
ATOM      5  N   UNL     1      42.872  -5.022  12.345  0.00  0.00    +0.000 N 
ATOM      6  C   UNL     1      43.288  -3.668  12.318  0.00  0.00    +0.000 C 
ATOM      7  C   UNL     1      44.059  -4.221  14.478  0.00  0.00    +0.000 C 
ATOM      8  C   UNL     1      43.715  -5.459  14.592  0.00  0.00    +0.000 C 
ATOM      9  C   UNL     1      43.070  -5.983  13.345  0.00  0.00    +0.000 C 
ATOM     10  H   UNL     1      42.440  -5.354  11.494  0.00  0.00    +0.000 HD
ENDROOT
BRANCH   4  13
ATOM     11  O4* UNL     1      43.701  -0.875  13.481  0.00  0.00    +0.000 OA
ATOM     12  C3* UNL     1      45.776  -0.278  14.325  0.00  0.00    +0.000 A 
ATOM     13  C1* UNL     1      44.442  -2.035  13.744  0.00  0.00    +0.000 A 
ATOM     14  C2* UNL     1      45.701  -1.681  14.265  0.00  0.00    +0.000 A 
ATOM     15  C4* UNL     1      44.510   0.212  13.834  0.00  0.00    +0.000 A 
BRANCH  12  16
ATOM     16  O3* UNL     1      46.500   0.400  15.264  0.00  0.00    +0.000 OA
ATOM     17  H3* UNL     1      45.962   0.637  16.041  0.00  0.00    +0.000 HD
ENDBRANCH  12  16
BRANCH  15  18
ATOM     18  C5* UNL     1      44.022   1.532  13.887  0.00  0.00    +0.000 C 
BRANCH  18  19
ATOM     19  O5* UNL     1      43.560   2.776  13.959  0.00  0.00    +0.000 OA
ATOM     20  H5* UNL     1      43.791   3.180  14.813  0.00  0.00    +0.000 HD
ENDBRANCH  18  19
ENDBRANCH  15  18
ENDBRANCH   4  13
TORSDOF 4
ENDMDL
MODEL 5
REMARK VINA RESULT:      -5.2      3.480      4.618
REMARK  Name = 3363_5FluorouracilDeoxyriboside.pdbqt.pdb
REMARK  4 active torsions:
REMARK  status: ('A' for Active; 'I' for Inactive)
REMARK    1  A    between atoms: N_4  and  C1*_13
REMARK    2  A    between atoms: C3*_12  and  O3*_16
REMARK    3  A    between atoms: C4*_15  and  C5*_18
REMARK    4  A    between atoms: C5*_18  and  O5*_19
REMARK                            x       y       z     vdW  Elec       q    Type
REMARK                         _______ _______ _______ _____ _____    ______ ____
ROOT
ATOM      1  F   UNL     1      41.989  -5.460  13.946  0.00  0.00    +0.000 F 
ATOM      2  O   UNL     1      44.065  -6.445   9.023  0.00  0.00    +0.000 OA
ATOM      3  O   UNL     1      40.988  -7.501  12.261  0.00  0.00    +0.000 OA
ATOM      4  N   UNL     1      43.918  -5.027  10.917  0.00  0.00    +0.000 N 
ATOM      5  N   UNL     1      42.492  -6.875  10.633  0.00  0.00    +0.000 N 
ATOM      6  C   UNL     1      43.559  -6.119  10.090  0.00  0.00    +0.000 C 
ATOM      7  C   UNL     1      43.219  -4.866  12.060  0.00  0.00    +0.000 C 
ATOM      8  C   UNL     1      42.245  -5.493  12.627  0.00  0.00    +0.000 C 
ATOM      9  C   UNL     1      41.828  -6.707  11.855  0.00  0.00    +0.000 C 
ATOM     10  H   UNL     1      42.228  -7.689  10.096  0.00  0.00    +0.000 HD
ENDROOT
BRANCH   4  13
ATOM     11  O4* UNL     1      46.172  -4.578  10.162  0.00  0.00    +0.000 OA
ATOM     12  C3* UNL     1      46.170  -2.266  10.312  0.00  0.00    +0.000 A 
ATOM     13  C1* UNL     1      44.923  -4.148  10.629  0.00  0.00    +0.000 A 
ATOM     14  C2* UNL     1      44.910  -2.743  10.716  0.00  0.00    +0.000 A 
ATOM     15  C4* UNL     1      46.947  -3.430   9.964  0.00  0.00    +0.000 A 
BRANCH  12  16
ATOM     16  O3* UNL     1      46.358  -1.058   9.700  0.00  0.00    +0.000 OA
ATOM     17  H3* UNL     1      46.174  -0.311  10.298  0.00  0.00    +0.000 HD
ENDBRANCH  12  16
BRANCH  15  18
ATOM     18  C5* UNL     1      48.197  -3.464   9.313  0.00  0.00    +0.000 C 
BRANCH  18  19
ATOM     19  O5* UNL     1      49.372  -3.517   8.696  0.00  0.00    +0.000 OA
ATOM     20  H5* UNL     1      49.795  -2.640   8.688  0.00  0.00    +0.000 HD
ENDBRANCH  18  19
ENDBRANCH  15  18
ENDBRANCH   4  13
TORSDOF 4
ENDMDL
MODEL 6
REMARK VINA RESULT:      -5.1      4.547      5.526
REMARK  Name = 3363_5FluorouracilDeoxyriboside.pdbqt.pdb
REMARK  4 active torsions:
REMARK  status: ('A' for Active; 'I' for Inactive)
REMARK    1  A    between atoms: N_4  and  C1*_13
REMARK    2  A    between atoms: C3*_12  and  O3*_16
REMARK    3  A    between atoms: C4*_15  and  C5*_18
REMARK    4  A    between atoms: C5*_18  and  O5*_19
REMARK                            x       y       z     vdW  Elec       q    Type
REMARK                         _______ _______ _______ _____ _____    ______ ____
ROOT
ATOM      1  F   UNL     1      48.754  -2.640  15.400  0.00  0.00    +0.000 F 
ATOM      2  O   UNL     1      44.170  -5.412  14.498  0.00  0.00    +0.000 OA
ATOM      3  O   UNL     1      48.481  -5.375  16.071  0.00  0.00    +0.000 OA
ATOM      4  N   UNL     1      45.294  -3.328  14.603  0.00  0.00    +0.000 N 
ATOM      5  N   UNL     1      46.295  -5.319  15.351  0.00  0.00    +0.000 N 
ATOM      6  C   UNL     1      45.143  -4.723  14.782  0.00  0.00    +0.000 C 
ATOM      7  C   UNL     1      46.467  -2.782  14.985  0.00  0.00    +0.000 C 
ATOM      8  C   UNL     1      47.555  -3.237  15.507  0.00  0.00    +0.000 C 
ATOM      9  C   UNL     1      47.519  -4.724  15.684  0.00  0.00    +0.000 C 
ATOM     10  H   UNL     1      46.248  -6.322  15.461  0.00  0.00    +0.000 HD
ENDROOT
BRANCH   4  13
ATOM     11  O4* UNL     1      43.195  -2.139  14.782  0.00  0.00    +0.000 OA
ATOM     12  C3* UNL     1      43.123  -1.173  12.677  0.00  0.00    +0.000 A 
ATOM     13  C1* UNL     1      44.335  -2.518  14.063  0.00  0.00    +0.000 A 
ATOM     14  C2* UNL     1      44.304  -1.928  12.785  0.00  0.00    +0.000 A 
ATOM     15  C4* UNL     1      42.441  -1.311  13.941  0.00  0.00    +0.000 A 
BRANCH  12  16
ATOM     16  O3* UNL     1      43.017  -0.042  11.918  0.00  0.00    +0.000 OA
ATOM     17  H3* UNL     1      43.817   0.511  11.969  0.00  0.00    +0.000 HD
ENDBRANCH  12  16
BRANCH  15  18
ATOM     18  C5* UNL     1      41.323  -0.585  14.398  0.00  0.00    +0.000 C 
BRANCH  18  19
ATOM     19  O5* UNL     1      40.258   0.082  14.827  0.00  0.00    +0.000 OA
ATOM     20  H5* UNL     1      40.309   1.017  14.563  0.00  0.00    +0.000 HD
ENDBRANCH  18  19
ENDBRANCH  15  18
ENDBRANCH   4  13
TORSDOF 4
ENDMDL
MODEL 7
REMARK VINA RESULT:      -5.1      3.529      4.717
REMARK  Name = 3363_5FluorouracilDeoxyriboside.pdbqt.pdb
REMARK  4 active torsions:
REMARK  status: ('A' for Active; 'I' for Inactive)
REMARK    1  A    between atoms: N_4  and  C1*_13
REMARK    2  A    between atoms: C3*_12  and  O3*_16
REMARK    3  A    between atoms: C4*_15  and  C5*_18
REMARK    4  A    between atoms: C5*_18  and  O5*_19
REMARK                            x       y       z     vdW  Elec       q    Type
REMARK                         _______ _______ _______ _____ _____    ______ ____
ROOT
ATOM      1  F   UNL     1      42.734  -4.615  15.801  0.00  0.00    +0.000 F 
ATOM      2  O   UNL     1      44.026  -2.655  10.902  0.00  0.00    +0.000 OA
ATOM      3  O   UNL     1      42.544  -6.174  13.448  0.00  0.00    +0.000 OA
ATOM      4  N   UNL     1      43.581  -2.254  13.196  0.00  0.00    +0.000 N 
ATOM      5  N   UNL     1      43.206  -4.353  12.204  0.00  0.00    +0.000 N 
ATOM      6  C   UNL     1      43.644  -3.020  12.007  0.00  0.00    +0.000 C 
ATOM      7  C   UNL     1      43.129  -2.875  14.304  0.00  0.00    +0.000 C 
ATOM      8  C   UNL     1      42.712  -4.065  14.575  0.00  0.00    +0.000 C 
ATOM      9  C   UNL     1      42.796  -4.977  13.389  0.00  0.00    +0.000 C 
ATOM     10  H   UNL     1      43.272  -4.949  11.392  0.00  0.00    +0.000 HD
ENDROOT
BRANCH   4  13
ATOM     11  O4* UNL     1      45.130  -0.468  12.682  0.00  0.00    +0.000 OA
ATOM     12  C3* UNL     1      44.048   1.289  13.738  0.00  0.00    +0.000 A 
ATOM     13  C1* UNL     1      43.956  -0.943  13.281  0.00  0.00    +0.000 A 
ATOM     14  C2* UNL     1      43.287   0.120  13.918  0.00  0.00    +0.000 A 
ATOM     15  C4* UNL     1      45.198   0.903  12.956  0.00  0.00    +0.000 A 
BRANCH  12  16
ATOM     16  O3* UNL     1      43.502   2.539  13.655  0.00  0.00    +0.000 OA
ATOM     17  H3* UNL     1      43.325   2.802  12.734  0.00  0.00    +0.000 HD
ENDBRANCH  12  16
BRANCH  15  18
ATOM     18  C5* UNL     1      46.144   1.750  12.346  0.00  0.00    +0.000 C 
BRANCH  18  19
ATOM     19  O5* UNL     1      47.046   2.532  11.763  0.00  0.00    +0.000 OA
ATOM     20  H5* UNL     1      47.382   2.120  10.948  0.00  0.00    +0.000 HD
ENDBRANCH  18  19
ENDBRANCH  15  18
ENDBRANCH   4  13
TORSDOF 4
ENDMDL
MODEL 8
REMARK VINA RESULT:      -5.0     15.839     17.077
REMARK  Name = 3363_5FluorouracilDeoxyriboside.pdbqt.pdb
REMARK  4 active torsions:
REMARK  status: ('A' for Active; 'I' for Inactive)
REMARK    1  A    between atoms: N_4  and  C1*_13
REMARK    2  A    between atoms: C3*_12  and  O3*_16
REMARK    3  A    between atoms: C4*_15  and  C5*_18
REMARK    4  A    between atoms: C5*_18  and  O5*_19
REMARK                            x       y       z     vdW  Elec       q    Type
REMARK                         _______ _______ _______ _____ _____    ______ ____
ROOT
ATOM      1  F   UNL     1      42.680   8.089  22.773  0.00  0.00    +0.000 F 
ATOM      2  O   UNL     1      37.383   7.923  21.581  0.00  0.00    +0.000 OA
ATOM      3  O   UNL     1      40.702   7.594  24.734  0.00  0.00    +0.000 OA
ATOM      4  N   UNL     1      39.596   8.458  20.921  0.00  0.00    +0.000 N 
ATOM      5  N   UNL     1      39.068   7.856  23.132  0.00  0.00    +0.000 N 
ATOM      6  C   UNL     1      38.574   8.076  21.823  0.00  0.00    +0.000 C 
ATOM      7  C   UNL     1      40.847   8.557  21.415  0.00  0.00    +0.000 C 
ATOM      8  C   UNL     1      41.384   8.382  22.575  0.00  0.00    +0.000 C 
ATOM      9  C   UNL     1      40.390   7.916  23.594  0.00  0.00    +0.000 C 
ATOM     10  H   UNL     1      38.381   7.543  23.802  0.00  0.00    +0.000 HD
ENDROOT
BRANCH   4  13
ATOM     11  O4* UNL     1      38.306   8.172  18.894  0.00  0.00    +0.000 OA
ATOM     12  C3* UNL     1      39.545   9.507  17.462  0.00  0.00    +0.000 A 
ATOM     13  C1* UNL     1      39.388   8.719  19.596  0.00  0.00    +0.000 A 
ATOM     14  C2* UNL     1      40.142   9.539  18.735  0.00  0.00    +0.000 A 
ATOM     15  C4* UNL     1      38.392   8.649  17.581  0.00  0.00    +0.000 A 
BRANCH  12  16
ATOM     16  O3* UNL     1      39.581  10.555  16.585  0.00  0.00    +0.000 OA
ATOM     17  H3* UNL     1      40.460  10.974  16.550  0.00  0.00    +0.000 HD
ENDBRANCH  12  16
BRANCH  15  18
ATOM     18  C5* UNL     1      37.361   8.462  16.640  0.00  0.00    +0.000 C 
BRANCH  18  19
ATOM     19  O5* UNL     1      36.397   8.268  15.746  0.00  0.00    +0.000 OA
ATOM     20  H5* UNL     1      36.765   7.923  14.913  0.00  0.00    +0.000 HD
ENDBRANCH  18  19
ENDBRANCH  15  18
ENDBRANCH   4  13
TORSDOF 4
ENDMDL
MODEL 9
REMARK VINA RESULT:      -4.6     15.230     16.851
REMARK  Name = 3363_5FluorouracilDeoxyriboside.pdbqt.pdb
REMARK  4 active torsions:
REMARK  status: ('A' for Active; 'I' for Inactive)
REMARK    1  A    between atoms: N_4  and  C1*_13
REMARK    2  A    between atoms: C3*_12  and  O3*_16
REMARK    3  A    between atoms: C4*_15  and  C5*_18
REMARK    4  A    between atoms: C5*_18  and  O5*_19
REMARK                            x       y       z     vdW  Elec       q    Type
REMARK                         _______ _______ _______ _____ _____    ______ ____
ROOT
ATOM      1  F   UNL     1      34.104  -1.562  -6.220  0.00  0.00    +0.000 F 
ATOM      2  O   UNL     1      36.600  -1.798  -1.401  0.00  0.00    +0.000 OA
ATOM      3  O   UNL     1      36.800  -0.780  -5.872  0.00  0.00    +0.000 OA
ATOM      4  N   UNL     1      34.589  -1.899  -2.652  0.00  0.00    +0.000 N 
ATOM      5  N   UNL     1      36.623  -1.222  -3.618  0.00  0.00    +0.000 N 
ATOM      6  C   UNL     1      35.968  -1.660  -2.441  0.00  0.00    +0.000 C 
ATOM      7  C   UNL     1      34.110  -1.683  -3.894  0.00  0.00    +0.000 C 
ATOM      8  C   UNL     1      34.621  -1.288  -5.011  0.00  0.00    +0.000 C 
ATOM      9  C   UNL     1      36.099  -1.063  -4.908  0.00  0.00    +0.000 C 
ATOM     10  H   UNL     1      37.618  -1.077  -3.526  0.00  0.00    +0.000 HD
ENDROOT
BRANCH   4  13
ATOM     11  O4* UNL     1      34.026  -3.452  -0.884  0.00  0.00    +0.000 OA
ATOM     12  C3* UNL     1      31.972  -2.583  -0.255  0.00  0.00    +0.000 A 
ATOM     13  C1* UNL     1      33.733  -2.338  -1.683  0.00  0.00    +0.000 A 
ATOM     14  C2* UNL     1      32.489  -1.799  -1.301  0.00  0.00    +0.000 A 
ATOM     15  C4* UNL     1      32.950  -3.612  -0.002  0.00  0.00    +0.000 A 
BRANCH  12  16
ATOM     16  O3* UNL     1      31.171  -2.087   0.735  0.00  0.00    +0.000 OA
ATOM     17  H3* UNL     1      30.277  -2.473   0.712  0.00  0.00    +0.000 HD
ENDBRANCH  12  16
BRANCH  15  18
ATOM     18  C5* UNL     1      32.988  -4.515   1.079  0.00  0.00    +0.000 C 
BRANCH  18  19
ATOM     19  O5* UNL     1      33.024  -5.382   2.085  0.00  0.00    +0.000 OA
ATOM     20  H5* UNL     1      32.228  -5.299   2.638  0.00  0.00    +0.000 HD
ENDBRANCH  18  19
ENDBRANCH  15  18
ENDBRANCH   4  13
TORSDOF 4
ENDMDL
