MODEL 1
REMARK VINA RESULT:      -4.2      0.000      0.000
REMARK  Name = 3385_5Fluorouracil.pdbqt.pdb
REMARK  0 active torsions:
REMARK  status: ('A' for Active; 'I' for Inactive)
REMARK                            x       y       z     vdW  Elec       q    Type
REMARK                         _______ _______ _______ _____ _____    ______ ____
ROOT
ATOM      1  F   UNL     1      43.603  -7.270   8.153  0.00  0.00    +0.000 F 
ATOM      2  O   UNL     1      45.178  -7.010  10.493  0.00  0.00    +0.000 OA
ATOM      3  O   UNL     1      41.466  -5.661  12.876  0.00  0.00    +0.000 OA
ATOM      4  N   UNL     1      43.335  -6.271  11.658  0.00  0.00    +0.000 N 
ATOM      5  N   UNL     1      41.288  -5.981  10.602  0.00  0.00    +0.000 N 
ATOM      6  C   UNL     1      44.006  -6.653  10.487  0.00  0.00    +0.000 C 
ATOM      7  C   UNL     1      41.980  -5.943  11.804  0.00  0.00    +0.000 C 
ATOM      8  C   UNL     1      43.172  -6.605   9.238  0.00  0.00    +0.000 C 
ATOM      9  C   UNL     1      41.940  -6.305   9.476  0.00  0.00    +0.000 C 
ATOM     10  H   UNL     1      43.877  -6.295  12.509  0.00  0.00    +0.000 HD
ATOM     11  H   UNL     1      40.300  -5.764  10.600  0.00  0.00    +0.000 HD
ENDROOT
TORSDOF 0
ENDMDL
MODEL 2
REMARK VINA RESULT:      -4.2      2.224      2.870
REMARK  Name = 3385_5Fluorouracil.pdbqt.pdb
REMARK  0 active torsions:
REMARK  status: ('A' for Active; 'I' for Inactive)
REMARK                            x       y       z     vdW  Elec       q    Type
REMARK                         _______ _______ _______ _____ _____    ______ ____
ROOT
ATOM      1  F   UNL     1      40.608  -6.454   9.869  0.00  0.00    +0.000 F 
ATOM      2  O   UNL     1      42.704  -7.201   8.117  0.00  0.00    +0.000 OA
ATOM      3  O   UNL     1      45.808  -6.360  11.424  0.00  0.00    +0.000 OA
ATOM      4  N   UNL     1      44.251  -6.713   9.750  0.00  0.00    +0.000 N 
ATOM      5  N   UNL     1      43.594  -5.848  11.801  0.00  0.00    +0.000 N 
ATOM      6  C   UNL     1      42.952  -6.736   9.223  0.00  0.00    +0.000 C 
ATOM      7  C   UNL     1      44.652  -6.307  11.030  0.00  0.00    +0.000 C 
ATOM      8  C   UNL     1      41.894  -6.164  10.124  0.00  0.00    +0.000 C 
ATOM      9  C   UNL     1      42.358  -5.830  11.282  0.00  0.00    +0.000 C 
ATOM     10  H   UNL     1      44.977  -7.091   9.160  0.00  0.00    +0.000 HD
ATOM     11  H   UNL     1      43.777  -5.535  12.746  0.00  0.00    +0.000 HD
ENDROOT
TORSDOF 0
ENDMDL
MODEL 3
REMARK VINA RESULT:      -4.2      6.976      7.814
REMARK  Name = 3385_5Fluorouracil.pdbqt.pdb
REMARK  0 active torsions:
REMARK  status: ('A' for Active; 'I' for Inactive)
REMARK                            x       y       z     vdW  Elec       q    Type
REMARK                         _______ _______ _______ _____ _____    ______ ____
ROOT
ATOM      1  F   UNL     1      39.977  -0.613  15.165  0.00  0.00    +0.000 F 
ATOM      2  O   UNL     1      41.838  -2.576  14.325  0.00  0.00    +0.000 OA
ATOM      3  O   UNL     1      45.008   0.697  13.605  0.00  0.00    +0.000 OA
ATOM      4  N   UNL     1      43.391  -0.931  13.902  0.00  0.00    +0.000 N 
ATOM      5  N   UNL     1      42.866   1.313  14.185  0.00  0.00    +0.000 N 
ATOM      6  C   UNL     1      42.108  -1.384  14.241  0.00  0.00    +0.000 C 
ATOM      7  C   UNL     1      43.855   0.392  13.871  0.00  0.00    +0.000 C 
ATOM      8  C   UNL     1      41.104  -0.298  14.507  0.00  0.00    +0.000 C 
ATOM      9  C   UNL     1      41.628   0.881  14.467  0.00  0.00    +0.000 C 
ATOM     10  H   UNL     1      44.081  -1.644  13.718  0.00  0.00    +0.000 HD
ATOM     11  H   UNL     1      43.100   2.297  14.195  0.00  0.00    +0.000 HD
ENDROOT
TORSDOF 0
ENDMDL
MODEL 4
REMARK VINA RESULT:      -4.1      2.830      3.505
REMARK  Name = 3385_5Fluorouracil.pdbqt.pdb
REMARK  0 active torsions:
REMARK  status: ('A' for Active; 'I' for Inactive)
REMARK                            x       y       z     vdW  Elec       q    Type
REMARK                         _______ _______ _______ _____ _____    ______ ____
ROOT
ATOM      1  F   UNL     1      43.224  -6.406  13.581  0.00  0.00    +0.000 F 
ATOM      2  O   UNL     1      41.164  -7.779  12.206  0.00  0.00    +0.000 OA
ATOM      3  O   UNL     1      41.533  -4.845   8.665  0.00  0.00    +0.000 OA
ATOM      4  N   UNL     1      41.306  -6.270  10.474  0.00  0.00    +0.000 N 
ATOM      5  N   UNL     1      42.763  -4.465  10.575  0.00  0.00    +0.000 N 
ATOM      6  C   UNL     1      41.629  -6.739  11.755  0.00  0.00    +0.000 C 
ATOM      7  C   UNL     1      41.841  -5.159   9.806  0.00  0.00    +0.000 C 
ATOM      8  C   UNL     1      42.595  -5.878  12.519  0.00  0.00    +0.000 C 
ATOM      9  C   UNL     1      43.039  -4.890  11.817  0.00  0.00    +0.000 C 
ATOM     10  H   UNL     1      40.657  -6.833   9.944  0.00  0.00    +0.000 HD
ATOM     11  H   UNL     1      43.212  -3.649  10.181  0.00  0.00    +0.000 HD
ENDROOT
TORSDOF 0
ENDMDL
MODEL 5
REMARK VINA RESULT:      -3.9     34.115     34.880
REMARK  Name = 3385_5Fluorouracil.pdbqt.pdb
REMARK  0 active torsions:
REMARK  status: ('A' for Active; 'I' for Inactive)
REMARK                            x       y       z     vdW  Elec       q    Type
REMARK                         _______ _______ _______ _____ _____    ______ ____
ROOT
ATOM      1  F   UNL     1      22.336  19.593   0.571  0.00  0.00    +0.000 F 
ATOM      2  O   UNL     1      23.611  19.398   3.093  0.00  0.00    +0.000 OA
ATOM      3  O   UNL     1      25.078  23.756   2.719  0.00  0.00    +0.000 OA
ATOM      4  N   UNL     1      24.397  21.550   2.867  0.00  0.00    +0.000 N 
ATOM      5  N   UNL     1      23.989  22.778   0.940  0.00  0.00    +0.000 N 
ATOM      6  C   UNL     1      23.756  20.396   2.396  0.00  0.00    +0.000 C 
ATOM      7  C   UNL     1      24.538  22.782   2.214  0.00  0.00    +0.000 C 
ATOM      8  C   UNL     1      23.249  20.486   0.984  0.00  0.00    +0.000 C 
ATOM      9  C   UNL     1      23.413  21.660   0.474  0.00  0.00    +0.000 C 
ATOM     10  H   UNL     1      24.747  21.510   3.813  0.00  0.00    +0.000 HD
ATOM     11  H   UNL     1      24.034  23.623   0.386  0.00  0.00    +0.000 HD
ENDROOT
TORSDOF 0
ENDMDL
MODEL 6
REMARK VINA RESULT:      -3.8     14.860     15.548
REMARK  Name = 3385_5Fluorouracil.pdbqt.pdb
REMARK  0 active torsions:
REMARK  status: ('A' for Active; 'I' for Inactive)
REMARK                            x       y       z     vdW  Elec       q    Type
REMARK                         _______ _______ _______ _____ _____    ______ ____
ROOT
ATOM      1  F   UNL     1      29.988  -4.919  12.571  0.00  0.00    +0.000 F 
ATOM      2  O   UNL     1      27.421  -4.097  11.700  0.00  0.00    +0.000 OA
ATOM      3  O   UNL     1      26.628  -2.131  15.796  0.00  0.00    +0.000 OA
ATOM      4  N   UNL     1      27.006  -3.179  13.769  0.00  0.00    +0.000 N 
ATOM      5  N   UNL     1      28.555  -3.356  15.489  0.00  0.00    +0.000 N 
ATOM      6  C   UNL     1      27.768  -3.931  12.863  0.00  0.00    +0.000 C 
ATOM      7  C   UNL     1      27.336  -2.830  15.086  0.00  0.00    +0.000 C 
ATOM      8  C   UNL     1      29.042  -4.496  13.425  0.00  0.00    +0.000 C 
ATOM      9  C   UNL     1      29.263  -4.110  14.636  0.00  0.00    +0.000 C 
ATOM     10  H   UNL     1      26.146  -2.791  13.412  0.00  0.00    +0.000 HD
ATOM     11  H   UNL     1      28.887  -3.157  16.424  0.00  0.00    +0.000 HD
ENDROOT
TORSDOF 0
ENDMDL
MODEL 7
REMARK VINA RESULT:      -3.8      2.913      3.353
REMARK  Name = 3385_5Fluorouracil.pdbqt.pdb
REMARK  0 active torsions:
REMARK  status: ('A' for Active; 'I' for Inactive)
REMARK                            x       y       z     vdW  Elec       q    Type
REMARK                         _______ _______ _______ _____ _____    ______ ____
ROOT
ATOM      1  F   UNL     1      44.773  -5.507  12.889  0.00  0.00    +0.000 F 
ATOM      2  O   UNL     1      46.205  -4.950  10.509  0.00  0.00    +0.000 OA
ATOM      3  O   UNL     1      43.107  -7.328   8.055  0.00  0.00    +0.000 OA
ATOM      4  N   UNL     1      44.693  -6.196   9.301  0.00  0.00    +0.000 N 
ATOM      5  N   UNL     1      42.950  -7.313  10.353  0.00  0.00    +0.000 N 
ATOM      6  C   UNL     1      45.243  -5.709  10.496  0.00  0.00    +0.000 C 
ATOM      7  C   UNL     1      43.543  -6.982   9.143  0.00  0.00    +0.000 C 
ATOM      8  C   UNL     1      44.553  -6.176  11.746  0.00  0.00    +0.000 C 
ATOM      9  C   UNL     1      43.502  -6.882  11.497  0.00  0.00    +0.000 C 
ATOM     10  H   UNL     1      45.143  -5.896   8.449  0.00  0.00    +0.000 HD
ATOM     11  H   UNL     1      42.109  -7.874  10.347  0.00  0.00    +0.000 HD
ENDROOT
TORSDOF 0
ENDMDL
MODEL 8
REMARK VINA RESULT:      -3.6     17.966     19.095
REMARK  Name = 3385_5Fluorouracil.pdbqt.pdb
REMARK  0 active torsions:
REMARK  status: ('A' for Active; 'I' for Inactive)
REMARK                            x       y       z     vdW  Elec       q    Type
REMARK                         _______ _______ _______ _____ _____    ______ ____
ROOT
ATOM      1  F   UNL     1      25.526  -3.661  15.382  0.00  0.00    +0.000 F 
ATOM      2  O   UNL     1      27.047  -2.394  13.357  0.00  0.00    +0.000 OA
ATOM      3  O   UNL     1      23.574   0.529  12.537  0.00  0.00    +0.000 OA
ATOM      4  N   UNL     1      25.284  -0.984  12.907  0.00  0.00    +0.000 N 
ATOM      5  N   UNL     1      23.264  -1.197  14.031  0.00  0.00    +0.000 N 
ATOM      6  C   UNL     1      25.876  -2.084  13.544  0.00  0.00    +0.000 C 
ATOM      7  C   UNL     1      23.997  -0.465  13.108  0.00  0.00    +0.000 C 
ATOM      8  C   UNL     1      24.972  -2.834  14.481  0.00  0.00    +0.000 C 
ATOM      9  C   UNL     1      23.817  -2.273  14.608  0.00  0.00    +0.000 C 
ATOM     10  H   UNL     1      25.874  -0.467  12.272  0.00  0.00    +0.000 HD
ATOM     11  H   UNL     1      22.322  -0.901  14.251  0.00  0.00    +0.000 HD
ENDROOT
TORSDOF 0
ENDMDL
MODEL 9
REMARK VINA RESULT:      -3.6      6.444      6.879
REMARK  Name = 3385_5Fluorouracil.pdbqt.pdb
REMARK  0 active torsions:
REMARK  status: ('A' for Active; 'I' for Inactive)
REMARK                            x       y       z     vdW  Elec       q    Type
REMARK                         _______ _______ _______ _____ _____    ______ ____
ROOT
ATOM      1  F   UNL     1      42.198  -1.884  14.653  0.00  0.00    +0.000 F 
ATOM      2  O   UNL     1      45.017  -2.103  14.831  0.00  0.00    +0.000 OA
ATOM      3  O   UNL     1      45.495   0.759  11.245  0.00  0.00    +0.000 OA
ATOM      4  N   UNL     1      45.245  -0.730  12.998  0.00  0.00    +0.000 N 
ATOM      5  N   UNL     1      43.385   0.068  11.861  0.00  0.00    +0.000 N 
ATOM      6  C   UNL     1      44.496  -1.493  13.905  0.00  0.00    +0.000 C 
ATOM      7  C   UNL     1      44.768   0.091  11.967  0.00  0.00    +0.000 C 
ATOM      8  C   UNL     1      43.013  -1.487  13.662  0.00  0.00    +0.000 C 
ATOM      9  C   UNL     1      42.672  -0.695  12.702  0.00  0.00    +0.000 C 
ATOM     10  H   UNL     1      46.244  -0.721  13.143  0.00  0.00    +0.000 HD
ATOM     11  H   UNL     1      42.940   0.632  11.149  0.00  0.00    +0.000 HD
ENDROOT
TORSDOF 0
ENDMDL
