MODEL 1
REMARK VINA RESULT:      -6.9      0.000      0.000
REMARK  Name = 342374_SipholenolA.pdbqt.pdb
REMARK  5 active torsions:
REMARK  status: ('A' for Active; 'I' for Inactive)
REMARK    1  A    between atoms: C_3  and  C_20
REMARK    2  A    between atoms: C_4  and  O_16
REMARK    3  A    between atoms: C_13  and  O_18
REMARK    4  A    between atoms: C_21  and  C_25
REMARK    5  A    between atoms: C_26  and  O_36
REMARK                            x       y       z     vdW  Elec       q    Type
REMARK                         _______ _______ _______ _____ _____    ______ ____
ROOT
ATOM      1  O   UNL     1      50.771  -2.901  20.006  0.00  0.00    +0.000 OA
ATOM      2  C   UNL     1      49.803  -4.034  17.861  0.00  0.00    +0.000 C 
ATOM      3  C   UNL     1      48.825  -5.101  17.362  0.00  0.00    +0.000 C 
ATOM      4  C   UNL     1      48.755  -6.448  18.061  0.00  0.00    +0.000 C 
ATOM      5  C   UNL     1      50.062  -3.962  19.430  0.00  0.00    +0.000 C 
ATOM      6  C   UNL     1      49.270  -2.688  17.594  0.00  0.00    +0.000 C 
ATOM      7  C   UNL     1      49.324  -6.317  19.388  0.00  0.00    +0.000 C 
ATOM      8  C   UNL     1      49.950  -5.182  20.124  0.00  0.00    +0.000 C 
ATOM      9  C   UNL     1      51.177  -4.223  17.161  0.00  0.00    +0.000 C 
ATOM     10  C   UNL     1      49.138  -1.325  18.228  0.00  0.00    +0.000 C 
ATOM     11  C   UNL     1      50.028  -1.773  20.575  0.00  0.00    +0.000 C 
ATOM     12  C   UNL     1      47.310  -6.965  18.117  0.00  0.00    +0.000 C 
ATOM     13  C   UNL     1      49.500  -0.794  19.485  0.00  0.00    +0.000 C 
ATOM     14  C   UNL     1      48.822  -2.246  21.439  0.00  0.00    +0.000 C 
ATOM     15  C   UNL     1      51.024  -0.973  21.466  0.00  0.00    +0.000 C 
ENDROOT
BRANCH   4  16
ATOM     16  O   UNL     1      49.474  -7.405  17.324  0.00  0.00    +0.000 OA
ATOM     17  H   UNL     1      49.769  -8.007  18.031  0.00  0.00    +0.000 HD
ENDBRANCH   4  16
BRANCH  13  18
ATOM     18  O   UNL     1      49.383   0.576  19.696  0.00  0.00    +0.000 OA
ATOM     19  H   UNL     1      49.797   0.844  20.544  0.00  0.00    +0.000 HD
ENDBRANCH  13  18
BRANCH   3  20
ATOM     20  C   UNL     1      48.150  -4.917  16.103  0.00  0.00    +0.000 C 
ATOM     21  C   UNL     1      47.447  -4.712  14.758  0.00  0.00    +0.000 C 
BRANCH  21  25
ATOM     22  C   UNL     1      44.188  -4.729  13.242  0.00  0.00    +0.000 C 
ATOM     23  C   UNL     1      45.427  -3.801  13.372  0.00  0.00    +0.000 C 
ATOM     24  C   UNL     1      43.972  -5.741  12.154  0.00  0.00    +0.000 C 
ATOM     25  C   UNL     1      46.794  -4.515  13.495  0.00  0.00    +0.000 C 
ATOM     26  C   UNL     1      42.523  -6.202  12.049  0.00  0.00    +0.000 C 
ATOM     27  C   UNL     1      42.909  -4.535  13.845  0.00  0.00    +0.000 C 
ATOM     28  C   UNL     1      41.926  -5.412  13.119  0.00  0.00    +0.000 C 
ATOM     29  C   UNL     1      45.103  -6.150  11.424  0.00  0.00    +0.000 C 
ATOM     30  C   UNL     1      47.383  -5.154  12.318  0.00  0.00    +0.000 C 
ATOM     31  C   UNL     1      45.219  -2.904  14.650  0.00  0.00    +0.000 C 
ATOM     32  C   UNL     1      45.439  -2.828  12.144  0.00  0.00    +0.000 C 
ATOM     33  C   UNL     1      46.565  -5.822  11.568  0.00  0.00    +0.000 C 
ATOM     34  C   UNL     1      42.381  -7.711  12.193  0.00  0.00    +0.000 C 
ATOM     35  C   UNL     1      48.850  -5.461  12.176  0.00  0.00    +0.000 C 
BRANCH  26  36
ATOM     36  O   UNL     1      41.988  -5.849  10.800  0.00  0.00    +0.000 OA
ATOM     37  H   UNL     1      42.071  -4.880  10.831  0.00  0.00    +0.000 HD
ENDBRANCH  26  36
ENDBRANCH  21  25
ENDBRANCH   3  20
TORSDOF 5
ENDMDL
MODEL 2
REMARK VINA RESULT:      -6.3     11.913     15.662
REMARK  Name = 342374_SipholenolA.pdbqt.pdb
REMARK  5 active torsions:
REMARK  status: ('A' for Active; 'I' for Inactive)
REMARK    1  A    between atoms: C_3  and  C_20
REMARK    2  A    between atoms: C_4  and  O_16
REMARK    3  A    between atoms: C_13  and  O_18
REMARK    4  A    between atoms: C_21  and  C_25
REMARK    5  A    between atoms: C_26  and  O_36
REMARK                            x       y       z     vdW  Elec       q    Type
REMARK                         _______ _______ _______ _____ _____    ______ ____
ROOT
ATOM      1  O   UNL     1      38.291  11.079  21.209  0.00  0.00    +0.000 OA
ATOM      2  C   UNL     1      39.728   8.899  21.292  0.00  0.00    +0.000 C 
ATOM      3  C   UNL     1      40.682   8.017  20.482  0.00  0.00    +0.000 C 
ATOM      4  C   UNL     1      40.379   7.718  19.023  0.00  0.00    +0.000 C 
ATOM      5  C   UNL     1      39.014  10.096  20.523  0.00  0.00    +0.000 C 
ATOM      6  C   UNL     1      40.469   9.627  22.335  0.00  0.00    +0.000 C 
ATOM      7  C   UNL     1      39.452   8.715  18.523  0.00  0.00    +0.000 C 
ATOM      8  C   UNL     1      38.767   9.881  19.153  0.00  0.00    +0.000 C 
ATOM      9  C   UNL     1      38.620   8.016  21.929  0.00  0.00    +0.000 C 
ATOM     10  C   UNL     1      40.558  10.985  22.987  0.00  0.00    +0.000 C 
ATOM     11  C   UNL     1      38.951  12.343  21.547  0.00  0.00    +0.000 C 
ATOM     12  C   UNL     1      41.668   7.681  18.189  0.00  0.00    +0.000 C 
ATOM     13  C   UNL     1      39.896  12.214  22.779  0.00  0.00    +0.000 C 
ATOM     14  C   UNL     1      39.774  12.908  20.352  0.00  0.00    +0.000 C 
ATOM     15  C   UNL     1      37.831  13.354  21.932  0.00  0.00    +0.000 C 
ENDROOT
BRANCH   4  16
ATOM     16  O   UNL     1      39.812   6.437  18.906  0.00  0.00    +0.000 OA
ATOM     17  H   UNL     1      39.713   6.186  19.842  0.00  0.00    +0.000 HD
ENDBRANCH   4  16
BRANCH  13  18
ATOM     18  O   UNL     1      40.100  13.251  23.683  0.00  0.00    +0.000 OA
ATOM     19  H   UNL     1      40.404  12.914  24.552  0.00  0.00    +0.000 HD
ENDBRANCH  13  18
BRANCH   3  20
ATOM     20  C   UNL     1      41.723   7.286  21.156  0.00  0.00    +0.000 C 
ATOM     21  C   UNL     1      42.821   6.496  21.874  0.00  0.00    +0.000 C 
BRANCH  21  25
ATOM     22  C   UNL     1      44.469   3.302  21.823  0.00  0.00    +0.000 C 
ATOM     23  C   UNL     1      44.821   4.814  21.795  0.00  0.00    +0.000 C 
ATOM     24  C   UNL     1      44.327   2.467  23.062  0.00  0.00    +0.000 C 
ATOM     25  C   UNL     1      43.844   5.748  22.549  0.00  0.00    +0.000 C 
ATOM     26  C   UNL     1      44.384   0.970  22.781  0.00  0.00    +0.000 C 
ATOM     27  C   UNL     1      44.609   2.374  20.748  0.00  0.00    +0.000 C 
ATOM     28  C   UNL     1      44.564   0.989  21.334  0.00  0.00    +0.000 C 
ATOM     29  C   UNL     1      44.125   3.148  24.276  0.00  0.00    +0.000 C 
ATOM     30  C   UNL     1      43.844   5.764  24.012  0.00  0.00    +0.000 C 
ATOM     31  C   UNL     1      44.873   5.265  20.287  0.00  0.00    +0.000 C 
ATOM     32  C   UNL     1      46.272   4.989  22.360  0.00  0.00    +0.000 C 
ATOM     33  C   UNL     1      43.937   4.608  24.591  0.00  0.00    +0.000 C 
ATOM     34  C   UNL     1      43.144   0.237  23.275  0.00  0.00    +0.000 C 
ATOM     35  C   UNL     1      43.311   6.903  24.840  0.00  0.00    +0.000 C 
BRANCH  26  36
ATOM     36  O   UNL     1      45.493   0.394  23.421  0.00  0.00    +0.000 OA
ATOM     37  H   UNL     1      46.224   0.854  22.973  0.00  0.00    +0.000 HD
ENDBRANCH  26  36
ENDBRANCH  21  25
ENDBRANCH   3  20
TORSDOF 5
ENDMDL
MODEL 3
REMARK VINA RESULT:      -6.1      2.379      3.866
REMARK  Name = 342374_SipholenolA.pdbqt.pdb
REMARK  5 active torsions:
REMARK  status: ('A' for Active; 'I' for Inactive)
REMARK    1  A    between atoms: C_3  and  C_20
REMARK    2  A    between atoms: C_4  and  O_16
REMARK    3  A    between atoms: C_13  and  O_18
REMARK    4  A    between atoms: C_21  and  C_25
REMARK    5  A    between atoms: C_26  and  O_36
REMARK                            x       y       z     vdW  Elec       q    Type
REMARK                         _______ _______ _______ _____ _____    ______ ____
ROOT
ATOM      1  O   UNL     1      49.848  -4.410  21.585  0.00  0.00    +0.000 OA
ATOM      2  C   UNL     1      49.245  -4.905  19.093  0.00  0.00    +0.000 C 
ATOM      3  C   UNL     1      48.644  -5.954  18.152  0.00  0.00    +0.000 C 
ATOM      4  C   UNL     1      49.018  -7.417  18.315  0.00  0.00    +0.000 C 
ATOM      5  C   UNL     1      49.499  -5.343  20.602  0.00  0.00    +0.000 C 
ATOM      6  C   UNL     1      48.309  -3.784  19.271  0.00  0.00    +0.000 C 
ATOM      7  C   UNL     1      49.542  -7.621  19.651  0.00  0.00    +0.000 C 
ATOM      8  C   UNL     1      49.792  -6.706  20.802  0.00  0.00    +0.000 C 
ATOM      9  C   UNL     1      50.594  -4.400  18.511  0.00  0.00    +0.000 C 
ATOM     10  C   UNL     1      47.766  -2.859  20.332  0.00  0.00    +0.000 C 
ATOM     11  C   UNL     1      48.798  -3.851  22.442  0.00  0.00    +0.000 C 
ATOM     12  C   UNL     1      47.812  -8.328  18.040  0.00  0.00    +0.000 C 
ATOM     13  C   UNL     1      47.966  -2.747  21.725  0.00  0.00    +0.000 C 
ATOM     14  C   UNL     1      47.820  -4.948  22.956  0.00  0.00    +0.000 C 
ATOM     15  C   UNL     1      49.507  -3.178  23.654  0.00  0.00    +0.000 C 
ENDROOT
BRANCH   4  16
ATOM     16  O   UNL     1      49.988  -7.771  17.361  0.00  0.00    +0.000 OA
ATOM     17  H   UNL     1      49.802  -7.128  16.653  0.00  0.00    +0.000 HD
ENDBRANCH   4  16
BRANCH  13  18
ATOM     18  O   UNL     1      47.427  -1.655  22.398  0.00  0.00    +0.000 OA
ATOM     19  H   UNL     1      47.395  -1.811  23.365  0.00  0.00    +0.000 HD
ENDBRANCH  13  18
BRANCH   3  20
ATOM     20  C   UNL     1      47.922  -5.530  16.981  0.00  0.00    +0.000 C 
ATOM     21  C   UNL     1      47.168  -5.080  15.726  0.00  0.00    +0.000 C 
BRANCH  21  25
ATOM     22  C   UNL     1      47.042  -2.394  13.341  0.00  0.00    +0.000 C 
ATOM     23  C   UNL     1      47.182  -3.940  13.374  0.00  0.00    +0.000 C 
ATOM     24  C   UNL     1      45.745  -1.641  13.264  0.00  0.00    +0.000 C 
ATOM     25  C   UNL     1      46.470  -4.657  14.546  0.00  0.00    +0.000 C 
ATOM     26  C   UNL     1      45.925  -0.188  12.841  0.00  0.00    +0.000 C 
ATOM     27  C   UNL     1      48.054  -1.453  12.984  0.00  0.00    +0.000 C 
ATOM     28  C   UNL     1      47.374  -0.146  12.681  0.00  0.00    +0.000 C 
ATOM     29  C   UNL     1      44.576  -2.338  13.619  0.00  0.00    +0.000 C 
ATOM     30  C   UNL     1      45.011  -4.778  14.538  0.00  0.00    +0.000 C 
ATOM     31  C   UNL     1      48.718  -4.280  13.445  0.00  0.00    +0.000 C 
ATOM     32  C   UNL     1      46.666  -4.507  12.007  0.00  0.00    +0.000 C 
ATOM     33  C   UNL     1      44.358  -3.726  14.159  0.00  0.00    +0.000 C 
ATOM     34  C   UNL     1      45.351   0.789  13.858  0.00  0.00    +0.000 C 
ATOM     35  C   UNL     1      44.251  -5.809  15.330  0.00  0.00    +0.000 C 
BRANCH  26  36
ATOM     36  O   UNL     1      45.274   0.050  11.620  0.00  0.00    +0.000 OA
ATOM     37  H   UNL     1      44.383  -0.287  11.818  0.00  0.00    +0.000 HD
ENDBRANCH  26  36
ENDBRANCH  21  25
ENDBRANCH   3  20
TORSDOF 5
ENDMDL
MODEL 4
REMARK VINA RESULT:      -5.8     29.011     33.088
REMARK  Name = 342374_SipholenolA.pdbqt.pdb
REMARK  5 active torsions:
REMARK  status: ('A' for Active; 'I' for Inactive)
REMARK    1  A    between atoms: C_3  and  C_20
REMARK    2  A    between atoms: C_4  and  O_16
REMARK    3  A    between atoms: C_13  and  O_18
REMARK    4  A    between atoms: C_21  and  C_25
REMARK    5  A    between atoms: C_26  and  O_36
REMARK                            x       y       z     vdW  Elec       q    Type
REMARK                         _______ _______ _______ _____ _____    ______ ____
ROOT
ATOM      1  O   UNL     1      37.294  11.352  -9.498  0.00  0.00    +0.000 OA
ATOM      2  C   UNL     1      34.918  10.359  -9.060  0.00  0.00    +0.000 C 
ATOM      3  C   UNL     1      34.066   9.598  -8.040  0.00  0.00    +0.000 C 
ATOM      4  C   UNL     1      34.658   8.415  -7.294  0.00  0.00    +0.000 C 
ATOM      5  C   UNL     1      36.471  10.506  -8.744  0.00  0.00    +0.000 C 
ATOM      6  C   UNL     1      34.501  11.768  -9.123  0.00  0.00    +0.000 C 
ATOM      7  C   UNL     1      36.104   8.498  -7.355  0.00  0.00    +0.000 C 
ATOM      8  C   UNL     1      37.046   9.456  -8.003  0.00  0.00    +0.000 C 
ATOM      9  C   UNL     1      34.779   9.688 -10.454  0.00  0.00    +0.000 C 
ATOM     10  C   UNL     1      35.069  13.163  -9.217  0.00  0.00    +0.000 C 
ATOM     11  C   UNL     1      37.568  12.704  -9.005  0.00  0.00    +0.000 C 
ATOM     12  C   UNL     1      34.159   8.373  -5.842  0.00  0.00    +0.000 C 
ATOM     13  C   UNL     1      36.381  13.683  -9.251  0.00  0.00    +0.000 C 
ATOM     14  C   UNL     1      37.908  12.713  -7.486  0.00  0.00    +0.000 C 
ATOM     15  C   UNL     1      38.785  13.246  -9.813  0.00  0.00    +0.000 C 
ENDROOT
BRANCH   4  16
ATOM     16  O   UNL     1      34.223   7.214  -7.881  0.00  0.00    +0.000 OA
ATOM     17  H   UNL     1      34.546   6.559  -7.237  0.00  0.00    +0.000 HD
ENDBRANCH   4  16
BRANCH  13  18
ATOM     18  O   UNL     1      36.564  15.037  -9.514  0.00  0.00    +0.000 OA
ATOM     19  H   UNL     1      37.116  15.175 -10.312  0.00  0.00    +0.000 HD
ENDBRANCH  13  18
BRANCH   3  20
ATOM     20  C   UNL     1      32.650   9.851  -7.964  0.00  0.00    +0.000 C 
ATOM     21  C   UNL     1      31.144  10.117  -7.899  0.00  0.00    +0.000 C 
BRANCH  21  25
ATOM     22  C   UNL     1      28.588  12.153  -9.397  0.00  0.00    +0.000 C 
ATOM     23  C   UNL     1      28.894  10.657  -9.116  0.00  0.00    +0.000 C 
ATOM     24  C   UNL     1      27.854  13.078  -8.470  0.00  0.00    +0.000 C 
ATOM     25  C   UNL     1      29.731  10.366  -7.847  0.00  0.00    +0.000 C 
ATOM     26  C   UNL     1      27.352  14.340  -9.162  0.00  0.00    +0.000 C 
ATOM     27  C   UNL     1      28.576  12.797 -10.671  0.00  0.00    +0.000 C 
ATOM     28  C   UNL     1      27.830  14.094 -10.518  0.00  0.00    +0.000 C 
ATOM     29  C   UNL     1      27.763  12.694  -7.120  0.00  0.00    +0.000 C 
ATOM     30  C   UNL     1      29.112  10.499  -6.528  0.00  0.00    +0.000 C 
ATOM     31  C   UNL     1      29.669  10.085 -10.363  0.00  0.00    +0.000 C 
ATOM     32  C   UNL     1      27.533   9.884  -9.048  0.00  0.00    +0.000 C 
ATOM     33  C   UNL     1      28.344  11.530  -6.364  0.00  0.00    +0.000 C 
ATOM     34  C   UNL     1      27.874  15.610  -8.506  0.00  0.00    +0.000 C 
ATOM     35  C   UNL     1      29.633   9.828  -5.285  0.00  0.00    +0.000 C 
BRANCH  26  36
ATOM     36  O   UNL     1      25.950  14.394  -9.122  0.00  0.00    +0.000 OA
ATOM     37  H   UNL     1      25.730  13.446  -9.087  0.00  0.00    +0.000 HD
ENDBRANCH  26  36
ENDBRANCH  21  25
ENDBRANCH   3  20
TORSDOF 5
ENDMDL
MODEL 5
REMARK VINA RESULT:      -5.8     43.008     45.404
REMARK  Name = 342374_SipholenolA.pdbqt.pdb
REMARK  5 active torsions:
REMARK  status: ('A' for Active; 'I' for Inactive)
REMARK    1  A    between atoms: C_3  and  C_20
REMARK    2  A    between atoms: C_4  and  O_16
REMARK    3  A    between atoms: C_13  and  O_18
REMARK    4  A    between atoms: C_21  and  C_25
REMARK    5  A    between atoms: C_26  and  O_36
REMARK                            x       y       z     vdW  Elec       q    Type
REMARK                         _______ _______ _______ _____ _____    ______ ____
ROOT
ATOM      1  O   UNL     1      21.220  35.309  24.004  0.00  0.00    +0.000 OA
ATOM      2  C   UNL     1      23.591  35.096  22.931  0.00  0.00    +0.000 C 
ATOM      3  C   UNL     1      24.739  34.121  22.656  0.00  0.00    +0.000 C 
ATOM      4  C   UNL     1      25.181  33.150  23.737  0.00  0.00    +0.000 C 
ATOM      5  C   UNL     1      22.405  34.579  23.859  0.00  0.00    +0.000 C 
ATOM      6  C   UNL     1      22.871  35.401  21.685  0.00  0.00    +0.000 C 
ATOM      7  C   UNL     1      24.113  33.010  24.707  0.00  0.00    +0.000 C 
ATOM      8  C   UNL     1      22.764  33.633  24.838  0.00  0.00    +0.000 C 
ATOM      9  C   UNL     1      24.157  36.397  23.564  0.00  0.00    +0.000 C 
ATOM     10  C   UNL     1      21.474  35.591  21.147  0.00  0.00    +0.000 C 
ATOM     11  C   UNL     1      20.063  34.961  23.175  0.00  0.00    +0.000 C 
ATOM     12  C   UNL     1      25.572  31.793  23.132  0.00  0.00    +0.000 C 
ATOM     13  C   UNL     1      20.187  35.501  21.719  0.00  0.00    +0.000 C 
ATOM     14  C   UNL     1      19.833  33.422  23.111  0.00  0.00    +0.000 C 
ATOM     15  C   UNL     1      18.819  35.646  23.815  0.00  0.00    +0.000 C 
ENDROOT
BRANCH   4  16
ATOM     16  O   UNL     1      26.340  33.633  24.368  0.00  0.00    +0.000 OA
ATOM     17  H   UNL     1      25.958  34.127  25.115  0.00  0.00    +0.000 HD
ENDBRANCH   4  16
BRANCH  13  18
ATOM     18  O   UNL     1      19.086  35.907  20.971  0.00  0.00    +0.000 OA
ATOM     19  H   UNL     1      18.379  35.229  20.978  0.00  0.00    +0.000 HD
ENDBRANCH  13  18
BRANCH   3  20
ATOM     20  C   UNL     1      25.545  34.285  21.473  0.00  0.00    +0.000 C 
ATOM     21  C   UNL     1      26.400  34.475  20.217  0.00  0.00    +0.000 C 
BRANCH  21  25
ATOM     22  C   UNL     1      26.136  34.674  16.638  0.00  0.00    +0.000 C 
ATOM     23  C   UNL     1      26.709  35.490  17.829  0.00  0.00    +0.000 C 
ATOM     24  C   UNL     1      26.885  33.629  15.863  0.00  0.00    +0.000 C 
ATOM     25  C   UNL     1      27.200  34.663  19.040  0.00  0.00    +0.000 C 
ATOM     26  C   UNL     1      26.231  33.297  14.527  0.00  0.00    +0.000 C 
ATOM     27  C   UNL     1      25.010  35.016  15.832  0.00  0.00    +0.000 C 
ATOM     28  C   UNL     1      25.083  34.194  14.575  0.00  0.00    +0.000 C 
ATOM     29  C   UNL     1      28.031  33.080  16.466  0.00  0.00    +0.000 C 
ATOM     30  C   UNL     1      28.451  33.910  18.941  0.00  0.00    +0.000 C 
ATOM     31  C   UNL     1      25.580  36.471  18.322  0.00  0.00    +0.000 C 
ATOM     32  C   UNL     1      27.872  36.391  17.289  0.00  0.00    +0.000 C 
ATOM     33  C   UNL     1      28.645  33.279  17.826  0.00  0.00    +0.000 C 
ATOM     34  C   UNL     1      25.899  31.817  14.393  0.00  0.00    +0.000 C 
ATOM     35  C   UNL     1      29.258  33.463  20.131  0.00  0.00    +0.000 C 
BRANCH  26  36
ATOM     36  O   UNL     1      27.090  33.629  13.467  0.00  0.00    +0.000 OA
ATOM     37  H   UNL     1      26.597  33.268  12.710  0.00  0.00    +0.000 HD
ENDBRANCH  26  36
ENDBRANCH  21  25
ENDBRANCH   3  20
TORSDOF 5
ENDMDL
MODEL 6
REMARK VINA RESULT:      -5.7      2.506      3.292
REMARK  Name = 342374_SipholenolA.pdbqt.pdb
REMARK  5 active torsions:
REMARK  status: ('A' for Active; 'I' for Inactive)
REMARK    1  A    between atoms: C_3  and  C_20
REMARK    2  A    between atoms: C_4  and  O_16
REMARK    3  A    between atoms: C_13  and  O_18
REMARK    4  A    between atoms: C_21  and  C_25
REMARK    5  A    between atoms: C_26  and  O_36
REMARK                            x       y       z     vdW  Elec       q    Type
REMARK                         _______ _______ _______ _____ _____    ______ ____
ROOT
ATOM      1  O   UNL     1      49.636  -3.629  21.540  0.00  0.00    +0.000 OA
ATOM      2  C   UNL     1      49.319  -3.946  18.967  0.00  0.00    +0.000 C 
ATOM      3  C   UNL     1      48.537  -4.725  17.906  0.00  0.00    +0.000 C 
ATOM      4  C   UNL     1      48.306  -6.216  18.081  0.00  0.00    +0.000 C 
ATOM      5  C   UNL     1      49.135  -4.397  20.482  0.00  0.00    +0.000 C 
ATOM      6  C   UNL     1      48.852  -2.551  19.022  0.00  0.00    +0.000 C 
ATOM      7  C   UNL     1      48.485  -6.557  19.478  0.00  0.00    +0.000 C 
ATOM      8  C   UNL     1      48.862  -5.764  20.684  0.00  0.00    +0.000 C 
ATOM      9  C   UNL     1      50.835  -3.998  18.636  0.00  0.00    +0.000 C 
ATOM     10  C   UNL     1      48.523  -1.456  20.007  0.00  0.00    +0.000 C 
ATOM     11  C   UNL     1      48.743  -2.692  22.226  0.00  0.00    +0.000 C 
ATOM     12  C   UNL     1      46.912  -6.621  17.579  0.00  0.00    +0.000 C 
ATOM     13  C   UNL     1      48.514  -1.381  21.416  0.00  0.00    +0.000 C 
ATOM     14  C   UNL     1      47.356  -3.329  22.534  0.00  0.00    +0.000 C 
ATOM     15  C   UNL     1      49.439  -2.292  23.561  0.00  0.00    +0.000 C 
ENDROOT
BRANCH   4  16
ATOM     16  O   UNL     1      49.219  -6.937  17.292  0.00  0.00    +0.000 OA
ATOM     17  H   UNL     1      48.620  -7.386  16.669  0.00  0.00    +0.000 HD
ENDBRANCH   4  16
BRANCH  13  18
ATOM     18  O   UNL     1      48.316  -0.146  22.025  0.00  0.00    +0.000 OA
ATOM     19  H   UNL     1      49.082   0.105  22.583  0.00  0.00    +0.000 HD
ENDBRANCH  13  18
BRANCH   3  20
ATOM     20  C   UNL     1      48.231  -4.101  16.644  0.00  0.00    +0.000 C 
ATOM     21  C   UNL     1      47.919  -3.445  15.296  0.00  0.00    +0.000 C 
BRANCH  21  25
ATOM     22  C   UNL     1      46.044  -0.752  13.829  0.00  0.00    +0.000 C 
ATOM     23  C   UNL     1      47.496  -1.301  13.862  0.00  0.00    +0.000 C 
ATOM     24  C   UNL     1      44.989  -1.148  12.837  0.00  0.00    +0.000 C 
ATOM     25  C   UNL     1      47.636  -2.833  14.029  0.00  0.00    +0.000 C 
ATOM     26  C   UNL     1      43.819  -0.172  12.791  0.00  0.00    +0.000 C 
ATOM     27  C   UNL     1      45.573   0.454  14.430  0.00  0.00    +0.000 C 
ATOM     28  C   UNL     1      44.252   0.792  13.796  0.00  0.00    +0.000 C 
ATOM     29  C   UNL     1      45.190  -2.348  12.130  0.00  0.00    +0.000 C 
ATOM     30  C   UNL     1      47.318  -3.713  12.905  0.00  0.00    +0.000 C 
ATOM     31  C   UNL     1      48.244  -0.601  15.060  0.00  0.00    +0.000 C 
ATOM     32  C   UNL     1      48.224  -0.836  12.555  0.00  0.00    +0.000 C 
ATOM     33  C   UNL     1      46.258  -3.404  12.226  0.00  0.00    +0.000 C 
ATOM     34  C   UNL     1      42.485  -0.850  13.067  0.00  0.00    +0.000 C 
ATOM     35  C   UNL     1      47.830  -5.122  12.771  0.00  0.00    +0.000 C 
BRANCH  26  36
ATOM     36  O   UNL     1      43.730   0.424  11.523  0.00  0.00    +0.000 OA
ATOM     37  H   UNL     1      42.831   0.796  11.557  0.00  0.00    +0.000 HD
ENDBRANCH  26  36
ENDBRANCH  21  25
ENDBRANCH   3  20
TORSDOF 5
ENDMDL
MODEL 7
REMARK VINA RESULT:      -5.7      8.146     10.708
REMARK  Name = 342374_SipholenolA.pdbqt.pdb
REMARK  5 active torsions:
REMARK  status: ('A' for Active; 'I' for Inactive)
REMARK    1  A    between atoms: C_3  and  C_20
REMARK    2  A    between atoms: C_4  and  O_16
REMARK    3  A    between atoms: C_13  and  O_18
REMARK    4  A    between atoms: C_21  and  C_25
REMARK    5  A    between atoms: C_26  and  O_36
REMARK                            x       y       z     vdW  Elec       q    Type
REMARK                         _______ _______ _______ _____ _____    ______ ____
ROOT
ATOM      1  O   UNL     1      53.536   3.578   6.265  0.00  0.00    +0.000 OA
ATOM      2  C   UNL     1      52.721   1.647   7.824  0.00  0.00    +0.000 C 
ATOM      3  C   UNL     1      52.412   1.282   9.279  0.00  0.00    +0.000 C 
ATOM      4  C   UNL     1      53.348   1.732  10.387  0.00  0.00    +0.000 C 
ATOM      5  C   UNL     1      53.401   3.062   7.560  0.00  0.00    +0.000 C 
ATOM      6  C   UNL     1      51.474   1.778   7.055  0.00  0.00    +0.000 C 
ATOM      7  C   UNL     1      54.149   2.839   9.902  0.00  0.00    +0.000 C 
ATOM      8  C   UNL     1      54.233   3.543   8.590  0.00  0.00    +0.000 C 
ATOM      9  C   UNL     1      53.634   0.557   7.199  0.00  0.00    +0.000 C 
ATOM     10  C   UNL     1      50.821   2.643   6.005  0.00  0.00    +0.000 C 
ATOM     11  C   UNL     1      52.531   4.520   5.766  0.00  0.00    +0.000 C 
ATOM     12  C   UNL     1      52.563   2.118  11.649  0.00  0.00    +0.000 C 
ATOM     13  C   UNL     1      51.217   3.812   5.319  0.00  0.00    +0.000 C 
ATOM     14  C   UNL     1      52.171   5.604   6.824  0.00  0.00    +0.000 C 
ATOM     15  C   UNL     1      53.134   5.205   4.504  0.00  0.00    +0.000 C 
ENDROOT
BRANCH   4  16
ATOM     16  O   UNL     1      54.184   0.668  10.768  0.00  0.00    +0.000 OA
ATOM     17  H   UNL     1      53.895  -0.030  10.153  0.00  0.00    +0.000 HD
ENDBRANCH   4  16
BRANCH  13  18
ATOM     18  O   UNL     1      50.431   4.276   4.270  0.00  0.00    +0.000 OA
ATOM     19  H   UNL     1      50.658   3.829   3.428  0.00  0.00    +0.000 HD
ENDBRANCH  13  18
BRANCH   3  20
ATOM     20  C   UNL     1      51.377   0.322   9.568  0.00  0.00    +0.000 C 
ATOM     21  C   UNL     1      50.267  -0.686   9.881  0.00  0.00    +0.000 C 
BRANCH  21  25
ATOM     22  C   UNL     1      46.860  -0.836  11.015  0.00  0.00    +0.000 C 
ATOM     23  C   UNL     1      47.739  -1.345   9.840  0.00  0.00    +0.000 C 
ATOM     24  C   UNL     1      46.626  -1.569  12.305  0.00  0.00    +0.000 C 
ATOM     25  C   UNL     1      49.223  -1.623  10.178  0.00  0.00    +0.000 C 
ATOM     26  C   UNL     1      45.427  -1.039  13.081  0.00  0.00    +0.000 C 
ATOM     27  C   UNL     1      45.840   0.160  10.949  0.00  0.00    +0.000 C 
ATOM     28  C   UNL     1      44.990   0.023  12.182  0.00  0.00    +0.000 C 
ATOM     29  C   UNL     1      47.537  -2.587  12.638  0.00  0.00    +0.000 C 
ATOM     30  C   UNL     1      49.574  -2.805  10.967  0.00  0.00    +0.000 C 
ATOM     31  C   UNL     1      47.685  -0.261   8.699  0.00  0.00    +0.000 C 
ATOM     32  C   UNL     1      47.071  -2.637   9.255  0.00  0.00    +0.000 C 
ATOM     33  C   UNL     1      48.801  -3.064  11.974  0.00  0.00    +0.000 C 
ATOM     34  C   UNL     1      45.796  -0.591  14.489  0.00  0.00    +0.000 C 
ATOM     35  C   UNL     1      50.942  -3.433  10.974  0.00  0.00    +0.000 C 
BRANCH  26  36
ATOM     36  O   UNL     1      44.445  -2.035  13.203  0.00  0.00    +0.000 OA
ATOM     37  H   UNL     1      43.782  -1.575  13.746  0.00  0.00    +0.000 HD
ENDBRANCH  26  36
ENDBRANCH  21  25
ENDBRANCH   3  20
TORSDOF 5
ENDMDL
MODEL 8
REMARK VINA RESULT:      -5.7     43.231     45.765
REMARK  Name = 342374_SipholenolA.pdbqt.pdb
REMARK  5 active torsions:
REMARK  status: ('A' for Active; 'I' for Inactive)
REMARK    1  A    between atoms: C_3  and  C_20
REMARK    2  A    between atoms: C_4  and  O_16
REMARK    3  A    between atoms: C_13  and  O_18
REMARK    4  A    between atoms: C_21  and  C_25
REMARK    5  A    between atoms: C_26  and  O_36
REMARK                            x       y       z     vdW  Elec       q    Type
REMARK                         _______ _______ _______ _____ _____    ______ ____
ROOT
ATOM      1  O   UNL     1      26.401  36.373  20.765  0.00  0.00    +0.000 OA
ATOM      2  C   UNL     1      24.758  35.150  22.386  0.00  0.00    +0.000 C 
ATOM      3  C   UNL     1      23.288  34.781  22.608  0.00  0.00    +0.000 C 
ATOM      4  C   UNL     1      22.203  35.810  22.343  0.00  0.00    +0.000 C 
ATOM      5  C   UNL     1      25.085  36.138  21.181  0.00  0.00    +0.000 C 
ATOM      6  C   UNL     1      25.530  33.958  22.000  0.00  0.00    +0.000 C 
ATOM      7  C   UNL     1      22.736  36.841  21.474  0.00  0.00    +0.000 C 
ATOM      8  C   UNL     1      24.078  37.070  20.865  0.00  0.00    +0.000 C 
ATOM      9  C   UNL     1      25.337  35.776  23.684  0.00  0.00    +0.000 C 
ATOM     10  C   UNL     1      26.615  33.513  21.051  0.00  0.00    +0.000 C 
ATOM     11  C   UNL     1      26.939  35.609  19.637  0.00  0.00    +0.000 C 
ATOM     12  C   UNL     1      20.957  35.151  21.732  0.00  0.00    +0.000 C 
ATOM     13  C   UNL     1      27.352  34.161  20.037  0.00  0.00    +0.000 C 
ATOM     14  C   UNL     1      25.928  35.524  18.455  0.00  0.00    +0.000 C 
ATOM     15  C   UNL     1      28.230  36.341  19.164  0.00  0.00    +0.000 C 
ENDROOT
BRANCH   4  16
ATOM     16  O   UNL     1      21.777  36.379  23.555  0.00  0.00    +0.000 OA
ATOM     17  H   UNL     1      21.810  35.608  24.149  0.00  0.00    +0.000 HD
ENDBRANCH   4  16
BRANCH  13  18
ATOM     18  O   UNL     1      28.419  33.493  19.446  0.00  0.00    +0.000 OA
ATOM     19  H   UNL     1      29.277  33.898  19.694  0.00  0.00    +0.000 HD
ENDBRANCH  13  18
BRANCH   3  20
ATOM     20  C   UNL     1      22.956  33.555  23.287  0.00  0.00    +0.000 C 
ATOM     21  C   UNL     1      22.614  32.243  24.000  0.00  0.00    +0.000 C 
BRANCH  21  25
ATOM     22  C   UNL     1      19.898  30.529  25.613  0.00  0.00    +0.000 C 
ATOM     23  C   UNL     1      20.938  30.298  24.483  0.00  0.00    +0.000 C 
ATOM     24  C   UNL     1      20.101  30.189  27.061  0.00  0.00    +0.000 C 
ATOM     25  C   UNL     1      22.300  31.010  24.662  0.00  0.00    +0.000 C 
ATOM     26  C   UNL     1      18.798  30.144  27.851  0.00  0.00    +0.000 C 
ATOM     27  C   UNL     1      18.492  30.713  25.455  0.00  0.00    +0.000 C 
ATOM     28  C   UNL     1      17.849  30.473  26.793  0.00  0.00    +0.000 C 
ATOM     29  C   UNL     1      21.426  30.002  27.498  0.00  0.00    +0.000 C 
ATOM     30  C   UNL     1      23.251  30.508  25.654  0.00  0.00    +0.000 C 
ATOM     31  C   UNL     1      20.293  30.792  23.133  0.00  0.00    +0.000 C 
ATOM     32  C   UNL     1      21.157  28.753  24.329  0.00  0.00    +0.000 C 
ATOM     33  C   UNL     1      22.747  30.155  26.794  0.00  0.00    +0.000 C 
ATOM     34  C   UNL     1      18.806  31.095  29.040  0.00  0.00    +0.000 C 
ATOM     35  C   UNL     1      24.730  30.791  25.616  0.00  0.00    +0.000 C 
BRANCH  26  36
ATOM     36  O   UNL     1      18.573  28.852  28.350  0.00  0.00    +0.000 OA
ATOM     37  H   UNL     1      18.293  29.052  29.260  0.00  0.00    +0.000 HD
ENDBRANCH  26  36
ENDBRANCH  21  25
ENDBRANCH   3  20
TORSDOF 5
ENDMDL
MODEL 9
REMARK VINA RESULT:      -5.6     19.137     22.086
REMARK  Name = 342374_SipholenolA.pdbqt.pdb
REMARK  5 active torsions:
REMARK  status: ('A' for Active; 'I' for Inactive)
REMARK    1  A    between atoms: C_3  and  C_20
REMARK    2  A    between atoms: C_4  and  O_16
REMARK    3  A    between atoms: C_13  and  O_18
REMARK    4  A    between atoms: C_21  and  C_25
REMARK    5  A    between atoms: C_26  and  O_36
REMARK                            x       y       z     vdW  Elec       q    Type
REMARK                         _______ _______ _______ _____ _____    ______ ____
ROOT
ATOM      1  O   UNL     1      25.838  -6.639  24.985  0.00  0.00    +0.000 OA
ATOM      2  C   UNL     1      26.012  -6.968  22.401  0.00  0.00    +0.000 C 
ATOM      3  C   UNL     1      25.192  -7.101  21.114  0.00  0.00    +0.000 C 
ATOM      4  C   UNL     1      23.939  -7.960  21.103  0.00  0.00    +0.000 C 
ATOM      5  C   UNL     1      25.211  -6.960  23.776  0.00  0.00    +0.000 C 
ATOM      6  C   UNL     1      26.679  -5.658  22.447  0.00  0.00    +0.000 C 
ATOM      7  C   UNL     1      23.485  -8.145  22.467  0.00  0.00    +0.000 C 
ATOM      8  C   UNL     1      24.012  -7.699  23.789  0.00  0.00    +0.000 C 
ATOM      9  C   UNL     1      27.060  -8.114  22.468  0.00  0.00    +0.000 C 
ATOM     10  C   UNL     1      27.005  -4.533  23.400  0.00  0.00    +0.000 C 
ATOM     11  C   UNL     1      25.748  -5.267  25.493  0.00  0.00    +0.000 C 
ATOM     12  C   UNL     1      22.846  -7.328  20.228  0.00  0.00    +0.000 C 
ATOM     13  C   UNL     1      26.718  -4.293  24.760  0.00  0.00    +0.000 C 
ATOM     14  C   UNL     1      24.302  -4.699  25.381  0.00  0.00    +0.000 C 
ATOM     15  C   UNL     1      26.177  -5.304  26.989  0.00  0.00    +0.000 C 
ENDROOT
BRANCH   4  16
ATOM     16  O   UNL     1      24.221  -9.207  20.519  0.00  0.00    +0.000 OA
ATOM     17  H   UNL     1      23.652  -9.181  19.729  0.00  0.00    +0.000 HD
ENDBRANCH   4  16
BRANCH  13  18
ATOM     18  O   UNL     1      27.319  -3.211  25.395  0.00  0.00    +0.000 OA
ATOM     19  H   UNL     1      28.268  -3.382  25.572  0.00  0.00    +0.000 HD
ENDBRANCH  13  18
BRANCH   3  20
ATOM     20  C   UNL     1      25.731  -6.612  19.871  0.00  0.00    +0.000 C 
ATOM     21  C   UNL     1      26.318  -6.087  18.558  0.00  0.00    +0.000 C 
BRANCH  21  25
ATOM     22  C   UNL     1      25.552  -5.719  15.066  0.00  0.00    +0.000 C 
ATOM     23  C   UNL     1      26.019  -4.858  16.271  0.00  0.00    +0.000 C 
ATOM     24  C   UNL     1      26.459  -6.442  14.112  0.00  0.00    +0.000 C 
ATOM     25  C   UNL     1      26.874  -5.590  17.332  0.00  0.00    +0.000 C 
ATOM     26  C   UNL     1      25.759  -6.854  12.822  0.00  0.00    +0.000 C 
ATOM     27  C   UNL     1      24.281  -5.664  14.420  0.00  0.00    +0.000 C 
ATOM     28  C   UNL     1      24.421  -6.337  13.082  0.00  0.00    +0.000 C 
ATOM     29  C   UNL     1      27.780  -6.674  14.534  0.00  0.00    +0.000 C 
ATOM     30  C   UNL     1      28.263  -5.936  17.027  0.00  0.00    +0.000 C 
ATOM     31  C   UNL     1      24.732  -4.288  16.978  0.00  0.00    +0.000 C 
ATOM     32  C   UNL     1      26.802  -3.621  15.713  0.00  0.00    +0.000 C 
ATOM     33  C   UNL     1      28.483  -6.401  15.837  0.00  0.00    +0.000 C 
ATOM     34  C   UNL     1      25.842  -8.353  12.569  0.00  0.00    +0.000 C 
ATOM     35  C   UNL     1      29.309  -6.211  18.074  0.00  0.00    +0.000 C 
BRANCH  26  36
ATOM     36  O   UNL     1      26.346  -6.211  11.721  0.00  0.00    +0.000 OA
ATOM     37  H   UNL     1      25.731  -6.464  11.011  0.00  0.00    +0.000 HD
ENDBRANCH  26  36
ENDBRANCH  21  25
ENDBRANCH   3  20
TORSDOF 5
ENDMDL
