MODEL 1
REMARK VINA RESULT:      -4.4      0.000      0.000
REMARK  Name = 43806_Diaminocyclohexane.pdbqt.pdb
REMARK  2 active torsions:
REMARK  status: ('A' for Active; 'I' for Inactive)
REMARK    1  A    between atoms: C_1  and  N_7
REMARK    2  A    between atoms: C_2  and  N_10
REMARK                            x       y       z     vdW  Elec       q    Type
REMARK                         _______ _______ _______ _____ _____    ______ ____
ROOT
ATOM      1  C   UNL     1      41.611  -6.804  11.576  0.00  0.00    +0.000 A 
ATOM      2  C   UNL     1      42.652  -5.948  12.185  0.00  0.00    +0.000 A 
ATOM      3  C   UNL     1      41.095  -6.340  10.323  0.00  0.00    +0.000 A 
ATOM      4  C   UNL     1      43.018  -4.794  11.416  0.00  0.00    +0.000 A 
ATOM      5  C   UNL     1      41.428  -5.118   9.452  0.00  0.00    +0.000 A 
ATOM      6  C   UNL     1      42.520  -4.243  10.071  0.00  0.00    +0.000 A 
ENDROOT
BRANCH   1   7
ATOM      7  N   UNL     1      41.206  -8.035  12.145  0.00  0.00    +0.000 N 
ATOM      8  H   UNL     1      41.589  -8.846  11.669  0.00  0.00    +0.000 HD
ATOM      9  H   UNL     1      40.207  -8.116  12.304  0.00  0.00    +0.000 HD
ENDBRANCH   1   7
BRANCH   2  10
ATOM     10  N   UNL     1      43.196  -6.198  13.467  0.00  0.00    +0.000 N 
ATOM     11  H   UNL     1      42.681  -6.894  13.997  0.00  0.00    +0.000 HD
ATOM     12  H   UNL     1      43.390  -5.364  14.012  0.00  0.00    +0.000 HD
ENDBRANCH   2  10
TORSDOF 2
ENDMDL
MODEL 2
REMARK VINA RESULT:      -4.3      4.149      4.543
REMARK  Name = 43806_Diaminocyclohexane.pdbqt.pdb
REMARK  2 active torsions:
REMARK  status: ('A' for Active; 'I' for Inactive)
REMARK    1  A    between atoms: C_1  and  N_7
REMARK    2  A    between atoms: C_2  and  N_10
REMARK                            x       y       z     vdW  Elec       q    Type
REMARK                         _______ _______ _______ _____ _____    ______ ____
ROOT
ATOM      1  C   UNL     1      43.967  -7.004   8.885  0.00  0.00    +0.000 A 
ATOM      2  C   UNL     1      45.378  -6.998   8.441  0.00  0.00    +0.000 A 
ATOM      3  C   UNL     1      43.763  -6.725  10.275  0.00  0.00    +0.000 A 
ATOM      4  C   UNL     1      46.335  -6.682   9.460  0.00  0.00    +0.000 A 
ATOM      5  C   UNL     1      44.734  -6.390  11.420  0.00  0.00    +0.000 A 
ATOM      6  C   UNL     1      46.191  -6.363  10.956  0.00  0.00    +0.000 A 
ENDROOT
BRANCH   1   7
ATOM      7  N   UNL     1      42.885  -7.192   7.992  0.00  0.00    +0.000 N 
ATOM      8  H   UNL     1      42.101  -7.687   8.404  0.00  0.00    +0.000 HD
ATOM      9  H   UNL     1      43.148  -7.569   7.086  0.00  0.00    +0.000 HD
ENDBRANCH   1   7
BRANCH   2  10
ATOM     10  N   UNL     1      45.769  -7.356   7.129  0.00  0.00    +0.000 N 
ATOM     11  H   UNL     1      46.343  -8.192   7.091  0.00  0.00    +0.000 HD
ATOM     12  H   UNL     1      46.159  -6.595   6.584  0.00  0.00    +0.000 HD
ENDBRANCH   2  10
TORSDOF 2
ENDMDL
MODEL 3
REMARK VINA RESULT:      -4.3     35.308     35.519
REMARK  Name = 43806_Diaminocyclohexane.pdbqt.pdb
REMARK  2 active torsions:
REMARK  status: ('A' for Active; 'I' for Inactive)
REMARK    1  A    between atoms: C_1  and  N_7
REMARK    2  A    between atoms: C_2  and  N_10
REMARK                            x       y       z     vdW  Elec       q    Type
REMARK                         _______ _______ _______ _____ _____    ______ ____
ROOT
ATOM      1  C   UNL     1      14.160   8.507  26.502  0.00  0.00    +0.000 A 
ATOM      2  C   UNL     1      13.872   8.988  27.870  0.00  0.00    +0.000 A 
ATOM      3  C   UNL     1      13.964   7.103  26.294  0.00  0.00    +0.000 A 
ATOM      4  C   UNL     1      13.406   7.986  28.783  0.00  0.00    +0.000 A 
ATOM      5  C   UNL     1      13.481   5.975  27.221  0.00  0.00    +0.000 A 
ATOM      6  C   UNL     1      13.163   6.476  28.630  0.00  0.00    +0.000 A 
ENDROOT
BRANCH   1   7
ATOM      7  N   UNL     1      14.527   9.376  25.447  0.00  0.00    +0.000 N 
ATOM      8  H   UNL     1      13.823  10.076  25.236  0.00  0.00    +0.000 HD
ATOM      9  H   UNL     1      14.869   8.907  24.614  0.00  0.00    +0.000 HD
ENDBRANCH   1   7
BRANCH   2  10
ATOM     10  N   UNL     1      14.111  10.321  28.279  0.00  0.00    +0.000 N 
ATOM     11  H   UNL     1      14.998  10.692  27.952  0.00  0.00    +0.000 HD
ATOM     12  H   UNL     1      13.963  10.492  29.267  0.00  0.00    +0.000 HD
ENDBRANCH   2  10
TORSDOF 2
ENDMDL
MODEL 4
REMARK VINA RESULT:      -4.2      2.521      3.318
REMARK  Name = 43806_Diaminocyclohexane.pdbqt.pdb
REMARK  2 active torsions:
REMARK  status: ('A' for Active; 'I' for Inactive)
REMARK    1  A    between atoms: C_1  and  N_7
REMARK    2  A    between atoms: C_2  and  N_10
REMARK                            x       y       z     vdW  Elec       q    Type
REMARK                         _______ _______ _______ _____ _____    ______ ____
ROOT
ATOM      1  C   UNL     1      42.183  -6.558  10.416  0.00  0.00    +0.000 A 
ATOM      2  C   UNL     1      43.217  -6.747   9.376  0.00  0.00    +0.000 A 
ATOM      3  C   UNL     1      42.683  -6.257  11.725  0.00  0.00    +0.000 A 
ATOM      4  C   UNL     1      44.569  -6.571   9.820  0.00  0.00    +0.000 A 
ATOM      5  C   UNL     1      44.106  -6.065  12.274  0.00  0.00    +0.000 A 
ATOM      6  C   UNL     1      45.175  -6.240  11.192  0.00  0.00    +0.000 A 
ENDROOT
BRANCH   1   7
ATOM      7  N   UNL     1      40.798  -6.590  10.132  0.00  0.00    +0.000 N 
ATOM      8  H   UNL     1      40.369  -5.671  10.101  0.00  0.00    +0.000 HD
ATOM      9  H   UNL     1      40.267  -7.245  10.697  0.00  0.00    +0.000 HD
ENDBRANCH   1   7
BRANCH   2  10
ATOM     10  N   UNL     1      42.908  -7.152   8.055  0.00  0.00    +0.000 N 
ATOM     11  H   UNL     1      41.953  -7.475   7.944  0.00  0.00    +0.000 HD
ATOM     12  H   UNL     1      43.582  -7.788   7.641  0.00  0.00    +0.000 HD
ENDBRANCH   2  10
TORSDOF 2
ENDMDL
MODEL 5
REMARK VINA RESULT:      -4.2      3.546      4.427
REMARK  Name = 43806_Diaminocyclohexane.pdbqt.pdb
REMARK  2 active torsions:
REMARK  status: ('A' for Active; 'I' for Inactive)
REMARK    1  A    between atoms: C_1  and  N_7
REMARK    2  A    between atoms: C_2  and  N_10
REMARK                            x       y       z     vdW  Elec       q    Type
REMARK                         _______ _______ _______ _____ _____    ______ ____
ROOT
ATOM      1  C   UNL     1      45.073  -6.529   9.080  0.00  0.00    +0.000 A 
ATOM      2  C   UNL     1      43.639  -6.883   9.164  0.00  0.00    +0.000 A 
ATOM      3  C   UNL     1      45.682  -6.152  10.320  0.00  0.00    +0.000 A 
ATOM      4  C   UNL     1      43.075  -6.830  10.480  0.00  0.00    +0.000 A 
ATOM      5  C   UNL     1      45.142  -6.062  11.757  0.00  0.00    +0.000 A 
ATOM      6  C   UNL     1      43.664  -6.448  11.847  0.00  0.00    +0.000 A 
ENDROOT
BRANCH   1   7
ATOM      7  N   UNL     1      45.815  -6.629   7.879  0.00  0.00    +0.000 N 
ATOM      8  H   UNL     1      45.410  -6.109   7.108  0.00  0.00    +0.000 HD
ATOM      9  H   UNL     1      46.066  -7.577   7.617  0.00  0.00    +0.000 HD
ENDBRANCH   1   7
BRANCH   2  10
ATOM     10  N   UNL     1      42.855  -7.176   8.023  0.00  0.00    +0.000 N 
ATOM     11  H   UNL     1      42.029  -7.729   8.230  0.00  0.00    +0.000 HD
ATOM     12  H   UNL     1      43.379  -7.545   7.236  0.00  0.00    +0.000 HD
ENDBRANCH   2  10
TORSDOF 2
ENDMDL
MODEL 6
REMARK VINA RESULT:      -4.0     35.794     35.954
REMARK  Name = 43806_Diaminocyclohexane.pdbqt.pdb
REMARK  2 active torsions:
REMARK  status: ('A' for Active; 'I' for Inactive)
REMARK    1  A    between atoms: C_1  and  N_7
REMARK    2  A    between atoms: C_2  and  N_10
REMARK                            x       y       z     vdW  Elec       q    Type
REMARK                         _______ _______ _______ _____ _____    ______ ____
ROOT
ATOM      1  C   UNL     1      13.416   8.187  29.013  0.00  0.00    +0.000 A 
ATOM      2  C   UNL     1      13.908   9.403  28.329  0.00  0.00    +0.000 A 
ATOM      3  C   UNL     1      13.406   6.999  28.213  0.00  0.00    +0.000 A 
ATOM      4  C   UNL     1      14.335   9.209  26.975  0.00  0.00    +0.000 A 
ATOM      5  C   UNL     1      13.834   6.720  26.763  0.00  0.00    +0.000 A 
ATOM      6  C   UNL     1      14.363   7.973  26.062  0.00  0.00    +0.000 A 
ENDROOT
BRANCH   1   7
ATOM      7  N   UNL     1      13.055   8.173  30.381  0.00  0.00    +0.000 N 
ATOM      8  H   UNL     1      12.537   8.996  30.672  0.00  0.00    +0.000 HD
ATOM      9  H   UNL     1      13.815   7.950  31.015  0.00  0.00    +0.000 HD
ENDBRANCH   1   7
BRANCH   2  10
ATOM     10  N   UNL     1      13.888  10.682  28.934  0.00  0.00    +0.000 N 
ATOM     11  H   UNL     1      13.215  11.316  28.518  0.00  0.00    +0.000 HD
ATOM     12  H   UNL     1      14.802  11.108  29.047  0.00  0.00    +0.000 HD
ENDBRANCH   2  10
TORSDOF 2
ENDMDL
MODEL 7
REMARK VINA RESULT:      -4.0     15.044     15.679
REMARK  Name = 43806_Diaminocyclohexane.pdbqt.pdb
REMARK  2 active torsions:
REMARK  status: ('A' for Active; 'I' for Inactive)
REMARK    1  A    between atoms: C_1  and  N_7
REMARK    2  A    between atoms: C_2  and  N_10
REMARK                            x       y       z     vdW  Elec       q    Type
REMARK                         _______ _______ _______ _____ _____    ______ ____
ROOT
ATOM      1  C   UNL     1      28.130  -2.542  13.474  0.00  0.00    +0.000 A 
ATOM      2  C   UNL     1      27.273  -2.603  14.678  0.00  0.00    +0.000 A 
ATOM      3  C   UNL     1      27.496  -2.023  12.299  0.00  0.00    +0.000 A 
ATOM      4  C   UNL     1      25.941  -2.103  14.503  0.00  0.00    +0.000 A 
ATOM      5  C   UNL     1      26.081  -1.483  12.036  0.00  0.00    +0.000 A 
ATOM      6  C   UNL     1      25.201  -1.526  13.287  0.00  0.00    +0.000 A 
ENDROOT
BRANCH   1   7
ATOM      7  N   UNL     1      29.501  -2.895  13.492  0.00  0.00    +0.000 N 
ATOM      8  H   UNL     1      29.789  -3.354  14.351  0.00  0.00    +0.000 HD
ATOM      9  H   UNL     1      30.132  -2.147  13.223  0.00  0.00    +0.000 HD
ENDBRANCH   1   7
BRANCH   2  10
ATOM     10  N   UNL     1      27.703  -3.184  15.894  0.00  0.00    +0.000 N 
ATOM     11  H   UNL     1      28.710  -3.292  15.958  0.00  0.00    +0.000 HD
ATOM     12  H   UNL     1      27.207  -4.030  16.155  0.00  0.00    +0.000 HD
ENDBRANCH   2  10
TORSDOF 2
ENDMDL
MODEL 8
REMARK VINA RESULT:      -4.0     15.049     15.666
REMARK  Name = 43806_Diaminocyclohexane.pdbqt.pdb
REMARK  2 active torsions:
REMARK  status: ('A' for Active; 'I' for Inactive)
REMARK    1  A    between atoms: C_1  and  N_7
REMARK    2  A    between atoms: C_2  and  N_10
REMARK                            x       y       z     vdW  Elec       q    Type
REMARK                         _______ _______ _______ _____ _____    ______ ____
ROOT
ATOM      1  C   UNL     1      27.249  -2.605  14.670  0.00  0.00    +0.000 A 
ATOM      2  C   UNL     1      28.127  -2.543  13.481  0.00  0.00    +0.000 A 
ATOM      3  C   UNL     1      25.920  -2.106  14.474  0.00  0.00    +0.000 A 
ATOM      4  C   UNL     1      27.511  -2.024  12.295  0.00  0.00    +0.000 A 
ATOM      5  C   UNL     1      25.199  -1.529  13.244  0.00  0.00    +0.000 A 
ATOM      6  C   UNL     1      26.101  -1.486  12.009  0.00  0.00    +0.000 A 
ENDROOT
BRANCH   1   7
ATOM      7  N   UNL     1      27.659  -3.185  15.894  0.00  0.00    +0.000 N 
ATOM      8  H   UNL     1      27.413  -4.167  15.979  0.00  0.00    +0.000 HD
ATOM      9  H   UNL     1      27.406  -2.650  16.719  0.00  0.00    +0.000 HD
ENDBRANCH   1   7
BRANCH   2  10
ATOM     10  N   UNL     1      29.497  -2.895  13.523  0.00  0.00    +0.000 N 
ATOM     11  H   UNL     1      29.749  -3.446  14.336  0.00  0.00    +0.000 HD
ATOM     12  H   UNL     1      30.135  -2.121  13.368  0.00  0.00    +0.000 HD
ENDBRANCH   2  10
TORSDOF 2
ENDMDL
MODEL 9
REMARK VINA RESULT:      -3.9      1.849      2.981
REMARK  Name = 43806_Diaminocyclohexane.pdbqt.pdb
REMARK  2 active torsions:
REMARK  status: ('A' for Active; 'I' for Inactive)
REMARK    1  A    between atoms: C_1  and  N_7
REMARK    2  A    between atoms: C_2  and  N_10
REMARK                            x       y       z     vdW  Elec       q    Type
REMARK                         _______ _______ _______ _____ _____    ______ ____
ROOT
ATOM      1  C   UNL     1      43.120  -4.876  12.033  0.00  0.00    +0.000 A 
ATOM      2  C   UNL     1      42.961  -4.100  10.783  0.00  0.00    +0.000 A 
ATOM      3  C   UNL     1      42.326  -6.065  12.119  0.00  0.00    +0.000 A 
ATOM      4  C   UNL     1      42.060  -4.669   9.824  0.00  0.00    +0.000 A 
ATOM      5  C   UNL     1      41.338  -6.726  11.143  0.00  0.00    +0.000 A 
ATOM      6  C   UNL     1      41.190  -5.935   9.842  0.00  0.00    +0.000 A 
ENDROOT
BRANCH   1   7
ATOM      7  N   UNL     1      44.046  -4.518  13.041  0.00  0.00    +0.000 N 
ATOM      8  H   UNL     1      44.501  -5.315  13.475  0.00  0.00    +0.000 HD
ATOM      9  H   UNL     1      43.690  -3.857  13.725  0.00  0.00    +0.000 HD
ENDBRANCH   1   7
BRANCH   2  10
ATOM     10  N   UNL     1      43.587  -2.849  10.574  0.00  0.00    +0.000 N 
ATOM     11  H   UNL     1      42.977  -2.157  10.150  0.00  0.00    +0.000 HD
ATOM     12  H   UNL     1      44.490  -2.901  10.115  0.00  0.00    +0.000 HD
ENDBRANCH   2  10
TORSDOF 2
ENDMDL
