MODEL 1
REMARK VINA RESULT:      -7.2      0.000      0.000
REMARK  Name = 44234954_SipholenolL.pdbqt.pdb
REMARK  5 active torsions:
REMARK  status: ('A' for Active; 'I' for Inactive)
REMARK    1  A    between atoms: C_3  and  C_20
REMARK    2  A    between atoms: C_4  and  O_16
REMARK    3  A    between atoms: C_13  and  O_18
REMARK    4  A    between atoms: C_21  and  C_25
REMARK    5  A    between atoms: C_26  and  O_36
REMARK                            x       y       z     vdW  Elec       q    Type
REMARK                         _______ _______ _______ _____ _____    ______ ____
ROOT
ATOM      1  O   UNL     1      52.740  -2.911  13.212  0.00  0.00    +0.000 OA
ATOM      2  C   UNL     1      50.146  -3.089  13.034  0.00  0.00    +0.000 C 
ATOM      3  C   UNL     1      48.896  -3.530  13.798  0.00  0.00    +0.000 C 
ATOM      4  C   UNL     1      48.713  -3.106  15.244  0.00  0.00    +0.000 C 
ATOM      5  C   UNL     1      51.511  -3.093  13.854  0.00  0.00    +0.000 C 
ATOM      6  C   UNL     1      50.467  -4.034  11.953  0.00  0.00    +0.000 C 
ATOM      7  C   UNL     1      50.020  -2.844  15.816  0.00  0.00    +0.000 C 
ATOM      8  C   UNL     1      51.394  -2.828  15.233  0.00  0.00    +0.000 C 
ATOM      9  C   UNL     1      49.931  -1.668  12.451  0.00  0.00    +0.000 C 
ATOM     10  C   UNL     1      51.639  -4.748  11.329  0.00  0.00    +0.000 C 
ATOM     11  C   UNL     1      53.566  -4.082  12.871  0.00  0.00    +0.000 C 
ATOM     12  C   UNL     1      47.726  -1.950  15.381  0.00  0.00    +0.000 C 
ATOM     13  C   UNL     1      53.022  -4.834  11.610  0.00  0.00    +0.000 C 
ATOM     14  C   UNL     1      54.977  -3.520  12.552  0.00  0.00    +0.000 C 
ATOM     15  C   UNL     1      53.631  -5.088  14.063  0.00  0.00    +0.000 C 
ENDROOT
BRANCH   4  16
ATOM     16  O   UNL     1      48.126  -4.173  15.959  0.00  0.00    +0.000 OA
ATOM     17  H   UNL     1      48.490  -4.938  15.476  0.00  0.00    +0.000 HD
ENDBRANCH   4  16
BRANCH  13  18
ATOM     18  O   UNL     1      53.798  -5.746  10.905  0.00  0.00    +0.000 OA
ATOM     19  H   UNL     1      54.269  -5.334  10.159  0.00  0.00    +0.000 HD
ENDBRANCH  13  18
BRANCH   3  20
ATOM     20  C   UNL     1      47.863  -4.288  13.145  0.00  0.00    +0.000 C 
ATOM     21  C   UNL     1      46.776  -5.086  12.418  0.00  0.00    +0.000 C 
BRANCH  21  25
ATOM     22  C   UNL     1      44.311  -5.798  12.135  0.00  0.00    +0.000 A 
ATOM     23  C   UNL     1      43.241  -6.608  11.304  0.00  0.00    +0.000 A 
ATOM     24  C   UNL     1      43.911  -4.968  13.424  0.00  0.00    +0.000 C 
ATOM     25  C   UNL     1      45.792  -5.831  11.698  0.00  0.00    +0.000 A 
ATOM     26  C   UNL     1      41.716  -6.696  11.543  0.00  0.00    +0.000 C 
ATOM     27  C   UNL     1      42.467  -5.173  13.574  0.00  0.00    +0.000 C 
ATOM     28  C   UNL     1      41.465  -5.941  12.756  0.00  0.00    +0.000 C 
ATOM     29  C   UNL     1      43.870  -7.336  10.252  0.00  0.00    +0.000 A 
ATOM     30  C   UNL     1      46.275  -6.633  10.539  0.00  0.00    +0.000 A 
ATOM     31  C   UNL     1      44.192  -3.465  13.184  0.00  0.00    +0.000 C 
ATOM     32  C   UNL     1      44.635  -5.536  14.663  0.00  0.00    +0.000 C 
ATOM     33  C   UNL     1      45.337  -7.296   9.941  0.00  0.00    +0.000 A 
ATOM     34  C   UNL     1      40.935  -6.186  10.340  0.00  0.00    +0.000 C 
ATOM     35  C   UNL     1      47.662  -6.616   9.966  0.00  0.00    +0.000 C 
BRANCH  26  36
ATOM     36  O   UNL     1      41.347  -8.037  11.737  0.00  0.00    +0.000 OA
ATOM     37  H   UNL     1      40.745  -7.955  12.499  0.00  0.00    +0.000 HD
ENDBRANCH  26  36
ENDBRANCH  21  25
ENDBRANCH   3  20
TORSDOF 5
ENDMDL
MODEL 2
REMARK VINA RESULT:      -7.2     17.937     20.908
REMARK  Name = 44234954_SipholenolL.pdbqt.pdb
REMARK  5 active torsions:
REMARK  status: ('A' for Active; 'I' for Inactive)
REMARK    1  A    between atoms: C_3  and  C_20
REMARK    2  A    between atoms: C_4  and  O_16
REMARK    3  A    between atoms: C_13  and  O_18
REMARK    4  A    between atoms: C_21  and  C_25
REMARK    5  A    between atoms: C_26  and  O_36
REMARK                            x       y       z     vdW  Elec       q    Type
REMARK                         _______ _______ _______ _____ _____    ______ ____
ROOT
ATOM      1  O   UNL     1      45.249  18.018  16.622  0.00  0.00    +0.000 OA
ATOM      2  C   UNL     1      44.391  15.864  17.812  0.00  0.00    +0.000 C 
ATOM      3  C   UNL     1      43.924  14.429  17.557  0.00  0.00    +0.000 C 
ATOM      4  C   UNL     1      44.730  13.533  16.635  0.00  0.00    +0.000 C 
ATOM      5  C   UNL     1      44.985  16.646  16.560  0.00  0.00    +0.000 C 
ATOM      6  C   UNL     1      43.259  16.733  18.171  0.00  0.00    +0.000 C 
ATOM      7  C   UNL     1      45.475  14.370  15.713  0.00  0.00    +0.000 C 
ATOM      8  C   UNL     1      45.641  15.849  15.599  0.00  0.00    +0.000 C 
ATOM      9  C   UNL     1      45.450  15.878  18.945  0.00  0.00    +0.000 C 
ATOM     10  C   UNL     1      42.694  18.102  17.887  0.00  0.00    +0.000 C 
ATOM     11  C   UNL     1      44.272  18.974  16.074  0.00  0.00    +0.000 C 
ATOM     12  C   UNL     1      45.589  12.538  17.410  0.00  0.00    +0.000 C 
ATOM     13  C   UNL     1      43.047  19.169  17.029  0.00  0.00    +0.000 C 
ATOM     14  C   UNL     1      45.032  20.322  15.949  0.00  0.00    +0.000 C 
ATOM     15  C   UNL     1      43.750  18.506  14.680  0.00  0.00    +0.000 C 
ENDROOT
BRANCH   4  16
ATOM     16  O   UNL     1      43.839  12.736  15.882  0.00  0.00    +0.000 OA
ATOM     17  H   UNL     1      44.463  12.269  15.296  0.00  0.00    +0.000 HD
ENDBRANCH   4  16
BRANCH  13  18
ATOM     18  O   UNL     1      42.178  20.246  16.901  0.00  0.00    +0.000 OA
ATOM     19  H   UNL     1      41.547  20.305  17.640  0.00  0.00    +0.000 HD
ENDBRANCH  13  18
BRANCH   3  20
ATOM     20  C   UNL     1      42.767  13.901  18.227  0.00  0.00    +0.000 C 
ATOM     21  C   UNL     1      41.537  13.308  18.922  0.00  0.00    +0.000 C 
BRANCH  21  25
ATOM     22  C   UNL     1      40.192  11.180  19.496  0.00  0.00    +0.000 A 
ATOM     23  C   UNL     1      38.947  10.543  20.227  0.00  0.00    +0.000 A 
ATOM     24  C   UNL     1      41.222  10.295  18.679  0.00  0.00    +0.000 C 
ATOM     25  C   UNL     1      40.404  12.709  19.554  0.00  0.00    +0.000 A 
ATOM     26  C   UNL     1      38.557   9.050  20.320  0.00  0.00    +0.000 C 
ATOM     27  C   UNL     1      40.719   8.923  18.796  0.00  0.00    +0.000 C 
ATOM     28  C   UNL     1      39.532   8.339  19.515  0.00  0.00    +0.000 C 
ATOM     29  C   UNL     1      38.134  11.560  20.808  0.00  0.00    +0.000 A 
ATOM     30  C   UNL     1      39.457  13.630  20.242  0.00  0.00    +0.000 A 
ATOM     31  C   UNL     1      42.621  10.385  19.336  0.00  0.00    +0.000 C 
ATOM     32  C   UNL     1      41.215  10.713  17.193  0.00  0.00    +0.000 C 
ATOM     33  C   UNL     1      38.445  13.027  20.779  0.00  0.00    +0.000 A 
ATOM     34  C   UNL     1      38.506   8.578  21.766  0.00  0.00    +0.000 C 
ATOM     35  C   UNL     1      39.654  15.102  20.462  0.00  0.00    +0.000 C 
BRANCH  26  36
ATOM     36  O   UNL     1      37.274   8.865  19.779  0.00  0.00    +0.000 OA
ATOM     37  H   UNL     1      36.893   9.754  19.899  0.00  0.00    +0.000 HD
ENDBRANCH  26  36
ENDBRANCH  21  25
ENDBRANCH   3  20
TORSDOF 5
ENDMDL
MODEL 3
REMARK VINA RESULT:      -6.8     31.829     36.830
REMARK  Name = 44234954_SipholenolL.pdbqt.pdb
REMARK  5 active torsions:
REMARK  status: ('A' for Active; 'I' for Inactive)
REMARK    1  A    between atoms: C_3  and  C_20
REMARK    2  A    between atoms: C_4  and  O_16
REMARK    3  A    between atoms: C_13  and  O_18
REMARK    4  A    between atoms: C_21  and  C_25
REMARK    5  A    between atoms: C_26  and  O_36
REMARK                            x       y       z     vdW  Elec       q    Type
REMARK                         _______ _______ _______ _____ _____    ______ ____
ROOT
ATOM      1  O   UNL     1      12.871   7.014  29.927  0.00  0.00    +0.000 OA
ATOM      2  C   UNL     1      13.867   4.758  29.083  0.00  0.00    +0.000 C 
ATOM      3  C   UNL     1      14.940   3.708  29.378  0.00  0.00    +0.000 C 
ATOM      4  C   UNL     1      15.110   3.190  30.795  0.00  0.00    +0.000 C 
ATOM      5  C   UNL     1      13.670   5.894  30.181  0.00  0.00    +0.000 C 
ATOM      6  C   UNL     1      14.228   5.566  27.907  0.00  0.00    +0.000 C 
ATOM      7  C   UNL     1      14.618   4.197  31.716  0.00  0.00    +0.000 C 
ATOM      8  C   UNL     1      13.934   5.508  31.510  0.00  0.00    +0.000 C 
ATOM      9  C   UNL     1      12.502   4.061  28.849  0.00  0.00    +0.000 C 
ATOM     10  C   UNL     1      14.241   6.995  27.425  0.00  0.00    +0.000 C 
ATOM     11  C   UNL     1      13.501   8.278  29.509  0.00  0.00    +0.000 C 
ATOM     12  C   UNL     1      14.483   1.811  30.980  0.00  0.00    +0.000 C 
ATOM     13  C   UNL     1      13.931   8.247  28.004  0.00  0.00    +0.000 C 
ATOM     14  C   UNL     1      12.413   9.369  29.699  0.00  0.00    +0.000 C 
ATOM     15  C   UNL     1      14.755   8.595  30.381  0.00  0.00    +0.000 C 
ENDROOT
BRANCH   4  16
ATOM     16  O   UNL     1      16.488   3.000  31.047  0.00  0.00    +0.000 OA
ATOM     17  H   UNL     1      16.679   2.248  30.456  0.00  0.00    +0.000 HD
ENDBRANCH   4  16
BRANCH  13  18
ATOM     18  O   UNL     1      14.229   9.407  27.300  0.00  0.00    +0.000 OA
ATOM     19  H   UNL     1      14.112  10.210  27.839  0.00  0.00    +0.000 HD
ENDBRANCH  13  18
BRANCH   3  20
ATOM     20  C   UNL     1      15.747   3.161  28.321  0.00  0.00    +0.000 C 
ATOM     21  C   UNL     1      16.581   2.554  27.189  0.00  0.00    +0.000 C 
BRANCH  21  25
ATOM     22  C   UNL     1      16.931   0.574  25.569  0.00  0.00    +0.000 A 
ATOM     23  C   UNL     1      17.742  -0.038  24.362  0.00  0.00    +0.000 A 
ATOM     24  C   UNL     1      15.741  -0.215  26.258  0.00  0.00    +0.000 C 
ATOM     25  C   UNL     1      17.316   1.967  26.113  0.00  0.00    +0.000 A 
ATOM     26  C   UNL     1      17.515  -1.391  23.648  0.00  0.00    +0.000 C 
ATOM     27  C   UNL     1      15.662  -1.488  25.536  0.00  0.00    +0.000 C 
ATOM     28  C   UNL     1      16.442  -2.042  24.374  0.00  0.00    +0.000 C 
ATOM     29  C   UNL     1      18.810   0.829  23.987  0.00  0.00    +0.000 A 
ATOM     30  C   UNL     1      18.458   2.756  25.574  0.00  0.00    +0.000 A 
ATOM     31  C   UNL     1      14.418   0.566  26.066  0.00  0.00    +0.000 C 
ATOM     32  C   UNL     1      16.079  -0.491  27.739  0.00  0.00    +0.000 C 
ATOM     33  C   UNL     1      19.092   2.162  24.614  0.00  0.00    +0.000 A 
ATOM     34  C   UNL     1      17.215  -1.194  22.169  0.00  0.00    +0.000 C 
ATOM     35  C   UNL     1      18.817   4.165  25.948  0.00  0.00    +0.000 C 
BRANCH  26  36
ATOM     36  O   UNL     1      18.682  -2.168  23.733  0.00  0.00    +0.000 OA
ATOM     37  H   UNL     1      18.932  -2.231  22.793  0.00  0.00    +0.000 HD
ENDBRANCH  26  36
ENDBRANCH  21  25
ENDBRANCH   3  20
TORSDOF 5
ENDMDL
MODEL 4
REMARK VINA RESULT:      -6.8     17.823     21.750
REMARK  Name = 44234954_SipholenolL.pdbqt.pdb
REMARK  5 active torsions:
REMARK  status: ('A' for Active; 'I' for Inactive)
REMARK    1  A    between atoms: C_3  and  C_20
REMARK    2  A    between atoms: C_4  and  O_16
REMARK    3  A    between atoms: C_13  and  O_18
REMARK    4  A    between atoms: C_21  and  C_25
REMARK    5  A    between atoms: C_26  and  O_36
REMARK                            x       y       z     vdW  Elec       q    Type
REMARK                         _______ _______ _______ _____ _____    ______ ____
ROOT
ATOM      1  O   UNL     1      37.653  10.229  20.806  0.00  0.00    +0.000 OA
ATOM      2  C   UNL     1      39.845  11.581  20.410  0.00  0.00    +0.000 C 
ATOM      3  C   UNL     1      40.392  12.999  20.227  0.00  0.00    +0.000 C 
ATOM      4  C   UNL     1      39.947  14.100  21.172  0.00  0.00    +0.000 C 
ATOM      5  C   UNL     1      38.310  11.464  20.814  0.00  0.00    +0.000 C 
ATOM      6  C   UNL     1      39.858  10.841  19.139  0.00  0.00    +0.000 C 
ATOM      7  C   UNL     1      38.651  13.744  21.719  0.00  0.00    +0.000 C 
ATOM      8  C   UNL     1      37.801  12.524  21.591  0.00  0.00    +0.000 C 
ATOM      9  C   UNL     1      40.689  10.827  21.471  0.00  0.00    +0.000 C 
ATOM     10  C   UNL     1      39.001   9.916  18.313  0.00  0.00    +0.000 C 
ATOM     11  C   UNL     1      36.823   9.852  19.650  0.00  0.00    +0.000 C 
ATOM     12  C   UNL     1      41.007  14.414  22.224  0.00  0.00    +0.000 C 
ATOM     13  C   UNL     1      37.693   9.393  18.431  0.00  0.00    +0.000 C 
ATOM     14  C   UNL     1      35.958   8.655  20.129  0.00  0.00    +0.000 C 
ATOM     15  C   UNL     1      35.916  11.039  19.199  0.00  0.00    +0.000 C 
ENDROOT
BRANCH   4  16
ATOM     16  O   UNL     1      39.799  15.298  20.436  0.00  0.00    +0.000 OA
ATOM     17  H   UNL     1      40.153  15.024  19.570  0.00  0.00    +0.000 HD
ENDBRANCH   4  16
BRANCH  13  18
ATOM     18  O   UNL     1      37.151   8.683  17.367  0.00  0.00    +0.000 OA
ATOM     19  H   UNL     1      36.913   9.259  16.619  0.00  0.00    +0.000 HD
ENDBRANCH  13  18
BRANCH   3  20
ATOM     20  C   UNL     1      41.367  13.287  19.210  0.00  0.00    +0.000 C 
ATOM     21  C   UNL     1      42.399  13.629  18.131  0.00  0.00    +0.000 C 
BRANCH  21  25
ATOM     22  C   UNL     1      43.842  15.458  17.019  0.00  0.00    +0.000 A 
ATOM     23  C   UNL     1      44.931  15.828  15.939  0.00  0.00    +0.000 A 
ATOM     24  C   UNL     1      43.204  16.554  17.969  0.00  0.00    +0.000 C 
ATOM     25  C   UNL     1      43.366  13.994  17.144  0.00  0.00    +0.000 A 
ATOM     26  C   UNL     1      45.567  17.209  15.659  0.00  0.00    +0.000 C 
ATOM     27  C   UNL     1      43.841  17.814  17.574  0.00  0.00    +0.000 C 
ATOM     28  C   UNL     1      44.892  18.138  16.546  0.00  0.00    +0.000 C 
ATOM     29  C   UNL     1      45.273  14.683  15.160  0.00  0.00    +0.000 A 
ATOM     30  C   UNL     1      43.858  12.906  16.255  0.00  0.00    +0.000 A 
ATOM     31  C   UNL     1      43.563  16.240  19.442  0.00  0.00    +0.000 C 
ATOM     32  C   UNL     1      41.685  16.653  17.716  0.00  0.00    +0.000 C 
ATOM     33  C   UNL     1      44.717  13.306  15.373  0.00  0.00    +0.000 A 
ATOM     34  C   UNL     1      47.076  17.175  15.853  0.00  0.00    +0.000 C 
ATOM     35  C   UNL     1      43.553  11.443  16.392  0.00  0.00    +0.000 C 
BRANCH  26  36
ATOM     36  O   UNL     1      45.330  17.574  14.324  0.00  0.00    +0.000 OA
ATOM     37  H   UNL     1      45.507  16.732  13.867  0.00  0.00    +0.000 HD
ENDBRANCH  26  36
ENDBRANCH  21  25
ENDBRANCH   3  20
TORSDOF 5
ENDMDL
MODEL 5
REMARK VINA RESULT:      -6.7     39.021     42.778
REMARK  Name = 44234954_SipholenolL.pdbqt.pdb
REMARK  5 active torsions:
REMARK  status: ('A' for Active; 'I' for Inactive)
REMARK    1  A    between atoms: C_3  and  C_20
REMARK    2  A    between atoms: C_4  and  O_16
REMARK    3  A    between atoms: C_13  and  O_18
REMARK    4  A    between atoms: C_21  and  C_25
REMARK    5  A    between atoms: C_26  and  O_36
REMARK                            x       y       z     vdW  Elec       q    Type
REMARK                         _______ _______ _______ _____ _____    ______ ____
ROOT
ATOM      1  O   UNL     1      15.427  20.223  35.363  0.00  0.00    +0.000 OA
ATOM      2  C   UNL     1      16.939  18.672  33.914  0.00  0.00    +0.000 C 
ATOM      3  C   UNL     1      17.983  17.556  33.998  0.00  0.00    +0.000 C 
ATOM      4  C   UNL     1      17.738  16.371  34.914  0.00  0.00    +0.000 C 
ATOM      5  C   UNL     1      16.237  19.086  35.282  0.00  0.00    +0.000 C 
ATOM      6  C   UNL     1      17.559  19.948  33.522  0.00  0.00    +0.000 C 
ATOM      7  C   UNL     1      16.837  16.784  35.973  0.00  0.00    +0.000 C 
ATOM      8  C   UNL     1      16.092  18.052  36.229  0.00  0.00    +0.000 C 
ATOM      9  C   UNL     1      15.836  18.284  32.896  0.00  0.00    +0.000 C 
ATOM     10  C   UNL     1      17.541  21.415  33.867  0.00  0.00    +0.000 C 
ATOM     11  C   UNL     1      15.984  21.479  35.893  0.00  0.00    +0.000 C 
ATOM     12  C   UNL     1      17.276  15.137  34.144  0.00  0.00    +0.000 C 
ATOM     13  C   UNL     1      16.891  22.204  34.844  0.00  0.00    +0.000 C 
ATOM     14  C   UNL     1      14.759  22.380  36.208  0.00  0.00    +0.000 C 
ATOM     15  C   UNL     1      16.822  21.220  37.185  0.00  0.00    +0.000 C 
ENDROOT
BRANCH   4  16
ATOM     16  O   UNL     1      18.965  15.992  35.505  0.00  0.00    +0.000 OA
ATOM     17  H   UNL     1      19.511  16.777  35.309  0.00  0.00    +0.000 HD
ENDBRANCH   4  16
BRANCH  13  18
ATOM     18  O   UNL     1      17.249  23.540  34.979  0.00  0.00    +0.000 OA
ATOM     19  H   UNL     1      16.512  24.092  35.297  0.00  0.00    +0.000 HD
ENDBRANCH  13  18
BRANCH   3  20
ATOM     20  C   UNL     1      19.161  17.586  33.175  0.00  0.00    +0.000 C 
ATOM     21  C   UNL     1      20.396  17.615  32.269  0.00  0.00    +0.000 C 
BRANCH  21  25
ATOM     22  C   UNL     1      22.319  18.963  31.196  0.00  0.00    +0.000 A 
ATOM     23  C   UNL     1      23.571  18.972  30.236  0.00  0.00    +0.000 A 
ATOM     24  C   UNL     1      21.844  20.269  31.959  0.00  0.00    +0.000 C 
ATOM     25  C   UNL     1      21.518  17.656  31.384  0.00  0.00    +0.000 A 
ATOM     26  C   UNL     1      24.523  20.149  29.922  0.00  0.00    +0.000 C 
ATOM     27  C   UNL     1      22.783  21.314  31.541  0.00  0.00    +0.000 C 
ATOM     28  C   UNL     1      23.982  21.292  30.632  0.00  0.00    +0.000 C 
ATOM     29  C   UNL     1      23.729  17.702  29.609  0.00  0.00    +0.000 A 
ATOM     30  C   UNL     1      21.847  16.396  30.663  0.00  0.00    +0.000 A 
ATOM     31  C   UNL     1      21.965  20.053  33.487  0.00  0.00    +0.000 C 
ATOM     32  C   UNL     1      20.420  20.656  31.506  0.00  0.00    +0.000 C 
ATOM     33  C   UNL     1      22.862  16.504  29.866  0.00  0.00    +0.000 A 
ATOM     34  C   UNL     1      25.958  19.820  30.309  0.00  0.00    +0.000 C 
ATOM     35  C   UNL     1      21.211  15.055  30.885  0.00  0.00    +0.000 C 
BRANCH  26  36
ATOM     36  O   UNL     1      24.516  20.404  28.541  0.00  0.00    +0.000 OA
ATOM     37  H   UNL     1      24.303  19.519  28.190  0.00  0.00    +0.000 HD
ENDBRANCH  26  36
ENDBRANCH  21  25
ENDBRANCH   3  20
TORSDOF 5
ENDMDL
MODEL 6
REMARK VINA RESULT:      -6.6     15.932     19.950
REMARK  Name = 44234954_SipholenolL.pdbqt.pdb
REMARK  5 active torsions:
REMARK  status: ('A' for Active; 'I' for Inactive)
REMARK    1  A    between atoms: C_3  and  C_20
REMARK    2  A    between atoms: C_4  and  O_16
REMARK    3  A    between atoms: C_13  and  O_18
REMARK    4  A    between atoms: C_21  and  C_25
REMARK    5  A    between atoms: C_26  and  O_36
REMARK                            x       y       z     vdW  Elec       q    Type
REMARK                         _______ _______ _______ _____ _____    ______ ____
ROOT
ATOM      1  O   UNL     1      37.227   9.459  20.506  0.00  0.00    +0.000 OA
ATOM      2  C   UNL     1      39.700  10.096  19.985  0.00  0.00    +0.000 C 
ATOM      3  C   UNL     1      40.647  11.286  19.817  0.00  0.00    +0.000 C 
ATOM      4  C   UNL     1      40.631  12.406  20.841  0.00  0.00    +0.000 C 
ATOM      5  C   UNL     1      38.234  10.429  20.510  0.00  0.00    +0.000 C 
ATOM      6  C   UNL     1      39.397   9.473  18.687  0.00  0.00    +0.000 C 
ATOM      7  C   UNL     1      39.328  12.430  21.479  0.00  0.00    +0.000 C 
ATOM      8  C   UNL     1      38.133  11.540  21.371  0.00  0.00    +0.000 C 
ATOM      9  C   UNL     1      40.335   9.051  20.939  0.00  0.00    +0.000 C 
ATOM     10  C   UNL     1      38.242   8.912  17.897  0.00  0.00    +0.000 C 
ATOM     11  C   UNL     1      36.246   9.432  19.407  0.00  0.00    +0.000 C 
ATOM     12  C   UNL     1      41.802  12.309  21.814  0.00  0.00    +0.000 C 
ATOM     13  C   UNL     1      36.846   8.810  18.102  0.00  0.00    +0.000 C 
ATOM     14  C   UNL     1      35.085   8.529  19.907  0.00  0.00    +0.000 C 
ATOM     15  C   UNL     1      35.726  10.867  19.084  0.00  0.00    +0.000 C 
ENDROOT
BRANCH   4  16
ATOM     16  O   UNL     1      40.814  13.637  20.171  0.00  0.00    +0.000 OA
ATOM     17  H   UNL     1      40.073  14.155  20.538  0.00  0.00    +0.000 HD
ENDBRANCH   4  16
BRANCH  13  18
ATOM     18  O   UNL     1      36.041   8.372  17.058  0.00  0.00    +0.000 OA
ATOM     19  H   UNL     1      35.161   8.788  17.068  0.00  0.00    +0.000 HD
ENDBRANCH  13  18
BRANCH   3  20
ATOM     20  C   UNL     1      41.593  11.327  18.735  0.00  0.00    +0.000 C 
ATOM     21  C   UNL     1      42.628  11.363  17.606  0.00  0.00    +0.000 C 
BRANCH  21  25
ATOM     22  C   UNL     1      44.296  12.692  16.151  0.00  0.00    +0.000 A 
ATOM     23  C   UNL     1      45.414  12.666  15.038  0.00  0.00    +0.000 A 
ATOM     24  C   UNL     1      43.823  14.046  16.826  0.00  0.00    +0.000 C 
ATOM     25  C   UNL     1      43.625  11.370  16.582  0.00  0.00    +0.000 A 
ATOM     26  C   UNL     1      46.229  13.854  14.476  0.00  0.00    +0.000 C 
ATOM     27  C   UNL     1      44.622  15.091  16.178  0.00  0.00    +0.000 C 
ATOM     28  C   UNL     1      45.696  15.036  15.125  0.00  0.00    +0.000 C 
ATOM     29  C   UNL     1      45.588  11.343  14.534  0.00  0.00    +0.000 A 
ATOM     30  C   UNL     1      43.955  10.056  15.961  0.00  0.00    +0.000 A 
ATOM     31  C   UNL     1      44.150  14.016  18.338  0.00  0.00    +0.000 C 
ATOM     32  C   UNL     1      42.329  14.291  16.527  0.00  0.00    +0.000 C 
ATOM     33  C   UNL     1      44.851  10.134  15.031  0.00  0.00    +0.000 A 
ATOM     34  C   UNL     1      47.721  13.659  14.703  0.00  0.00    +0.000 C 
ATOM     35  C   UNL     1      43.454   8.714  16.408  0.00  0.00    +0.000 C 
BRANCH  26  36
ATOM     36  O   UNL     1      46.030  13.947  13.089  0.00  0.00    +0.000 OA
ATOM     37  H   UNL     1      45.546  14.790  13.027  0.00  0.00    +0.000 HD
ENDBRANCH  26  36
ENDBRANCH  21  25
ENDBRANCH   3  20
TORSDOF 5
ENDMDL
MODEL 7
REMARK VINA RESULT:      -6.5     36.804     39.136
REMARK  Name = 44234954_SipholenolL.pdbqt.pdb
REMARK  5 active torsions:
REMARK  status: ('A' for Active; 'I' for Inactive)
REMARK    1  A    between atoms: C_3  and  C_20
REMARK    2  A    between atoms: C_4  and  O_16
REMARK    3  A    between atoms: C_13  and  O_18
REMARK    4  A    between atoms: C_21  and  C_25
REMARK    5  A    between atoms: C_26  and  O_36
REMARK                            x       y       z     vdW  Elec       q    Type
REMARK                         _______ _______ _______ _____ _____    ______ ____
ROOT
ATOM      1  O   UNL     1      23.165  12.056  38.019  0.00  0.00    +0.000 OA
ATOM      2  C   UNL     1      22.448  14.075  36.535  0.00  0.00    +0.000 C 
ATOM      3  C   UNL     1      21.410  14.529  35.507  0.00  0.00    +0.000 C 
ATOM      4  C   UNL     1      19.938  14.266  35.763  0.00  0.00    +0.000 C 
ATOM      5  C   UNL     1      22.187  12.664  37.225  0.00  0.00    +0.000 C 
ATOM      6  C   UNL     1      23.753  13.837  35.899  0.00  0.00    +0.000 C 
ATOM      7  C   UNL     1      19.821  13.126  36.654  0.00  0.00    +0.000 C 
ATOM      8  C   UNL     1      20.833  12.303  37.380  0.00  0.00    +0.000 C 
ATOM      9  C   UNL     1      22.588  15.145  37.648  0.00  0.00    +0.000 C 
ATOM     10  C   UNL     1      24.894  12.850  35.895  0.00  0.00    +0.000 C 
ATOM     11  C   UNL     1      24.026  11.010  37.441  0.00  0.00    +0.000 C 
ATOM     12  C   UNL     1      19.207  15.515  36.246  0.00  0.00    +0.000 C 
ATOM     13  C   UNL     1      25.146  11.612  36.529  0.00  0.00    +0.000 C 
ATOM     14  C   UNL     1      24.690  10.300  38.652  0.00  0.00    +0.000 C 
ATOM     15  C   UNL     1      23.189   9.995  36.602  0.00  0.00    +0.000 C 
ENDROOT
BRANCH   4  16
ATOM     16  O   UNL     1      19.316  13.931  34.539  0.00  0.00    +0.000 OA
ATOM     17  H   UNL     1      18.376  13.963  34.798  0.00  0.00    +0.000 HD
ENDBRANCH   4  16
BRANCH  13  18
ATOM     18  O   UNL     1      26.263  10.877  36.152  0.00  0.00    +0.000 OA
ATOM     19  H   UNL     1      26.034   9.977  35.860  0.00  0.00    +0.000 HD
ENDBRANCH  13  18
BRANCH   3  20
ATOM     20  C   UNL     1      21.806  15.257  34.332  0.00  0.00    +0.000 C 
ATOM     21  C   UNL     1      22.246  16.056  33.101  0.00  0.00    +0.000 C 
BRANCH  21  25
ATOM     22  C   UNL     1      23.493  18.126  32.192  0.00  0.00    +0.000 A 
ATOM     23  C   UNL     1      23.999  18.936  30.937  0.00  0.00    +0.000 A 
ATOM     24  C   UNL     1      23.763  18.627  33.672  0.00  0.00    +0.000 C 
ATOM     25  C   UNL     1      22.693  16.822  31.980  0.00  0.00    +0.000 A 
ATOM     26  C   UNL     1      24.830  20.240  30.914  0.00  0.00    +0.000 C 
ATOM     27  C   UNL     1      24.502  19.884  33.517  0.00  0.00    +0.000 C 
ATOM     28  C   UNL     1      24.986  20.629  32.303  0.00  0.00    +0.000 C 
ATOM     29  C   UNL     1      23.551  18.322  29.730  0.00  0.00    +0.000 A 
ATOM     30  C   UNL     1      22.335  16.304  30.630  0.00  0.00    +0.000 A 
ATOM     31  C   UNL     1      24.650  17.600  34.416  0.00  0.00    +0.000 C 
ATOM     32  C   UNL     1      22.423  18.911  34.385  0.00  0.00    +0.000 C 
ATOM     33  C   UNL     1      22.755  17.052  29.660  0.00  0.00    +0.000 A 
ATOM     34  C   UNL     1      26.153  20.043  30.188  0.00  0.00    +0.000 C 
ATOM     35  C   UNL     1      21.683  14.986  30.331  0.00  0.00    +0.000 C 
BRANCH  26  36
ATOM     36  O   UNL     1      24.123  21.236  30.221  0.00  0.00    +0.000 OA
ATOM     37  H   UNL     1      23.521  20.694  29.680  0.00  0.00    +0.000 HD
ENDBRANCH  26  36
ENDBRANCH  21  25
ENDBRANCH   3  20
TORSDOF 5
ENDMDL
MODEL 8
REMARK VINA RESULT:      -6.4     18.445     21.460
REMARK  Name = 44234954_SipholenolL.pdbqt.pdb
REMARK  5 active torsions:
REMARK  status: ('A' for Active; 'I' for Inactive)
REMARK    1  A    between atoms: C_3  and  C_20
REMARK    2  A    between atoms: C_4  and  O_16
REMARK    3  A    between atoms: C_13  and  O_18
REMARK    4  A    between atoms: C_21  and  C_25
REMARK    5  A    between atoms: C_26  and  O_36
REMARK                            x       y       z     vdW  Elec       q    Type
REMARK                         _______ _______ _______ _____ _____    ______ ____
ROOT
ATOM      1  O   UNL     1      44.736  18.407  18.059  0.00  0.00    +0.000 OA
ATOM      2  C   UNL     1      43.507  16.938  19.827  0.00  0.00    +0.000 C 
ATOM      3  C   UNL     1      43.603  15.623  20.604  0.00  0.00    +0.000 C 
ATOM      4  C   UNL     1      44.909  15.245  21.278  0.00  0.00    +0.000 C 
ATOM      5  C   UNL     1      44.783  17.343  18.966  0.00  0.00    +0.000 C 
ATOM      6  C   UNL     1      42.477  16.860  18.780  0.00  0.00    +0.000 C 
ATOM      7  C   UNL     1      45.995  15.914  20.587  0.00  0.00    +0.000 C 
ATOM      8  C   UNL     1      46.025  16.911  19.476  0.00  0.00    +0.000 C 
ATOM      9  C   UNL     1      43.186  18.101  20.802  0.00  0.00    +0.000 C 
ATOM     10  C   UNL     1      42.241  17.229  17.337  0.00  0.00    +0.000 C 
ATOM     11  C   UNL     1      44.524  18.135  16.627  0.00  0.00    +0.000 C 
ATOM     12  C   UNL     1      44.872  15.499  22.782  0.00  0.00    +0.000 C 
ATOM     13  C   UNL     1      43.027  17.803  16.311  0.00  0.00    +0.000 C 
ATOM     14  C   UNL     1      44.915  19.446  15.892  0.00  0.00    +0.000 C 
ATOM     15  C   UNL     1      45.413  16.948  16.144  0.00  0.00    +0.000 C 
ENDROOT
BRANCH   4  16
ATOM     16  O   UNL     1      45.100  13.851  21.149  0.00  0.00    +0.000 OA
ATOM     17  H   UNL     1      44.321  13.609  20.612  0.00  0.00    +0.000 HD
ENDBRANCH   4  16
BRANCH  13  18
ATOM     18  O   UNL     1      42.522  17.844  15.017  0.00  0.00    +0.000 OA
ATOM     19  H   UNL     1      42.412  16.957  14.633  0.00  0.00    +0.000 HD
ENDBRANCH  13  18
BRANCH   3  20
ATOM     20  C   UNL     1      42.454  14.772  20.755  0.00  0.00    +0.000 C 
ATOM     21  C   UNL     1      41.244  13.842  20.895  0.00  0.00    +0.000 C 
BRANCH  21  25
ATOM     22  C   UNL     1      40.321  11.443  20.652  0.00  0.00    +0.000 A 
ATOM     23  C   UNL     1      39.098  10.459  20.814  0.00  0.00    +0.000 A 
ATOM     24  C   UNL     1      41.725  10.945  20.111  0.00  0.00    +0.000 C 
ATOM     25  C   UNL     1      40.145  12.935  21.008  0.00  0.00    +0.000 A 
ATOM     26  C   UNL     1      39.055   8.938  20.544  0.00  0.00    +0.000 C 
ATOM     27  C   UNL     1      41.542   9.515  19.844  0.00  0.00    +0.000 C 
ATOM     28  C   UNL     1      40.364   8.596  20.022  0.00  0.00    +0.000 C 
ATOM     29  C   UNL     1      37.934  11.172  21.230  0.00  0.00    +0.000 A 
ATOM     30  C   UNL     1      38.848  13.510  21.462  0.00  0.00    +0.000 A 
ATOM     31  C   UNL     1      42.801  11.127  21.209  0.00  0.00    +0.000 C 
ATOM     32  C   UNL     1      42.068  11.668  18.791  0.00  0.00    +0.000 C 
ATOM     33  C   UNL     1      37.891  12.642  21.527  0.00  0.00    +0.000 A 
ATOM     34  C   UNL     1      38.682   8.162  21.800  0.00  0.00    +0.000 C 
ATOM     35  C   UNL     1      38.624  14.910  21.954  0.00  0.00    +0.000 C 
BRANCH  26  36
ATOM     36  O   UNL     1      38.074   8.658  19.579  0.00  0.00    +0.000 OA
ATOM     37  H   UNL     1      38.411   9.167  18.819  0.00  0.00    +0.000 HD
ENDBRANCH  26  36
ENDBRANCH  21  25
ENDBRANCH   3  20
TORSDOF 5
ENDMDL
MODEL 9
REMARK VINA RESULT:      -5.9     43.939     48.056
REMARK  Name = 44234954_SipholenolL.pdbqt.pdb
REMARK  5 active torsions:
REMARK  status: ('A' for Active; 'I' for Inactive)
REMARK    1  A    between atoms: C_3  and  C_20
REMARK    2  A    between atoms: C_4  and  O_16
REMARK    3  A    between atoms: C_13  and  O_18
REMARK    4  A    between atoms: C_21  and  C_25
REMARK    5  A    between atoms: C_26  and  O_36
REMARK                            x       y       z     vdW  Elec       q    Type
REMARK                         _______ _______ _______ _____ _____    ______ ____
ROOT
ATOM      1  O   UNL     1       8.067  21.774  31.564  0.00  0.00    +0.000 OA
ATOM      2  C   UNL     1      10.389  22.007  32.725  0.00  0.00    +0.000 C 
ATOM      3  C   UNL     1      11.786  22.608  32.557  0.00  0.00    +0.000 C 
ATOM      4  C   UNL     1      11.932  24.048  32.099  0.00  0.00    +0.000 C 
ATOM      5  C   UNL     1       9.308  22.417  31.631  0.00  0.00    +0.000 C 
ATOM      6  C   UNL     1      10.417  20.546  32.557  0.00  0.00    +0.000 C 
ATOM      7  C   UNL     1      10.743  24.417  31.353  0.00  0.00    +0.000 C 
ATOM      8  C   UNL     1       9.463  23.702  31.073  0.00  0.00    +0.000 C 
ATOM      9  C   UNL     1       9.828  22.369  34.126  0.00  0.00    +0.000 C 
ATOM     10  C   UNL     1       9.653  19.427  31.896  0.00  0.00    +0.000 C 
ATOM     11  C   UNL     1       7.859  20.693  30.586  0.00  0.00    +0.000 C 
ATOM     12  C   UNL     1      12.262  24.986  33.256  0.00  0.00    +0.000 C 
ATOM     13  C   UNL     1       8.525  19.353  31.046  0.00  0.00    +0.000 C 
ATOM     14  C   UNL     1       6.321  20.490  30.509  0.00  0.00    +0.000 C 
ATOM     15  C   UNL     1       8.432  21.082  29.188  0.00  0.00    +0.000 C 
ENDROOT
BRANCH   4  16
ATOM     16  O   UNL     1      13.042  24.137  31.229  0.00  0.00    +0.000 OA
ATOM     17  H   UNL     1      13.593  23.404  31.561  0.00  0.00    +0.000 HD
ENDBRANCH   4  16
BRANCH  13  18
ATOM     18  O   UNL     1       8.189  18.131  30.477  0.00  0.00    +0.000 OA
ATOM     19  H   UNL     1       8.635  17.983  29.624  0.00  0.00    +0.000 HD
ENDBRANCH  13  18
BRANCH   3  20
ATOM     20  C   UNL     1      12.960  21.846  32.886  0.00  0.00    +0.000 C 
ATOM     21  C   UNL     1      14.218  21.031  33.202  0.00  0.00    +0.000 C 
BRANCH  21  25
ATOM     22  C   UNL     1      15.401  18.741  33.351  0.00  0.00    +0.000 A 
ATOM     23  C   UNL     1      16.737  17.941  33.602  0.00  0.00    +0.000 A 
ATOM     24  C   UNL     1      14.038  18.003  33.019  0.00  0.00    +0.000 C 
ATOM     25  C   UNL     1      15.410  20.282  33.451  0.00  0.00    +0.000 A 
ATOM     26  C   UNL     1      16.963  16.413  33.530  0.00  0.00    +0.000 C 
ATOM     27  C   UNL     1      14.368  16.574  33.033  0.00  0.00    +0.000 C 
ATOM     28  C   UNL     1      15.660  15.837  33.262  0.00  0.00    +0.000 C 
ATOM     29  C   UNL     1      17.791  18.830  33.967  0.00  0.00    +0.000 A 
ATOM     30  C   UNL     1      16.625  21.061  33.819  0.00  0.00    +0.000 A 
ATOM     31  C   UNL     1      13.559  18.404  31.603  0.00  0.00    +0.000 C 
ATOM     32  C   UNL     1      12.998  18.293  34.123  0.00  0.00    +0.000 C 
ATOM     33  C   UNL     1      17.664  20.323  34.047  0.00  0.00    +0.000 A 
ATOM     34  C   UNL     1      18.010  16.056  32.484  0.00  0.00    +0.000 C 
ATOM     35  C   UNL     1      16.756  22.555  33.808  0.00  0.00    +0.000 C 
BRANCH  26  36
ATOM     36  O   UNL     1      17.440  15.949  34.766  0.00  0.00    +0.000 OA
ATOM     37  H   UNL     1      18.222  16.517  34.888  0.00  0.00    +0.000 HD
ENDBRANCH  26  36
ENDBRANCH  21  25
ENDBRANCH   3  20
TORSDOF 5
ENDMDL
