MODEL 1
REMARK VINA RESULT:      -6.1      0.000      0.000
REMARK  Name = 442793_6gingerol.pdbqt.pdb
REMARK  7 active torsions:
REMARK  status: ('A' for Active; 'I' for Inactive)
REMARK    1  A    between atoms: C_1  and  C_3
REMARK    2  A    between atoms: C_5  and  O_6
REMARK    3  A    between atoms: C_5  and  C_8
REMARK    4  A    between atoms: C_9  and  C_10
REMARK    5  A    between atoms: C_13  and  C_14
REMARK    6  A    between atoms: C_17  and  O_20
REMARK    7  A    between atoms: C_19  and  O_22
REMARK                            x       y       z     vdW  Elec       q    Type
REMARK                         _______ _______ _______ _____ _____    ______ ____
ROOT
ATOM      1  C   UNL     1      43.462  -3.862  11.069  0.00  0.00    +0.000 C 
ATOM      2  C   UNL     1      43.528  -2.463  11.694  0.00  0.00    +0.000 C 
ENDROOT
BRANCH   2   3
ATOM      3  C   UNL     1      43.590  -1.165  12.277  0.00  0.00    +0.000 A 
ATOM      4  C   UNL     1      42.596  -0.754  13.163  0.00  0.00    +0.000 A 
ATOM      5  C   UNL     1      44.642  -0.311  11.958  0.00  0.00    +0.000 A 
ATOM      6  C   UNL     1      42.643   0.517  13.742  0.00  0.00    +0.000 A 
ATOM      7  C   UNL     1      44.701   0.958  12.528  0.00  0.00    +0.000 A 
ATOM      8  C   UNL     1      43.705   1.366  13.414  0.00  0.00    +0.000 A 
BRANCH   6   9
ATOM      9  O   UNL     1      41.707   1.002  14.623  0.00  0.00    +0.000 OA
ATOM     10  C   UNL     1      40.722   0.087  15.025  0.00  0.00    +0.000 C 
ENDBRANCH   6   9
BRANCH   8  11
ATOM     11  O   UNL     1      43.769   2.613  13.970  0.00  0.00    +0.000 OA
ATOM     12  H   UNL     1      43.550   2.544  14.918  0.00  0.00    +0.000 HD
ENDBRANCH   8  11
ENDBRANCH   2   3
BRANCH   1  14
ATOM     13  O   UNL     1      42.355  -5.807  10.485  0.00  0.00    +0.000 OA
ATOM     14  C   UNL     1      43.403  -5.178  10.484  0.00  0.00    +0.000 C 
ATOM     15  C   UNL     1      44.586  -5.746   9.901  0.00  0.00    +0.000 C 
ATOM     16  C   UNL     1      45.747  -6.310   9.329  0.00  0.00    +0.000 C 
BRANCH  16  17
ATOM     17  O   UNL     1      46.817  -5.474   9.117  0.00  0.00    +0.000 OA
ATOM     18  H   UNL     1      47.654  -5.967   9.052  0.00  0.00    +0.000 HD
ENDBRANCH  16  17
BRANCH  16  19
ATOM     19  C   UNL     1      45.861  -7.675   8.969  0.00  0.00    +0.000 C 
ATOM     20  C   UNL     1      45.975  -9.152   8.579  0.00  0.00    +0.000 C 
BRANCH  20  21
ATOM     21  C   UNL     1      46.082 -10.630   8.190  0.00  0.00    +0.000 C 
ATOM     22  C   UNL     1      46.191 -12.107   7.799  0.00  0.00    +0.000 C 
ATOM     23  C   UNL     1      46.308 -13.584   7.409  0.00  0.00    +0.000 C 
ENDBRANCH  20  21
ENDBRANCH  16  19
ENDBRANCH   1  14
TORSDOF 7
ENDMDL
MODEL 2
REMARK VINA RESULT:      -5.7     33.472     34.952
REMARK  Name = 442793_6gingerol.pdbqt.pdb
REMARK  7 active torsions:
REMARK  status: ('A' for Active; 'I' for Inactive)
REMARK    1  A    between atoms: C_1  and  C_3
REMARK    2  A    between atoms: C_5  and  O_6
REMARK    3  A    between atoms: C_5  and  C_8
REMARK    4  A    between atoms: C_9  and  C_10
REMARK    5  A    between atoms: C_13  and  C_14
REMARK    6  A    between atoms: C_17  and  O_20
REMARK    7  A    between atoms: C_19  and  O_22
REMARK                            x       y       z     vdW  Elec       q    Type
REMARK                         _______ _______ _______ _____ _____    ______ ____
ROOT
ATOM      1  C   UNL     1      23.026  20.372   0.867  0.00  0.00    +0.000 C 
ATOM      2  C   UNL     1      22.029  19.943   1.950  0.00  0.00    +0.000 C 
ENDROOT
BRANCH   2   3
ATOM      3  C   UNL     1      21.101  19.543   2.954  0.00  0.00    +0.000 A 
ATOM      4  C   UNL     1      19.950  20.298   3.175  0.00  0.00    +0.000 A 
ATOM      5  C   UNL     1      21.347  18.402   3.711  0.00  0.00    +0.000 A 
ATOM      6  C   UNL     1      19.031  19.919   4.158  0.00  0.00    +0.000 A 
ATOM      7  C   UNL     1      20.440  18.012   4.693  0.00  0.00    +0.000 A 
ATOM      8  C   UNL     1      19.290  18.770   4.912  0.00  0.00    +0.000 A 
BRANCH   6   9
ATOM      9  O   UNL     1      17.875  20.603   4.442  0.00  0.00    +0.000 OA
ATOM     10  C   UNL     1      16.869  20.523   3.467  0.00  0.00    +0.000 C 
ENDBRANCH   6   9
BRANCH   8  11
ATOM     11  O   UNL     1      18.403  18.382   5.877  0.00  0.00    +0.000 OA
ATOM     12  H   UNL     1      18.594  18.879   6.695  0.00  0.00    +0.000 HD
ENDBRANCH   8  11
ENDBRANCH   2   3
BRANCH   1  14
ATOM     13  O   UNL     1      24.061  20.129  -1.187  0.00  0.00    +0.000 OA
ATOM     14  C   UNL     1      23.963  20.772  -0.153  0.00  0.00    +0.000 C 
ATOM     15  C   UNL     1      24.783  21.932   0.057  0.00  0.00    +0.000 C 
ATOM     16  C   UNL     1      25.593  23.071   0.260  0.00  0.00    +0.000 C 
BRANCH  16  17
ATOM     17  O   UNL     1      25.267  23.901   1.305  0.00  0.00    +0.000 OA
ATOM     18  H   UNL     1      25.774  24.731   1.279  0.00  0.00    +0.000 HD
ENDBRANCH  16  17
BRANCH  16  19
ATOM     19  C   UNL     1      26.711  23.393  -0.549  0.00  0.00    +0.000 C 
ATOM     20  C   UNL     1      27.917  23.750  -1.424  0.00  0.00    +0.000 C 
BRANCH  20  21
ATOM     21  C   UNL     1      29.120  24.113  -2.300  0.00  0.00    +0.000 C 
ATOM     22  C   UNL     1      30.323  24.478  -3.175  0.00  0.00    +0.000 C 
ATOM     23  C   UNL     1      31.530  24.845  -4.044  0.00  0.00    +0.000 C 
ENDBRANCH  20  21
ENDBRANCH  16  19
ENDBRANCH   1  14
TORSDOF 7
ENDMDL
MODEL 3
REMARK VINA RESULT:      -5.7     14.702     16.467
REMARK  Name = 442793_6gingerol.pdbqt.pdb
REMARK  7 active torsions:
REMARK  status: ('A' for Active; 'I' for Inactive)
REMARK    1  A    between atoms: C_1  and  C_3
REMARK    2  A    between atoms: C_5  and  O_6
REMARK    3  A    between atoms: C_5  and  C_8
REMARK    4  A    between atoms: C_9  and  C_10
REMARK    5  A    between atoms: C_13  and  C_14
REMARK    6  A    between atoms: C_17  and  O_20
REMARK    7  A    between atoms: C_19  and  O_22
REMARK                            x       y       z     vdW  Elec       q    Type
REMARK                         _______ _______ _______ _____ _____    ______ ____
ROOT
ATOM      1  C   UNL     1      28.324  -5.037  11.768  0.00  0.00    +0.000 C 
ATOM      2  C   UNL     1      27.410  -3.869  12.158  0.00  0.00    +0.000 C 
ENDROOT
BRANCH   2   3
ATOM      3  C   UNL     1      26.558  -2.786  12.518  0.00  0.00    +0.000 A 
ATOM      4  C   UNL     1      25.730  -2.896  13.633  0.00  0.00    +0.000 A 
ATOM      5  C   UNL     1      26.556  -1.622  11.756  0.00  0.00    +0.000 A 
ATOM      6  C   UNL     1      24.888  -1.842  13.999  0.00  0.00    +0.000 A 
ATOM      7  C   UNL     1      25.723  -0.563  12.109  0.00  0.00    +0.000 A 
ATOM      8  C   UNL     1      24.895  -0.678  13.225  0.00  0.00    +0.000 A 
BRANCH   6   9
ATOM      9  O   UNL     1      24.041  -1.867  15.080  0.00  0.00    +0.000 OA
ATOM     10  C   UNL     1      24.651  -2.093  16.323  0.00  0.00    +0.000 C 
ENDBRANCH   6   9
BRANCH   8  11
ATOM     11  O   UNL     1      24.080   0.365  13.566  0.00  0.00    +0.000 OA
ATOM     12  H   UNL     1      23.767   0.231  14.481  0.00  0.00    +0.000 HD
ENDBRANCH   8  11
ENDBRANCH   2   3
BRANCH   1  14
ATOM     13  O   UNL     1      30.015  -6.558  12.187  0.00  0.00    +0.000 OA
ATOM     14  C   UNL     1      29.182  -6.136  11.400  0.00  0.00    +0.000 C 
ATOM     15  C   UNL     1      29.050  -6.729  10.098  0.00  0.00    +0.000 C 
ATOM     16  C   UNL     1      28.926  -7.315   8.820  0.00  0.00    +0.000 C 
BRANCH  16  17
ATOM     17  O   UNL     1      27.816  -6.987   8.079  0.00  0.00    +0.000 OA
ATOM     18  H   UNL     1      28.035  -6.850   7.141  0.00  0.00    +0.000 HD
ENDBRANCH  16  17
BRANCH  16  19
ATOM     19  C   UNL     1      29.878  -8.209   8.270  0.00  0.00    +0.000 C 
ATOM     20  C   UNL     1      30.904  -9.183   7.682  0.00  0.00    +0.000 C 
BRANCH  20  21
ATOM     21  C   UNL     1      31.927 -10.161   7.098  0.00  0.00    +0.000 C 
ATOM     22  C   UNL     1      32.953 -11.138   6.514  0.00  0.00    +0.000 C 
ATOM     23  C   UNL     1      33.983 -12.110   5.929  0.00  0.00    +0.000 C 
ENDBRANCH  20  21
ENDBRANCH  16  19
ENDBRANCH   1  14
TORSDOF 7
ENDMDL
MODEL 4
REMARK VINA RESULT:      -5.7      0.833      2.143
REMARK  Name = 442793_6gingerol.pdbqt.pdb
REMARK  7 active torsions:
REMARK  status: ('A' for Active; 'I' for Inactive)
REMARK    1  A    between atoms: C_1  and  C_3
REMARK    2  A    between atoms: C_5  and  O_6
REMARK    3  A    between atoms: C_5  and  C_8
REMARK    4  A    between atoms: C_9  and  C_10
REMARK    5  A    between atoms: C_13  and  C_14
REMARK    6  A    between atoms: C_17  and  O_20
REMARK    7  A    between atoms: C_19  and  O_22
REMARK                            x       y       z     vdW  Elec       q    Type
REMARK                         _______ _______ _______ _____ _____    ______ ____
ROOT
ATOM      1  C   UNL     1      43.414  -3.752  11.267  0.00  0.00    +0.000 C 
ATOM      2  C   UNL     1      43.504  -2.343  11.865  0.00  0.00    +0.000 C 
ENDROOT
BRANCH   2   3
ATOM      3  C   UNL     1      43.585  -1.034  12.421  0.00  0.00    +0.000 A 
ATOM      4  C   UNL     1      44.567  -0.151  11.976  0.00  0.00    +0.000 A 
ATOM      5  C   UNL     1      42.683  -0.641  13.405  0.00  0.00    +0.000 A 
ATOM      6  C   UNL     1      44.660   1.136  12.513  0.00  0.00    +0.000 A 
ATOM      7  C   UNL     1      42.763   0.638  13.948  0.00  0.00    +0.000 A 
ATOM      8  C   UNL     1      43.748   1.518  13.501  0.00  0.00    +0.000 A 
BRANCH   6   9
ATOM      9  O   UNL     1      45.596   2.067  12.134  0.00  0.00    +0.000 OA
ATOM     10  C   UNL     1      46.910   1.591  12.013  0.00  0.00    +0.000 C 
ENDBRANCH   6   9
BRANCH   8  11
ATOM     11  O   UNL     1      43.822   2.774  14.039  0.00  0.00    +0.000 OA
ATOM     12  H   UNL     1      43.333   2.781  14.883  0.00  0.00    +0.000 HD
ENDBRANCH   8  11
ENDBRANCH   2   3
BRANCH   1  14
ATOM     13  O   UNL     1      42.292  -5.719  10.799  0.00  0.00    +0.000 OA
ATOM     14  C   UNL     1      43.327  -5.077  10.706  0.00  0.00    +0.000 C 
ATOM     15  C   UNL     1      44.468  -5.638  10.037  0.00  0.00    +0.000 C 
ATOM     16  C   UNL     1      45.587  -6.195   9.381  0.00  0.00    +0.000 C 
BRANCH  16  17
ATOM     17  O   UNL     1      46.625  -5.349   9.074  0.00  0.00    +0.000 OA
ATOM     18  H   UNL     1      47.309  -5.349   9.765  0.00  0.00    +0.000 HD
ENDBRANCH  16  17
BRANCH  16  19
ATOM     19  C   UNL     1      45.692  -7.563   9.032  0.00  0.00    +0.000 C 
ATOM     20  C   UNL     1      45.803  -9.047   8.664  0.00  0.00    +0.000 C 
BRANCH  20  21
ATOM     21  C   UNL     1      45.915 -10.531   8.302  0.00  0.00    +0.000 C 
ATOM     22  C   UNL     1      46.025 -12.015   7.939  0.00  0.00    +0.000 C 
ATOM     23  C   UNL     1      46.130 -13.499   7.571  0.00  0.00    +0.000 C 
ENDBRANCH  20  21
ENDBRANCH  16  19
ENDBRANCH   1  14
TORSDOF 7
ENDMDL
MODEL 5
REMARK VINA RESULT:      -5.4     34.418     35.929
REMARK  Name = 442793_6gingerol.pdbqt.pdb
REMARK  7 active torsions:
REMARK  status: ('A' for Active; 'I' for Inactive)
REMARK    1  A    between atoms: C_1  and  C_3
REMARK    2  A    between atoms: C_5  and  O_6
REMARK    3  A    between atoms: C_5  and  C_8
REMARK    4  A    between atoms: C_9  and  C_10
REMARK    5  A    between atoms: C_13  and  C_14
REMARK    6  A    between atoms: C_17  and  O_20
REMARK    7  A    between atoms: C_19  and  O_22
REMARK                            x       y       z     vdW  Elec       q    Type
REMARK                         _______ _______ _______ _____ _____    ______ ____
ROOT
ATOM      1  C   UNL     1      20.021  20.810   3.673  0.00  0.00    +0.000 C 
ATOM      2  C   UNL     1      21.343  21.264   3.042  0.00  0.00    +0.000 C 
ENDROOT
BRANCH   2   3
ATOM      3  C   UNL     1      22.572  21.685   2.459  0.00  0.00    +0.000 A 
ATOM      4  C   UNL     1      23.006  21.112   1.266  0.00  0.00    +0.000 A 
ATOM      5  C   UNL     1      23.336  22.668   3.083  0.00  0.00    +0.000 A 
ATOM      6  C   UNL     1      24.211  21.514   0.682  0.00  0.00    +0.000 A 
ATOM      7  C   UNL     1      24.538  23.078   2.513  0.00  0.00    +0.000 A 
ATOM      8  C   UNL     1      24.969  22.501   1.319  0.00  0.00    +0.000 A 
BRANCH   6   9
ATOM      9  O   UNL     1      24.713  21.002  -0.490  0.00  0.00    +0.000 OA
ATOM     10  C   UNL     1      23.811  20.949  -1.563  0.00  0.00    +0.000 C 
ENDBRANCH   6   9
BRANCH   8  11
ATOM     11  O   UNL     1      26.150  22.909   0.764  0.00  0.00    +0.000 OA
ATOM     12  H   UNL     1      26.229  23.875   0.872  0.00  0.00    +0.000 HD
ENDBRANCH   8  11
ENDBRANCH   2   3
BRANCH   1  14
ATOM     13  O   UNL     1      18.437  20.814   5.358  0.00  0.00    +0.000 OA
ATOM     14  C   UNL     1      18.780  20.382   4.267  0.00  0.00    +0.000 C 
ATOM     15  C   UNL     1      17.949  19.441   3.569  0.00  0.00    +0.000 C 
ATOM     16  C   UNL     1      17.129  18.515   2.888  0.00  0.00    +0.000 C 
BRANCH  16  17
ATOM     17  O   UNL     1      17.421  18.263   1.570  0.00  0.00    +0.000 OA
ATOM     18  H   UNL     1      16.664  17.870   1.101  0.00  0.00    +0.000 HD
ENDBRANCH  16  17
BRANCH  16  19
ATOM     19  C   UNL     1      16.039  17.840   3.491  0.00  0.00    +0.000 C 
ATOM     20  C   UNL     1      14.861  17.116   4.151  0.00  0.00    +0.000 C 
BRANCH  20  21
ATOM     21  C   UNL     1      13.685  16.395   4.816  0.00  0.00    +0.000 C 
ATOM     22  C   UNL     1      12.509  15.671   5.481  0.00  0.00    +0.000 C 
ATOM     23  C   UNL     1      11.337  14.941   6.145  0.00  0.00    +0.000 C 
ENDBRANCH  20  21
ENDBRANCH  16  19
ENDBRANCH   1  14
TORSDOF 7
ENDMDL
MODEL 6
REMARK VINA RESULT:      -5.3     34.546     35.926
REMARK  Name = 442793_6gingerol.pdbqt.pdb
REMARK  7 active torsions:
REMARK  status: ('A' for Active; 'I' for Inactive)
REMARK    1  A    between atoms: C_1  and  C_3
REMARK    2  A    between atoms: C_5  and  O_6
REMARK    3  A    between atoms: C_5  and  C_8
REMARK    4  A    between atoms: C_9  and  C_10
REMARK    5  A    between atoms: C_13  and  C_14
REMARK    6  A    between atoms: C_17  and  O_20
REMARK    7  A    between atoms: C_19  and  O_22
REMARK                            x       y       z     vdW  Elec       q    Type
REMARK                         _______ _______ _______ _____ _____    ______ ____
ROOT
ATOM      1  C   UNL     1      22.019  13.942  31.887  0.00  0.00    +0.000 C 
ATOM      2  C   UNL     1      21.826  15.438  31.606  0.00  0.00    +0.000 C 
ENDROOT
BRANCH   2   3
ATOM      3  C   UNL     1      21.644  16.826  31.344  0.00  0.00    +0.000 A 
ATOM      4  C   UNL     1      22.373  17.441  30.327  0.00  0.00    +0.000 A 
ATOM      5  C   UNL     1      20.740  17.563  32.103  0.00  0.00    +0.000 A 
ATOM      6  C   UNL     1      22.206  18.802  30.059  0.00  0.00    +0.000 A 
ATOM      7  C   UNL     1      20.563  18.920  31.845  0.00  0.00    +0.000 A 
ATOM      8  C   UNL     1      21.295  19.532  30.828  0.00  0.00    +0.000 A 
BRANCH   6   9
ATOM      9  O   UNL     1      22.883  19.487  29.079  0.00  0.00    +0.000 OA
ATOM     10  C   UNL     1      24.222  19.792  29.368  0.00  0.00    +0.000 C 
ENDBRANCH   6   9
BRANCH   8  11
ATOM     11  O   UNL     1      21.117  20.865  30.581  0.00  0.00    +0.000 OA
ATOM     12  H   UNL     1      20.386  20.969  29.944  0.00  0.00    +0.000 HD
ENDBRANCH   8  11
ENDBRANCH   2   3
BRANCH   1  14
ATOM     13  O   UNL     1      21.856  11.706  31.322  0.00  0.00    +0.000 OA
ATOM     14  C   UNL     1      22.198  12.537  32.150  0.00  0.00    +0.000 C 
ATOM     15  C   UNL     1      22.780  12.119  33.395  0.00  0.00    +0.000 C 
ATOM     16  C   UNL     1      23.349  11.703  34.618  0.00  0.00    +0.000 C 
BRANCH  16  17
ATOM     17  O   UNL     1      23.952  12.664  35.394  0.00  0.00    +0.000 OA
ATOM     18  H   UNL     1      24.755  13.017  34.973  0.00  0.00    +0.000 HD
ENDBRANCH  16  17
BRANCH  16  19
ATOM     19  C   UNL     1      23.328  10.364  35.079  0.00  0.00    +0.000 C 
ATOM     20  C   UNL     1      23.313   8.917  35.582  0.00  0.00    +0.000 C 
BRANCH  20  21
ATOM     21  C   UNL     1      23.304   7.471  36.087  0.00  0.00    +0.000 C 
ATOM     22  C   UNL     1      23.293   6.024  36.591  0.00  0.00    +0.000 C 
ATOM     23  C   UNL     1      23.278   4.575  37.089  0.00  0.00    +0.000 C 
ENDBRANCH  20  21
ENDBRANCH  16  19
ENDBRANCH   1  14
TORSDOF 7
ENDMDL
MODEL 7
REMARK VINA RESULT:      -5.1     34.025     36.152
REMARK  Name = 442793_6gingerol.pdbqt.pdb
REMARK  7 active torsions:
REMARK  status: ('A' for Active; 'I' for Inactive)
REMARK    1  A    between atoms: C_1  and  C_3
REMARK    2  A    between atoms: C_5  and  O_6
REMARK    3  A    between atoms: C_5  and  C_8
REMARK    4  A    between atoms: C_9  and  C_10
REMARK    5  A    between atoms: C_13  and  C_14
REMARK    6  A    between atoms: C_17  and  O_20
REMARK    7  A    between atoms: C_19  and  O_22
REMARK                            x       y       z     vdW  Elec       q    Type
REMARK                         _______ _______ _______ _____ _____    ______ ____
ROOT
ATOM      1  C   UNL     1      23.665  10.288  35.046  0.00  0.00    +0.000 C 
ATOM      2  C   UNL     1      23.503   8.875  35.622  0.00  0.00    +0.000 C 
ENDROOT
BRANCH   2   3
ATOM      3  C   UNL     1      23.351   7.565  36.158  0.00  0.00    +0.000 A 
ATOM      4  C   UNL     1      23.094   7.397  37.518  0.00  0.00    +0.000 A 
ATOM      5  C   UNL     1      23.459   6.457  35.323  0.00  0.00    +0.000 A 
ATOM      6  C   UNL     1      22.943   6.117  38.059  0.00  0.00    +0.000 A 
ATOM      7  C   UNL     1      23.311   5.176  35.849  0.00  0.00    +0.000 A 
ATOM      8  C   UNL     1      23.054   5.012  37.210  0.00  0.00    +0.000 A 
BRANCH   6   9
ATOM      9  O   UNL     1      22.689   5.862  39.385  0.00  0.00    +0.000 OA
ATOM     10  C   UNL     1      21.411   6.223  39.838  0.00  0.00    +0.000 C 
ENDBRANCH   6   9
BRANCH   8  11
ATOM     11  O   UNL     1      22.909   3.752  37.720  0.00  0.00    +0.000 OA
ATOM     12  H   UNL     1      23.600   3.179  37.338  0.00  0.00    +0.000 HD
ENDBRANCH   8  11
ENDBRANCH   2   3
BRANCH   1  14
ATOM     13  O   UNL     1      24.601  12.402  35.010  0.00  0.00    +0.000 OA
ATOM     14  C   UNL     1      23.814  11.615  34.506  0.00  0.00    +0.000 C 
ATOM     15  C   UNL     1      23.027  12.008  33.370  0.00  0.00    +0.000 C 
ATOM     16  C   UNL     1      22.254  12.401  32.255  0.00  0.00    +0.000 C 
BRANCH  16  17
ATOM     17  O   UNL     1      21.587  11.414  31.570  0.00  0.00    +0.000 OA
ATOM     18  H   UNL     1      20.685  11.284  31.910  0.00  0.00    +0.000 HD
ENDBRANCH  16  17
BRANCH  16  19
ATOM     19  C   UNL     1      22.133  13.742  31.817  0.00  0.00    +0.000 C 
ATOM     20  C   UNL     1      22.011  15.195  31.345  0.00  0.00    +0.000 C 
BRANCH  20  21
ATOM     21  C   UNL     1      21.896  16.648  30.876  0.00  0.00    +0.000 C 
ATOM     22  C   UNL     1      21.782  18.102  30.405  0.00  0.00    +0.000 C 
ATOM     23  C   UNL     1      21.671  19.553  29.928  0.00  0.00    +0.000 C 
ENDBRANCH  20  21
ENDBRANCH  16  19
ENDBRANCH   1  14
TORSDOF 7
ENDMDL
MODEL 8
REMARK VINA RESULT:      -5.0     38.642     42.908
REMARK  Name = 442793_6gingerol.pdbqt.pdb
REMARK  7 active torsions:
REMARK  status: ('A' for Active; 'I' for Inactive)
REMARK    1  A    between atoms: C_1  and  C_3
REMARK    2  A    between atoms: C_5  and  O_6
REMARK    3  A    between atoms: C_5  and  C_8
REMARK    4  A    between atoms: C_9  and  C_10
REMARK    5  A    between atoms: C_13  and  C_14
REMARK    6  A    between atoms: C_17  and  O_20
REMARK    7  A    between atoms: C_19  and  O_22
REMARK                            x       y       z     vdW  Elec       q    Type
REMARK                         _______ _______ _______ _____ _____    ______ ____
ROOT
ATOM      1  C   UNL     1      21.831  26.802  29.335  0.00  0.00    +0.000 C 
ATOM      2  C   UNL     1      21.294  25.560  30.057  0.00  0.00    +0.000 C 
ENDROOT
BRANCH   2   3
ATOM      3  C   UNL     1      20.794  24.406  30.725  0.00  0.00    +0.000 A 
ATOM      4  C   UNL     1      20.859  23.161  30.101  0.00  0.00    +0.000 A 
ATOM      5  C   UNL     1      20.243  24.525  31.998  0.00  0.00    +0.000 A 
ATOM      6  C   UNL     1      20.372  22.019  30.743  0.00  0.00    +0.000 A 
ATOM      7  C   UNL     1      19.754  23.395  32.649  0.00  0.00    +0.000 A 
ATOM      8  C   UNL     1      19.821  22.152  32.021  0.00  0.00    +0.000 A 
BRANCH   6   9
ATOM      9  O   UNL     1      20.396  20.757  30.202  0.00  0.00    +0.000 OA
ATOM     10  C   UNL     1      21.648  20.316  29.748  0.00  0.00    +0.000 C 
ENDBRANCH   6   9
BRANCH   8  11
ATOM     11  O   UNL     1      19.339  21.047  32.667  0.00  0.00    +0.000 OA
ATOM     12  H   UNL     1      19.802  20.957  33.520  0.00  0.00    +0.000 HD
ENDBRANCH   8  11
ENDBRANCH   2   3
BRANCH   1  14
ATOM     13  O   UNL     1      23.136  28.707  29.207  0.00  0.00    +0.000 OA
ATOM     14  C   UNL     1      22.336  27.968  28.654  0.00  0.00    +0.000 C 
ATOM     15  C   UNL     1      21.888  28.256  27.320  0.00  0.00    +0.000 C 
ATOM     16  C   UNL     1      21.449  28.545  26.010  0.00  0.00    +0.000 C 
BRANCH  16  17
ATOM     17  O   UNL     1      20.764  27.560  25.341  0.00  0.00    +0.000 OA
ATOM     18  H   UNL     1      20.630  27.784  24.404  0.00  0.00    +0.000 HD
ENDBRANCH  16  17
BRANCH  16  19
ATOM     19  C   UNL     1      21.675  29.784  25.361  0.00  0.00    +0.000 C 
ATOM     20  C   UNL     1      21.912  31.128  24.664  0.00  0.00    +0.000 C 
BRANCH  20  21
ATOM     21  C   UNL     1      22.142  32.472  23.968  0.00  0.00    +0.000 C 
ATOM     22  C   UNL     1      22.374  33.818  23.273  0.00  0.00    +0.000 C 
ATOM     23  C   UNL     1      22.613  35.163  22.581  0.00  0.00    +0.000 C 
ENDBRANCH  20  21
ENDBRANCH  16  19
ENDBRANCH   1  14
TORSDOF 7
ENDMDL
MODEL 9
REMARK VINA RESULT:      -4.9     27.795     30.014
REMARK  Name = 442793_6gingerol.pdbqt.pdb
REMARK  7 active torsions:
REMARK  status: ('A' for Active; 'I' for Inactive)
REMARK    1  A    between atoms: C_1  and  C_3
REMARK    2  A    between atoms: C_5  and  O_6
REMARK    3  A    between atoms: C_5  and  C_8
REMARK    4  A    between atoms: C_9  and  C_10
REMARK    5  A    between atoms: C_13  and  C_14
REMARK    6  A    between atoms: C_17  and  O_20
REMARK    7  A    between atoms: C_19  and  O_22
REMARK                            x       y       z     vdW  Elec       q    Type
REMARK                         _______ _______ _______ _____ _____    ______ ____
ROOT
ATOM      1  C   UNL     1      29.232  11.389  -6.677  0.00  0.00    +0.000 C 
ATOM      2  C   UNL     1      30.581  10.715  -6.395  0.00  0.00    +0.000 C 
ENDROOT
BRANCH   2   3
ATOM      3  C   UNL     1      31.832  10.086  -6.134  0.00  0.00    +0.000 A 
ATOM      4  C   UNL     1      33.010  10.828  -6.211  0.00  0.00    +0.000 A 
ATOM      5  C   UNL     1      31.875   8.735  -5.804  0.00  0.00    +0.000 A 
ATOM      6  C   UNL     1      34.245  10.225  -5.959  0.00  0.00    +0.000 A 
ATOM      7  C   UNL     1      33.099   8.122  -5.550  0.00  0.00    +0.000 A 
ATOM      8  C   UNL     1      34.275   8.867  -5.628  0.00  0.00    +0.000 A 
BRANCH   6   9
ATOM      9  O   UNL     1      35.452  10.880  -6.013  0.00  0.00    +0.000 OA
ATOM     10  C   UNL     1      35.941  11.142  -7.302  0.00  0.00    +0.000 C 
ENDBRANCH   6   9
BRANCH   8  11
ATOM     11  O   UNL     1      35.474   8.259  -5.377  0.00  0.00    +0.000 OA
ATOM     12  H   UNL     1      35.305   7.342  -5.091  0.00  0.00    +0.000 HD
ENDBRANCH   8  11
ENDBRANCH   2   3
BRANCH   1  14
ATOM     13  O   UNL     1      26.929  11.527  -6.525  0.00  0.00    +0.000 OA
ATOM     14  C   UNL     1      27.965  12.020  -6.945  0.00  0.00    +0.000 C 
ATOM     15  C   UNL     1      27.928  13.235  -7.711  0.00  0.00    +0.000 C 
ATOM     16  C   UNL     1      27.886  14.427  -8.466  0.00  0.00    +0.000 C 
BRANCH  16  17
ATOM     17  O   UNL     1      29.076  15.077  -8.687  0.00  0.00    +0.000 OA
ATOM     18  H   UNL     1      29.807  14.452  -8.839  0.00  0.00    +0.000 HD
ENDBRANCH  16  17
BRANCH  16  19
ATOM     19  C   UNL     1      26.695  14.976  -9.000  0.00  0.00    +0.000 C 
ATOM     20  C   UNL     1      25.402  15.570  -9.569  0.00  0.00    +0.000 C 
BRANCH  20  21
ATOM     21  C   UNL     1      24.106  16.162 -10.132  0.00  0.00    +0.000 C 
ATOM     22  C   UNL     1      22.810  16.756 -10.693  0.00  0.00    +0.000 C 
ATOM     23  C   UNL     1      21.516  17.356 -11.252  0.00  0.00    +0.000 C 
ENDBRANCH  20  21
ENDBRANCH  16  19
ENDBRANCH   1  14
TORSDOF 7
ENDMDL
