MODEL 1
REMARK VINA RESULT:      -7.6      0.000      0.000
REMARK  Name = 44423609_SipholenoneA.pdbqt.pdb
REMARK  4 active torsions:
REMARK  status: ('A' for Active; 'I' for Inactive)
REMARK    1  A    between atoms: C_3  and  C_19
REMARK    2  A    between atoms: C_5  and  O_17
REMARK    3  A    between atoms: C_20  and  C_24
REMARK    4  A    between atoms: C_25  and  O_35
REMARK                            x       y       z     vdW  Elec       q    Type
REMARK                         _______ _______ _______ _____ _____    ______ ____
ROOT
ATOM      1  O   UNL     1      13.290  12.448  -0.014  0.00  0.00    +0.000 OA
ATOM      2  O   UNL     1      16.535  11.634  -1.595  0.00  0.00    +0.000 OA
ATOM      3  C   UNL     1      14.008  15.508   2.380  0.00  0.00    +0.000 C 
ATOM      4  C   UNL     1      13.853  14.748   1.064  0.00  0.00    +0.000 C 
ATOM      5  C   UNL     1      13.053  15.241   3.532  0.00  0.00    +0.000 C 
ATOM      6  C   UNL     1      13.285  13.269   1.119  0.00  0.00    +0.000 C 
ATOM      7  C   UNL     1      12.352  13.996   3.283  0.00  0.00    +0.000 C 
ATOM      8  C   UNL     1      12.402  12.991   2.181  0.00  0.00    +0.000 C 
ATOM      9  C   UNL     1      15.167  14.519   0.440  0.00  0.00    +0.000 C 
ATOM     10  C   UNL     1      12.955  15.567   0.095  0.00  0.00    +0.000 C 
ATOM     11  C   UNL     1      13.803  15.207   4.868  0.00  0.00    +0.000 C 
ATOM     12  C   UNL     1      15.915  13.471  -0.356  0.00  0.00    +0.000 C 
ATOM     13  C   UNL     1      14.374  11.479  -0.212  0.00  0.00    +0.000 C 
ATOM     14  C   UNL     1      15.706  12.126  -0.840  0.00  0.00    +0.000 C 
ATOM     15  C   UNL     1      13.783  10.415  -1.193  0.00  0.00    +0.000 C 
ATOM     16  C   UNL     1      14.737  10.774   1.148  0.00  0.00    +0.000 C 
ENDROOT
BRANCH   5  17
ATOM     17  O   UNL     1      12.129  16.295   3.636  0.00  0.00    +0.000 OA
ATOM     18  H   UNL     1      11.726  16.107   4.503  0.00  0.00    +0.000 HD
ENDBRANCH   5  17
BRANCH   3  19
ATOM     19  C   UNL     1      14.885  16.650   2.435  0.00  0.00    +0.000 C 
ATOM     20  C   UNL     1      15.822  17.858   2.504  0.00  0.00    +0.000 C 
BRANCH  20  24
ATOM     21  C   UNL     1      19.174  18.901   3.426  0.00  0.00    +0.000 C 
ATOM     22  C   UNL     1      17.688  19.197   3.749  0.00  0.00    +0.000 C 
ATOM     23  C   UNL     1      20.030  19.664   2.448  0.00  0.00    +0.000 C 
ATOM     24  C   UNL     1      16.696  18.994   2.578  0.00  0.00    +0.000 C 
ATOM     25  C   UNL     1      21.464  19.131   2.409  0.00  0.00    +0.000 C 
ATOM     26  C   UNL     1      20.016  17.920   4.024  0.00  0.00    +0.000 C 
ATOM     27  C   UNL     1      21.380  18.078   3.414  0.00  0.00    +0.000 C 
ATOM     28  C   UNL     1      19.322  20.304   1.410  0.00  0.00    +0.000 C 
ATOM     29  C   UNL     1      16.698  19.931   1.453  0.00  0.00    +0.000 C 
ATOM     30  C   UNL     1      17.258  18.266   4.947  0.00  0.00    +0.000 C 
ATOM     31  C   UNL     1      17.581  20.665   4.286  0.00  0.00    +0.000 C 
ATOM     32  C   UNL     1      17.857  20.367   1.070  0.00  0.00    +0.000 C 
ATOM     33  C   UNL     1      22.487  20.223   2.667  0.00  0.00    +0.000 C 
ATOM     34  C   UNL     1      15.560  20.074   0.476  0.00  0.00    +0.000 C 
BRANCH  25  35
ATOM     35  O   UNL     1      21.751  18.582   1.146  0.00  0.00    +0.000 OA
ATOM     36  H   UNL     1      22.722  18.540   1.184  0.00  0.00    +0.000 HD
ENDBRANCH  25  35
ENDBRANCH  20  24
ENDBRANCH   3  19
TORSDOF 4
ENDMDL
MODEL 2
REMARK VINA RESULT:      -7.4      7.000     10.973
REMARK  Name = 44423609_SipholenoneA.pdbqt.pdb
REMARK  4 active torsions:
REMARK  status: ('A' for Active; 'I' for Inactive)
REMARK    1  A    between atoms: C_3  and  C_19
REMARK    2  A    between atoms: C_5  and  O_17
REMARK    3  A    between atoms: C_20  and  C_24
REMARK    4  A    between atoms: C_25  and  O_35
REMARK                            x       y       z     vdW  Elec       q    Type
REMARK                         _______ _______ _______ _____ _____    ______ ____
ROOT
ATOM      1  O   UNL     1      19.717  20.617  -0.192  0.00  0.00    +0.000 OA
ATOM      2  O   UNL     1      17.663  23.267  -1.759  0.00  0.00    +0.000 OA
ATOM      3  C   UNL     1      22.453  22.509   1.941  0.00  0.00    +0.000 C 
ATOM      4  C   UNL     1      21.062  22.022   1.536  0.00  0.00    +0.000 C 
ATOM      5  C   UNL     1      23.653  21.586   1.808  0.00  0.00    +0.000 C 
ATOM      6  C   UNL     1      20.955  20.967   0.357  0.00  0.00    +0.000 C 
ATOM      7  C   UNL     1      23.298  20.474   0.947  0.00  0.00    +0.000 C 
ATOM      8  C   UNL     1      22.057  20.102   0.207  0.00  0.00    +0.000 C 
ATOM      9  C   UNL     1      20.262  23.131   0.991  0.00  0.00    +0.000 C 
ATOM     10  C   UNL     1      20.341  21.424   2.776  0.00  0.00    +0.000 C 
ATOM     11  C   UNL     1      24.872  22.346   1.274  0.00  0.00    +0.000 C 
ATOM     12  C   UNL     1      19.233  23.411  -0.084  0.00  0.00    +0.000 C 
ATOM     13  C   UNL     1      19.247  21.272  -1.418  0.00  0.00    +0.000 C 
ATOM     14  C   UNL     1      18.576  22.710  -1.162  0.00  0.00    +0.000 C 
ATOM     15  C   UNL     1      18.190  20.287  -2.017  0.00  0.00    +0.000 C 
ATOM     16  C   UNL     1      20.431  21.432  -2.443  0.00  0.00    +0.000 C 
ENDROOT
BRANCH   5  17
ATOM     17  O   UNL     1      24.023  21.106   3.076  0.00  0.00    +0.000 OA
ATOM     18  H   UNL     1      23.155  21.033   3.511  0.00  0.00    +0.000 HD
ENDBRANCH   5  17
BRANCH   3  19
ATOM     19  C   UNL     1      22.580  23.737   2.683  0.00  0.00    +0.000 C 
ATOM     20  C   UNL     1      22.727  25.043   3.467  0.00  0.00    +0.000 C 
BRANCH  20  24
ATOM     21  C   UNL     1      21.263  28.322   3.999  0.00  0.00    +0.000 C 
ATOM     22  C   UNL     1      22.594  27.650   3.577  0.00  0.00    +0.000 C 
ATOM     23  C   UNL     1      20.914  28.783   5.390  0.00  0.00    +0.000 C 
ATOM     24  C   UNL     1      22.873  26.263   4.207  0.00  0.00    +0.000 C 
ATOM     25  C   UNL     1      19.536  29.444   5.442  0.00  0.00    +0.000 C 
ATOM     26  C   UNL     1      20.168  28.685   3.164  0.00  0.00    +0.000 C 
ATOM     27  C   UNL     1      19.151  29.363   4.039  0.00  0.00    +0.000 C 
ATOM     28  C   UNL     1      21.580  28.100   6.429  0.00  0.00    +0.000 C 
ATOM     29  C   UNL     1      23.208  26.167   5.629  0.00  0.00    +0.000 C 
ATOM     30  C   UNL     1      22.584  27.502   2.007  0.00  0.00    +0.000 C 
ATOM     31  C   UNL     1      23.770  28.629   3.909  0.00  0.00    +0.000 C 
ATOM     32  C   UNL     1      22.577  26.971   6.425  0.00  0.00    +0.000 C 
ATOM     33  C   UNL     1      19.593  30.839   6.042  0.00  0.00    +0.000 C 
ATOM     34  C   UNL     1      23.867  24.966   6.257  0.00  0.00    +0.000 C 
BRANCH  25  35
ATOM     35  O   UNL     1      18.656  28.687   6.237  0.00  0.00    +0.000 OA
ATOM     36  H   UNL     1      17.942  28.511   5.599  0.00  0.00    +0.000 HD
ENDBRANCH  25  35
ENDBRANCH  20  24
ENDBRANCH   3  19
TORSDOF 4
ENDMDL
MODEL 3
REMARK VINA RESULT:      -7.0     29.205     31.080
REMARK  Name = 44423609_SipholenoneA.pdbqt.pdb
REMARK  4 active torsions:
REMARK  status: ('A' for Active; 'I' for Inactive)
REMARK    1  A    between atoms: C_3  and  C_19
REMARK    2  A    between atoms: C_5  and  O_17
REMARK    3  A    between atoms: C_20  and  C_24
REMARK    4  A    between atoms: C_25  and  O_35
REMARK                            x       y       z     vdW  Elec       q    Type
REMARK                         _______ _______ _______ _____ _____    ______ ____
ROOT
ATOM      1  O   UNL     1      22.951  16.968  32.518  0.00  0.00    +0.000 OA
ATOM      2  O   UNL     1      19.299  16.736  31.966  0.00  0.00    +0.000 OA
ATOM      3  C   UNL     1      23.967  20.621  31.409  0.00  0.00    +0.000 C 
ATOM      4  C   UNL     1      23.307  19.531  32.251  0.00  0.00    +0.000 C 
ATOM      5  C   UNL     1      25.356  20.403  30.831  0.00  0.00    +0.000 C 
ATOM      6  C   UNL     1      23.652  18.020  31.920  0.00  0.00    +0.000 C 
ATOM      7  C   UNL     1      25.674  18.989  30.893  0.00  0.00    +0.000 C 
ATOM      8  C   UNL     1      24.931  17.789  31.377  0.00  0.00    +0.000 C 
ATOM      9  C   UNL     1      21.848  19.534  32.052  0.00  0.00    +0.000 C 
ATOM     10  C   UNL     1      23.625  19.773  33.754  0.00  0.00    +0.000 C 
ATOM     11  C   UNL     1      25.443  20.938  29.398  0.00  0.00    +0.000 C 
ATOM     12  C   UNL     1      20.681  18.574  31.949  0.00  0.00    +0.000 C 
ATOM     13  C   UNL     1      21.833  16.335  31.809  0.00  0.00    +0.000 C 
ATOM     14  C   UNL     1      20.451  17.149  31.932  0.00  0.00    +0.000 C 
ATOM     15  C   UNL     1      21.685  14.927  32.472  0.00  0.00    +0.000 C 
ATOM     16  C   UNL     1      22.184  16.147  30.286  0.00  0.00    +0.000 C 
ENDROOT
BRANCH   5  17
ATOM     17  O   UNL     1      26.298  21.135  31.574  0.00  0.00    +0.000 OA
ATOM     18  H   UNL     1      25.808  21.961  31.738  0.00  0.00    +0.000 HD
ENDBRANCH   5  17
BRANCH   3  19
ATOM     19  C   UNL     1      23.386  21.939  31.382  0.00  0.00    +0.000 C 
ATOM     20  C   UNL     1      22.759  23.335  31.349  0.00  0.00    +0.000 C 
BRANCH  20  24
ATOM     21  C   UNL     1      23.526  26.881  31.447  0.00  0.00    +0.000 C 
ATOM     22  C   UNL     1      22.686  25.809  32.185  0.00  0.00    +0.000 C 
ATOM     23  C   UNL     1      23.023  27.800  30.363  0.00  0.00    +0.000 C 
ATOM     24  C   UNL     1      22.170  24.643  31.307  0.00  0.00    +0.000 C 
ATOM     25  C   UNL     1      24.109  28.766  29.886  0.00  0.00    +0.000 C 
ATOM     26  C   UNL     1      24.882  27.244  31.690  0.00  0.00    +0.000 C 
ATOM     27  C   UNL     1      25.210  28.377  30.758  0.00  0.00    +0.000 C 
ATOM     28  C   UNL     1      21.926  27.306  29.627  0.00  0.00    +0.000 C 
ATOM     29  C   UNL     1      21.108  24.885  30.328  0.00  0.00    +0.000 C 
ATOM     30  C   UNL     1      23.571  25.217  33.348  0.00  0.00    +0.000 C 
ATOM     31  C   UNL     1      21.478  26.520  32.884  0.00  0.00    +0.000 C 
ATOM     32  C   UNL     1      21.153  26.017  29.698  0.00  0.00    +0.000 C 
ATOM     33  C   UNL     1      23.663  30.215  29.976  0.00  0.00    +0.000 C 
ATOM     34  C   UNL     1      20.268  23.796  29.712  0.00  0.00    +0.000 C 
BRANCH  25  35
ATOM     35  O   UNL     1      24.435  28.515  28.541  0.00  0.00    +0.000 OA
ATOM     36  H   UNL     1      24.003  29.270  28.106  0.00  0.00    +0.000 HD
ENDBRANCH  25  35
ENDBRANCH  20  24
ENDBRANCH   3  19
TORSDOF 4
ENDMDL
MODEL 4
REMARK VINA RESULT:      -6.6     28.619     31.262
REMARK  Name = 44423609_SipholenoneA.pdbqt.pdb
REMARK  4 active torsions:
REMARK  status: ('A' for Active; 'I' for Inactive)
REMARK    1  A    between atoms: C_3  and  C_19
REMARK    2  A    between atoms: C_5  and  O_17
REMARK    3  A    between atoms: C_20  and  C_24
REMARK    4  A    between atoms: C_25  and  O_35
REMARK                            x       y       z     vdW  Elec       q    Type
REMARK                         _______ _______ _______ _____ _____    ______ ____
ROOT
ATOM      1  O   UNL     1      21.627  15.547  32.612  0.00  0.00    +0.000 OA
ATOM      2  O   UNL     1      18.383  15.808  34.373  0.00  0.00    +0.000 OA
ATOM      3  C   UNL     1      22.507  19.220  31.449  0.00  0.00    +0.000 C 
ATOM      4  C   UNL     1      22.261  18.063  32.417  0.00  0.00    +0.000 C 
ATOM      5  C   UNL     1      23.220  18.973  30.130  0.00  0.00    +0.000 C 
ATOM      6  C   UNL     1      22.040  16.616  31.809  0.00  0.00    +0.000 C 
ATOM      7  C   UNL     1      23.226  17.548  29.858  0.00  0.00    +0.000 C 
ATOM      8  C   UNL     1      22.685  16.361  30.583  0.00  0.00    +0.000 C 
ATOM      9  C   UNL     1      20.997  18.256  33.146  0.00  0.00    +0.000 C 
ATOM     10  C   UNL     1      23.437  17.978  33.431  0.00  0.00    +0.000 C 
ATOM     11  C   UNL     1      22.560  19.760  28.994  0.00  0.00    +0.000 C 
ATOM     12  C   UNL     1      19.827  17.461  33.686  0.00  0.00    +0.000 C 
ATOM     13  C   UNL     1      20.207  15.183  32.674  0.00  0.00    +0.000 C 
ATOM     14  C   UNL     1      19.352  16.097  33.684  0.00  0.00    +0.000 C 
ATOM     15  C   UNL     1      20.198  13.697  33.161  0.00  0.00    +0.000 C 
ATOM     16  C   UNL     1      19.558  15.254  31.242  0.00  0.00    +0.000 C 
ENDROOT
BRANCH   5  17
ATOM     17  O   UNL     1      24.541  19.446  30.210  0.00  0.00    +0.000 OA
ATOM     18  H   UNL     1      24.408  20.298  30.664  0.00  0.00    +0.000 HD
ENDBRANCH   5  17
BRANCH   3  19
ATOM     19  C   UNL     1      22.296  20.571  31.900  0.00  0.00    +0.000 C 
ATOM     20  C   UNL     1      22.060  22.008  32.373  0.00  0.00    +0.000 C 
BRANCH  20  24
ATOM     21  C   UNL     1      22.734  25.480  31.556  0.00  0.00    +0.000 C 
ATOM     22  C   UNL     1      22.930  24.450  32.696  0.00  0.00    +0.000 C 
ATOM     23  C   UNL     1      21.603  26.471  31.451  0.00  0.00    +0.000 C 
ATOM     24  C   UNL     1      21.839  23.358  32.806  0.00  0.00    +0.000 C 
ATOM     25  C   UNL     1      21.744  27.367  30.219  0.00  0.00    +0.000 C 
ATOM     26  C   UNL     1      23.596  25.729  30.450  0.00  0.00    +0.000 C 
ATOM     27  C   UNL     1      22.997  26.865  29.669  0.00  0.00    +0.000 C 
ATOM     28  C   UNL     1      20.414  26.088  32.106  0.00  0.00    +0.000 C 
ATOM     29  C   UNL     1      20.500  23.714  33.280  0.00  0.00    +0.000 C 
ATOM     30  C   UNL     1      24.328  23.752  32.483  0.00  0.00    +0.000 C 
ATOM     31  C   UNL     1      23.041  25.227  34.052  0.00  0.00    +0.000 C 
ATOM     32  C   UNL     1      20.037  24.860  32.890  0.00  0.00    +0.000 C 
ATOM     33  C   UNL     1      21.714  28.843  30.580  0.00  0.00    +0.000 C 
ATOM     34  C   UNL     1      19.497  22.714  33.794  0.00  0.00    +0.000 C 
BRANCH  25  35
ATOM     35  O   UNL     1      20.686  27.138  29.321  0.00  0.00    +0.000 OA
ATOM     36  H   UNL     1      19.922  27.356  29.882  0.00  0.00    +0.000 HD
ENDBRANCH  25  35
ENDBRANCH  20  24
ENDBRANCH   3  19
TORSDOF 4
ENDMDL
MODEL 5
REMARK VINA RESULT:      -6.5     30.253     33.837
REMARK  Name = 44423609_SipholenoneA.pdbqt.pdb
REMARK  4 active torsions:
REMARK  status: ('A' for Active; 'I' for Inactive)
REMARK    1  A    between atoms: C_3  and  C_19
REMARK    2  A    between atoms: C_5  and  O_17
REMARK    3  A    between atoms: C_20  and  C_24
REMARK    4  A    between atoms: C_25  and  O_35
REMARK                            x       y       z     vdW  Elec       q    Type
REMARK                         _______ _______ _______ _____ _____    ______ ____
ROOT
ATOM      1  O   UNL     1      29.722  19.467  35.445  0.00  0.00    +0.000 OA
ATOM      2  O   UNL     1      29.767  22.953  34.204  0.00  0.00    +0.000 OA
ATOM      3  C   UNL     1      26.030  18.179  34.873  0.00  0.00    +0.000 C 
ATOM      4  C   UNL     1      27.433  18.661  34.506  0.00  0.00    +0.000 C 
ATOM      5  C   UNL     1      25.828  17.257  36.064  0.00  0.00    +0.000 C 
ATOM      6  C   UNL     1      28.485  18.855  35.676  0.00  0.00    +0.000 C 
ATOM      7  C   UNL     1      27.020  17.287  36.889  0.00  0.00    +0.000 C 
ATOM      8  C   UNL     1      28.317  18.017  36.796  0.00  0.00    +0.000 C 
ATOM      9  C   UNL     1      27.384  20.023  33.947  0.00  0.00    +0.000 C 
ATOM     10  C   UNL     1      28.057  17.694  33.461  0.00  0.00    +0.000 C 
ATOM     11  C   UNL     1      24.581  17.656  36.860  0.00  0.00    +0.000 C 
ATOM     12  C   UNL     1      28.173  21.315  33.947  0.00  0.00    +0.000 C 
ATOM     13  C   UNL     1      29.900  20.894  35.737  0.00  0.00    +0.000 C 
ATOM     14  C   UNL     1      29.355  21.861  34.572  0.00  0.00    +0.000 C 
ATOM     15  C   UNL     1      31.443  21.077  35.905  0.00  0.00    +0.000 C 
ATOM     16  C   UNL     1      29.191  21.271  37.091  0.00  0.00    +0.000 C 
ENDROOT
BRANCH   5  17
ATOM     17  O   UNL     1      25.594  15.946  35.613  0.00  0.00    +0.000 OA
ATOM     18  H   UNL     1      26.501  15.592  35.584  0.00  0.00    +0.000 HD
ENDBRANCH   5  17
BRANCH   3  19
ATOM     19  C   UNL     1      24.949  18.388  33.945  0.00  0.00    +0.000 C 
ATOM     20  C   UNL     1      23.799  18.622  32.961  0.00  0.00    +0.000 C 
BRANCH  20  24
ATOM     21  C   UNL     1      21.110  20.913  32.132  0.00  0.00    +0.000 C 
ATOM     22  C   UNL     1      21.358  19.431  32.504  0.00  0.00    +0.000 C 
ATOM     23  C   UNL     1      20.978  21.459  30.733  0.00  0.00    +0.000 C 
ATOM     24  C   UNL     1      22.716  18.844  32.048  0.00  0.00    +0.000 C 
ATOM     25  C   UNL     1      20.692  22.961  30.731  0.00  0.00    +0.000 C 
ATOM     26  C   UNL     1      20.897  22.010  33.016  0.00  0.00    +0.000 C 
ATOM     27  C   UNL     1      20.639  23.221  32.165  0.00  0.00    +0.000 C 
ATOM     28  C   UNL     1      21.634  20.707  29.737  0.00  0.00    +0.000 C 
ATOM     29  C   UNL     1      22.954  18.587  30.626  0.00  0.00    +0.000 C 
ATOM     30  C   UNL     1      21.249  19.301  34.072  0.00  0.00    +0.000 C 
ATOM     31  C   UNL     1      20.186  18.571  31.920  0.00  0.00    +0.000 C 
ATOM     32  C   UNL     1      22.468  19.454  29.795  0.00  0.00    +0.000 C 
ATOM     33  C   UNL     1      19.441  23.305  29.941  0.00  0.00    +0.000 C 
ATOM     34  C   UNL     1      24.041  17.682  30.107  0.00  0.00    +0.000 C 
BRANCH  25  35
ATOM     35  O   UNL     1      21.760  23.665  30.145  0.00  0.00    +0.000 OA
ATOM     36  H   UNL     1      22.507  23.087  30.378  0.00  0.00    +0.000 HD
ENDBRANCH  25  35
ENDBRANCH  20  24
ENDBRANCH   3  19
TORSDOF 4
ENDMDL
MODEL 6
REMARK VINA RESULT:      -5.9      7.145     12.317
REMARK  Name = 44423609_SipholenoneA.pdbqt.pdb
REMARK  4 active torsions:
REMARK  status: ('A' for Active; 'I' for Inactive)
REMARK    1  A    between atoms: C_3  and  C_19
REMARK    2  A    between atoms: C_5  and  O_17
REMARK    3  A    between atoms: C_20  and  C_24
REMARK    4  A    between atoms: C_25  and  O_35
REMARK                            x       y       z     vdW  Elec       q    Type
REMARK                         _______ _______ _______ _____ _____    ______ ____
ROOT
ATOM      1  O   UNL     1      13.020  10.536  -0.703  0.00  0.00    +0.000 OA
ATOM      2  O   UNL     1      16.400  12.009  -0.390  0.00  0.00    +0.000 OA
ATOM      3  C   UNL     1      13.094   7.228   1.457  0.00  0.00    +0.000 C 
ATOM      4  C   UNL     1      13.118   8.727   1.165  0.00  0.00    +0.000 C 
ATOM      5  C   UNL     1      12.176   6.312   0.666  0.00  0.00    +0.000 C 
ATOM      6  C   UNL     1      12.833   9.203  -0.319  0.00  0.00    +0.000 C 
ATOM      7  C   UNL     1      11.724   7.010  -0.522  0.00  0.00    +0.000 C 
ATOM      8  C   UNL     1      11.989   8.369  -1.079  0.00  0.00    +0.000 C 
ATOM      9  C   UNL     1      14.468   9.276   1.379  0.00  0.00    +0.000 C 
ATOM     10  C   UNL     1      12.109   9.453   2.099  0.00  0.00    +0.000 C 
ATOM     11  C   UNL     1      12.883   4.999   0.313  0.00  0.00    +0.000 C 
ATOM     12  C   UNL     1      15.417  10.301   0.797  0.00  0.00    +0.000 C 
ATOM     13  C   UNL     1      14.269  10.943  -1.355  0.00  0.00    +0.000 C 
ATOM     14  C   UNL     1      15.474  11.210  -0.324  0.00  0.00    +0.000 C 
ATOM     15  C   UNL     1      13.912  12.262  -2.114  0.00  0.00    +0.000 C 
ATOM     16  C   UNL     1      14.721   9.858  -2.403  0.00  0.00    +0.000 C 
ENDROOT
BRANCH   5  17
ATOM     17  O   UNL     1      11.070   5.953   1.455  0.00  0.00    +0.000 OA
ATOM     18  H   UNL     1      11.405   6.146   2.349  0.00  0.00    +0.000 HD
ENDBRANCH   5  17
BRANCH   3  19
ATOM     19  C   UNL     1      13.742   6.732   2.644  0.00  0.00    +0.000 C 
ATOM     20  C   UNL     1      14.438   6.214   3.905  0.00  0.00    +0.000 C 
BRANCH  20  24
ATOM     21  C   UNL     1      13.964   4.231   6.908  0.00  0.00    +0.000 C 
ATOM     22  C   UNL     1      14.389   5.650   6.455  0.00  0.00    +0.000 C 
ATOM     23  C   UNL     1      14.898   3.092   7.224  0.00  0.00    +0.000 C 
ATOM     24  C   UNL     1      15.100   5.730   5.082  0.00  0.00    +0.000 C 
ATOM     25  C   UNL     1      14.141   1.845   7.683  0.00  0.00    +0.000 C 
ATOM     26  C   UNL     1      12.645   3.760   7.171  0.00  0.00    +0.000 C 
ATOM     27  C   UNL     1      12.770   2.338   7.643  0.00  0.00    +0.000 C 
ATOM     28  C   UNL     1      16.147   3.149   6.572  0.00  0.00    +0.000 C 
ATOM     29  C   UNL     1      16.462   5.212   4.939  0.00  0.00    +0.000 C 
ATOM     30  C   UNL     1      13.096   6.552   6.412  0.00  0.00    +0.000 C 
ATOM     31  C   UNL     1      15.307   6.269   7.564  0.00  0.00    +0.000 C 
ATOM     32  C   UNL     1      16.739   4.129   5.595  0.00  0.00    +0.000 C 
ATOM     33  C   UNL     1      14.632   1.342   9.030  0.00  0.00    +0.000 C 
ATOM     34  C   UNL     1      17.383   5.574   3.802  0.00  0.00    +0.000 C 
BRANCH  25  35
ATOM     35  O   UNL     1      14.313   0.797   6.761  0.00  0.00    +0.000 OA
ATOM     36  H   UNL     1      14.072   0.031   7.310  0.00  0.00    +0.000 HD
ENDBRANCH  25  35
ENDBRANCH  20  24
ENDBRANCH   3  19
TORSDOF 4
ENDMDL
MODEL 7
REMARK VINA RESULT:      -5.8      2.188      4.582
REMARK  Name = 44423609_SipholenoneA.pdbqt.pdb
REMARK  4 active torsions:
REMARK  status: ('A' for Active; 'I' for Inactive)
REMARK    1  A    between atoms: C_3  and  C_19
REMARK    2  A    between atoms: C_5  and  O_17
REMARK    3  A    between atoms: C_20  and  C_24
REMARK    4  A    between atoms: C_25  and  O_35
REMARK                            x       y       z     vdW  Elec       q    Type
REMARK                         _______ _______ _______ _____ _____    ______ ____
ROOT
ATOM      1  O   UNL     1      10.703  15.062   4.145  0.00  0.00    +0.000 OA
ATOM      2  O   UNL     1       9.422  17.774   6.311  0.00  0.00    +0.000 OA
ATOM      3  C   UNL     1      13.748  16.623   2.169  0.00  0.00    +0.000 C 
ATOM      4  C   UNL     1      12.958  16.103   3.369  0.00  0.00    +0.000 C 
ATOM      5  C   UNL     1      13.653  15.916   0.828  0.00  0.00    +0.000 C 
ATOM      6  C   UNL     1      11.567  15.395   3.095  0.00  0.00    +0.000 C 
ATOM      7  C   UNL     1      12.496  15.041   0.839  0.00  0.00    +0.000 C 
ATOM      8  C   UNL     1      11.447  14.737   1.856  0.00  0.00    +0.000 C 
ATOM      9  C   UNL     1      12.539  17.216   4.237  0.00  0.00    +0.000 C 
ATOM     10  C   UNL     1      13.842  15.115   4.182  0.00  0.00    +0.000 C 
ATOM     11  C   UNL     1      13.581  16.928  -0.321  0.00  0.00    +0.000 C 
ATOM     12  C   UNL     1      11.373  17.649   5.099  0.00  0.00    +0.000 C 
ATOM     13  C   UNL     1       9.599  15.960   4.499  0.00  0.00    +0.000 C 
ATOM     14  C   UNL     1      10.046  17.189   5.435  0.00  0.00    +0.000 C 
ATOM     15  C   UNL     1       8.576  15.053   5.259  0.00  0.00    +0.000 C 
ATOM     16  C   UNL     1       8.912  16.525   3.201  0.00  0.00    +0.000 C 
ENDROOT
BRANCH   5  17
ATOM     17  O   UNL     1      14.818  15.162   0.605  0.00  0.00    +0.000 OA
ATOM     18  H   UNL     1      15.453  15.622   1.183  0.00  0.00    +0.000 HD
ENDBRANCH   5  17
BRANCH   3  19
ATOM     19  C   UNL     1      14.772  17.615   2.378  0.00  0.00    +0.000 C 
ATOM     20  C   UNL     1      15.865  18.666   2.588  0.00  0.00    +0.000 C 
BRANCH  20  24
ATOM     21  C   UNL     1      19.368  19.073   3.448  0.00  0.00    +0.000 C 
ATOM     22  C   UNL     1      17.955  19.511   3.908  0.00  0.00    +0.000 C 
ATOM     23  C   UNL     1      20.285  19.864   2.552  0.00  0.00    +0.000 C 
ATOM     24  C   UNL     1      16.897  19.643   2.786  0.00  0.00    +0.000 C 
ATOM     25  C   UNL     1      21.623  19.155   2.337  0.00  0.00    +0.000 C 
ATOM     26  C   UNL     1      20.082  17.900   3.827  0.00  0.00    +0.000 C 
ATOM     27  C   UNL     1      21.429  17.970   3.164  0.00  0.00    +0.000 C 
ATOM     28  C   UNL     1      19.636  20.759   1.677  0.00  0.00    +0.000 C 
ATOM     29  C   UNL     1      16.989  20.746   1.827  0.00  0.00    +0.000 C 
ATOM     30  C   UNL     1      17.444  18.460   4.968  0.00  0.00    +0.000 C 
ATOM     31  C   UNL     1      18.084  20.869   4.678  0.00  0.00    +0.000 C 
ATOM     32  C   UNL     1      18.183  21.077   1.445  0.00  0.00    +0.000 C 
ATOM     33  C   UNL     1      22.804  20.039   2.699  0.00  0.00    +0.000 C 
ATOM     34  C   UNL     1      15.845  21.204   0.961  0.00  0.00    +0.000 C 
BRANCH  25  35
ATOM     35  O   UNL     1      21.776  18.791   0.986  0.00  0.00    +0.000 OA
ATOM     36  H   UNL     1      21.110  18.085   0.913  0.00  0.00    +0.000 HD
ENDBRANCH  25  35
ENDBRANCH  20  24
ENDBRANCH   3  19
TORSDOF 4
ENDMDL
MODEL 8
REMARK VINA RESULT:      -5.7     13.362     16.980
REMARK  Name = 44423609_SipholenoneA.pdbqt.pdb
REMARK  4 active torsions:
REMARK  status: ('A' for Active; 'I' for Inactive)
REMARK    1  A    between atoms: C_3  and  C_19
REMARK    2  A    between atoms: C_5  and  O_17
REMARK    3  A    between atoms: C_20  and  C_24
REMARK    4  A    between atoms: C_25  and  O_35
REMARK                            x       y       z     vdW  Elec       q    Type
REMARK                         _______ _______ _______ _____ _____    ______ ____
ROOT
ATOM      1  O   UNL     1       4.782   7.576  17.103  0.00  0.00    +0.000 OA
ATOM      2  O   UNL     1       6.613   4.448  17.849  0.00  0.00    +0.000 OA
ATOM      3  C   UNL     1       7.553  10.246  16.207  0.00  0.00    +0.000 C 
ATOM      4  C   UNL     1       6.688   8.998  16.046  0.00  0.00    +0.000 C 
ATOM      5  C   UNL     1       6.950  11.527  16.758  0.00  0.00    +0.000 C 
ATOM      6  C   UNL     1       5.497   8.778  17.069  0.00  0.00    +0.000 C 
ATOM      7  C   UNL     1       5.684  11.215  17.393  0.00  0.00    +0.000 C 
ATOM      8  C   UNL     1       4.923   9.949  17.601  0.00  0.00    +0.000 C 
ATOM      9  C   UNL     1       7.483   7.781  16.278  0.00  0.00    +0.000 C 
ATOM     10  C   UNL     1       6.092   8.962  14.610  0.00  0.00    +0.000 C 
ATOM     11  C   UNL     1       7.915  12.213  17.731  0.00  0.00    +0.000 C 
ATOM     12  C   UNL     1       7.358   6.403  16.892  0.00  0.00    +0.000 C 
ATOM     13  C   UNL     1       5.136   6.539  18.079  0.00  0.00    +0.000 C 
ATOM     14  C   UNL     1       6.383   5.630  17.626  0.00  0.00    +0.000 C 
ATOM     15  C   UNL     1       3.851   5.659  18.210  0.00  0.00    +0.000 C 
ATOM     16  C   UNL     1       5.455   7.187  19.478  0.00  0.00    +0.000 C 
ENDROOT
BRANCH   5  17
ATOM     17  O   UNL     1       6.744  12.442  15.711  0.00  0.00    +0.000 OA
ATOM     18  H   UNL     1       6.097  13.048  16.115  0.00  0.00    +0.000 HD
ENDBRANCH   5  17
BRANCH   3  19
ATOM     19  C   UNL     1       8.859  10.280  15.599  0.00  0.00    +0.000 C 
ATOM     20  C   UNL     1      10.243  10.306  14.946  0.00  0.00    +0.000 C 
BRANCH  20  24
ATOM     21  C   UNL     1      12.008   9.712  11.830  0.00  0.00    +0.000 C 
ATOM     22  C   UNL     1      11.984   9.251  13.308  0.00  0.00    +0.000 C 
ATOM     23  C   UNL     1      12.912  10.770  11.253  0.00  0.00    +0.000 C 
ATOM     24  C   UNL     1      11.542  10.321  14.336  0.00  0.00    +0.000 C 
ATOM     25  C   UNL     1      12.701  10.943   9.748  0.00  0.00    +0.000 C 
ATOM     26  C   UNL     1      11.247   9.193  10.743  0.00  0.00    +0.000 C 
ATOM     27  C   UNL     1      11.680   9.931   9.508  0.00  0.00    +0.000 C 
ATOM     28  C   UNL     1      13.358  11.739  12.176  0.00  0.00    +0.000 C 
ATOM     29  C   UNL     1      12.429  11.445  14.641  0.00  0.00    +0.000 C 
ATOM     30  C   UNL     1      11.013   8.013  13.414  0.00  0.00    +0.000 C 
ATOM     31  C   UNL     1      13.407   8.713  13.682  0.00  0.00    +0.000 C 
ATOM     32  C   UNL     1      13.095  11.939  13.645  0.00  0.00    +0.000 C 
ATOM     33  C   UNL     1      13.995  10.789   8.968  0.00  0.00    +0.000 C 
ATOM     34  C   UNL     1      12.299  12.310  15.868  0.00  0.00    +0.000 C 
BRANCH  25  35
ATOM     35  O   UNL     1      12.196  12.225   9.466  0.00  0.00    +0.000 OA
ATOM     36  H   UNL     1      12.070  12.162   8.503  0.00  0.00    +0.000 HD
ENDBRANCH  25  35
ENDBRANCH  20  24
ENDBRANCH   3  19
TORSDOF 4
ENDMDL
MODEL 9
REMARK VINA RESULT:      -5.6     36.194     38.532
REMARK  Name = 44423609_SipholenoneA.pdbqt.pdb
REMARK  4 active torsions:
REMARK  status: ('A' for Active; 'I' for Inactive)
REMARK    1  A    between atoms: C_3  and  C_19
REMARK    2  A    between atoms: C_5  and  O_17
REMARK    3  A    between atoms: C_20  and  C_24
REMARK    4  A    between atoms: C_25  and  O_35
REMARK                            x       y       z     vdW  Elec       q    Type
REMARK                         _______ _______ _______ _____ _____    ______ ____
ROOT
ATOM      1  O   UNL     1      29.262  -1.882  37.960  0.00  0.00    +0.000 OA
ATOM      2  O   UNL     1      32.049   0.376  37.052  0.00  0.00    +0.000 OA
ATOM      3  C   UNL     1      26.879  -1.955  34.808  0.00  0.00    +0.000 C 
ATOM      4  C   UNL     1      28.140  -2.206  35.634  0.00  0.00    +0.000 C 
ATOM      5  C   UNL     1      25.508  -2.087  35.450  0.00  0.00    +0.000 C 
ATOM      6  C   UNL     1      28.100  -1.857  37.180  0.00  0.00    +0.000 C 
ATOM      7  C   UNL     1      25.661  -2.081  36.892  0.00  0.00    +0.000 C 
ATOM      8  C   UNL     1      26.840  -1.965  37.800  0.00  0.00    +0.000 C 
ATOM      9  C   UNL     1      29.239  -1.336  35.181  0.00  0.00    +0.000 C 
ATOM     10  C   UNL     1      28.565  -3.694  35.493  0.00  0.00    +0.000 C 
ATOM     11  C   UNL     1      24.573  -0.969  34.978  0.00  0.00    +0.000 C 
ATOM     12  C   UNL     1      30.406  -0.546  35.733  0.00  0.00    +0.000 C 
ATOM     13  C   UNL     1      29.997  -0.639  38.219  0.00  0.00    +0.000 C 
ATOM     14  C   UNL     1      30.973  -0.207  37.017  0.00  0.00    +0.000 C 
ATOM     15  C   UNL     1      30.832  -0.932  39.508  0.00  0.00    +0.000 C 
ATOM     16  C   UNL     1      28.996   0.539  38.518  0.00  0.00    +0.000 C 
ENDROOT
BRANCH   5  17
ATOM     17  O   UNL     1      24.907  -3.290  35.041  0.00  0.00    +0.000 OA
ATOM     18  H   UNL     1      25.514  -3.946  35.430  0.00  0.00    +0.000 HD
ENDBRANCH   5  17
BRANCH   3  19
ATOM     19  C   UNL     1      26.986  -1.852  33.375  0.00  0.00    +0.000 C 
ATOM     20  C   UNL     1      27.095  -1.731  31.853  0.00  0.00    +0.000 C 
BRANCH  20  24
ATOM     21  C   UNL     1      27.371  -3.651  28.786  0.00  0.00    +0.000 C 
ATOM     22  C   UNL     1      28.098  -2.537  29.580  0.00  0.00    +0.000 C 
ATOM     23  C   UNL     1      26.393  -3.432  27.660  0.00  0.00    +0.000 C 
ATOM     24  C   UNL     1      27.187  -1.615  30.426  0.00  0.00    +0.000 C 
ATOM     25  C   UNL     1      25.899  -4.754  27.069  0.00  0.00    +0.000 C 
ATOM     26  C   UNL     1      27.531  -5.060  28.916  0.00  0.00    +0.000 C 
ATOM     27  C   UNL     1      26.655  -5.702  27.878  0.00  0.00    +0.000 C 
ATOM     28  C   UNL     1      25.713  -2.197  27.694  0.00  0.00    +0.000 C 
ATOM     29  C   UNL     1      26.312  -0.648  29.759  0.00  0.00    +0.000 C 
ATOM     30  C   UNL     1      29.147  -3.229  30.533  0.00  0.00    +0.000 C 
ATOM     31  C   UNL     1      28.935  -1.677  28.574  0.00  0.00    +0.000 C 
ATOM     32  C   UNL     1      25.758  -1.040  28.655  0.00  0.00    +0.000 C 
ATOM     33  C   UNL     1      26.120  -4.827  25.568  0.00  0.00    +0.000 C 
ATOM     34  C   UNL     1      25.692   0.539  30.449  0.00  0.00    +0.000 C 
BRANCH  25  35
ATOM     35  O   UNL     1      24.519  -4.908  27.293  0.00  0.00    +0.000 OA
ATOM     36  H   UNL     1      24.299  -4.037  27.668  0.00  0.00    +0.000 HD
ENDBRANCH  25  35
ENDBRANCH  20  24
ENDBRANCH   3  19
TORSDOF 4
ENDMDL
