MODEL 1
REMARK VINA RESULT:      -6.6      0.000      0.000
REMARK  Name = 445154_Resveratrol.pdbqt.pdb
REMARK  5 active torsions:
REMARK  status: ('A' for Active; 'I' for Inactive)
REMARK    1  A    between atoms: C_1  and  C_11
REMARK    2  A    between atoms: C_4  and  O_7
REMARK    3  A    between atoms: C_5  and  O_9
REMARK    4  A    between atoms: C_12  and  C_13
REMARK    5  A    between atoms: C_18  and  O_19
REMARK                            x       y       z     vdW  Elec       q    Type
REMARK                         _______ _______ _______ _____ _____    ______ ____
ROOT
ATOM      1  C   UNL     1      43.211  -0.737  12.556  0.00  0.00    +0.000 A 
ATOM      2  C   UNL     1      44.145   0.268  12.310  0.00  0.00    +0.000 A 
ATOM      3  C   UNL     1      42.233  -0.562  13.535  0.00  0.00    +0.000 A 
ATOM      4  C   UNL     1      42.197   0.625  14.262  0.00  0.00    +0.000 A 
ATOM      5  C   UNL     1      44.093   1.446  13.048  0.00  0.00    +0.000 A 
ATOM      6  C   UNL     1      43.122   1.637  14.027  0.00  0.00    +0.000 A 
ENDROOT
BRANCH   4   7
ATOM      7  O   UNL     1      41.251   0.824  15.225  0.00  0.00    +0.000 OA
ATOM      8  H   UNL     1      40.584   1.440  14.873  0.00  0.00    +0.000 HD
ENDBRANCH   4   7
BRANCH   5   9
ATOM      9  O   UNL     1      45.018   2.417  12.789  0.00  0.00    +0.000 OA
ATOM     10  H   UNL     1      45.895   2.064  13.020  0.00  0.00    +0.000 HD
ENDBRANCH   5   9
BRANCH   1  11
ATOM     11  C   UNL     1      43.254  -1.949  11.807  0.00  0.00    +0.000 C 
ATOM     12  C   UNL     1      43.291  -2.971  11.175  0.00  0.00    +0.000 C 
BRANCH  12  13
ATOM     13  C   UNL     1      43.334  -4.183  10.425  0.00  0.00    +0.000 A 
ATOM     14  C   UNL     1      44.520  -4.914  10.355  0.00  0.00    +0.000 A 
ATOM     15  C   UNL     1      42.192  -4.633   9.763  0.00  0.00    +0.000 A 
ATOM     16  C   UNL     1      44.565  -6.098   9.624  0.00  0.00    +0.000 A 
ATOM     17  C   UNL     1      42.234  -5.816   9.030  0.00  0.00    +0.000 A 
ATOM     18  C   UNL     1      43.420  -6.539   8.966  0.00  0.00    +0.000 A 
BRANCH  18  19
ATOM     19  O   UNL     1      43.436  -7.695   8.242  0.00  0.00    +0.000 OA
ATOM     20  H   UNL     1      43.086  -7.505   7.354  0.00  0.00    +0.000 HD
ENDBRANCH  18  19
ENDBRANCH  12  13
ENDBRANCH   1  11
TORSDOF 5
ENDMDL
MODEL 2
REMARK VINA RESULT:      -6.2      4.300      8.804
REMARK  Name = 445154_Resveratrol.pdbqt.pdb
REMARK  5 active torsions:
REMARK  status: ('A' for Active; 'I' for Inactive)
REMARK    1  A    between atoms: C_1  and  C_11
REMARK    2  A    between atoms: C_4  and  O_7
REMARK    3  A    between atoms: C_5  and  O_9
REMARK    4  A    between atoms: C_12  and  C_13
REMARK    5  A    between atoms: C_18  and  O_19
REMARK                            x       y       z     vdW  Elec       q    Type
REMARK                         _______ _______ _______ _____ _____    ______ ____
ROOT
ATOM      1  C   UNL     1      45.776  -7.674   9.196  0.00  0.00    +0.000 A 
ATOM      2  C   UNL     1      47.159  -7.800   9.073  0.00  0.00    +0.000 A 
ATOM      3  C   UNL     1      44.934  -8.197   8.215  0.00  0.00    +0.000 A 
ATOM      4  C   UNL     1      45.486  -8.846   7.114  0.00  0.00    +0.000 A 
ATOM      5  C   UNL     1      47.690  -8.452   7.965  0.00  0.00    +0.000 A 
ATOM      6  C   UNL     1      46.863  -8.980   6.979  0.00  0.00    +0.000 A 
ENDROOT
BRANCH   4   7
ATOM      7  O   UNL     1      44.685  -9.368   6.139  0.00  0.00    +0.000 OA
ATOM      8  H   UNL     1      43.911  -8.787   6.039  0.00  0.00    +0.000 HD
ENDBRANCH   4   7
BRANCH   5   9
ATOM      9  O   UNL     1      49.047  -8.564   7.866  0.00  0.00    +0.000 OA
ATOM     10  H   UNL     1      49.344  -9.212   8.529  0.00  0.00    +0.000 HD
ENDBRANCH   5   9
BRANCH   1  11
ATOM     11  C   UNL     1      45.219  -7.007  10.327  0.00  0.00    +0.000 C 
ATOM     12  C   UNL     1      44.750  -6.445  11.280  0.00  0.00    +0.000 C 
BRANCH  12  13
ATOM     13  C   UNL     1      44.194  -5.778  12.411  0.00  0.00    +0.000 A 
ATOM     14  C   UNL     1      42.812  -5.756  12.594  0.00  0.00    +0.000 A 
ATOM     15  C   UNL     1      45.034  -5.150  13.331  0.00  0.00    +0.000 A 
ATOM     16  C   UNL     1      42.267  -5.105  13.698  0.00  0.00    +0.000 A 
ATOM     17  C   UNL     1      44.492  -4.498  14.435  0.00  0.00    +0.000 A 
ATOM     18  C   UNL     1      43.112  -4.481  14.610  0.00  0.00    +0.000 A 
BRANCH  18  19
ATOM     19  O   UNL     1      42.605  -3.836  15.700  0.00  0.00    +0.000 OA
ATOM     20  H   UNL     1      42.579  -4.465  16.442  0.00  0.00    +0.000 HD
ENDBRANCH  18  19
ENDBRANCH  12  13
ENDBRANCH   1  11
TORSDOF 5
ENDMDL
MODEL 3
REMARK VINA RESULT:      -6.1     15.377     17.073
REMARK  Name = 445154_Resveratrol.pdbqt.pdb
REMARK  5 active torsions:
REMARK  status: ('A' for Active; 'I' for Inactive)
REMARK    1  A    between atoms: C_1  and  C_11
REMARK    2  A    between atoms: C_4  and  O_7
REMARK    3  A    between atoms: C_5  and  O_9
REMARK    4  A    between atoms: C_12  and  C_13
REMARK    5  A    between atoms: C_18  and  O_19
REMARK                            x       y       z     vdW  Elec       q    Type
REMARK                         _______ _______ _______ _____ _____    ______ ____
ROOT
ATOM      1  C   UNL     1      28.603  -6.107  18.091  0.00  0.00    +0.000 A 
ATOM      2  C   UNL     1      27.543  -6.667  18.804  0.00  0.00    +0.000 A 
ATOM      3  C   UNL     1      29.918  -6.338  18.493  0.00  0.00    +0.000 A 
ATOM      4  C   UNL     1      30.163  -7.132  19.611  0.00  0.00    +0.000 A 
ATOM      5  C   UNL     1      27.809  -7.456  19.918  0.00  0.00    +0.000 A 
ATOM      6  C   UNL     1      29.115  -7.697  20.331  0.00  0.00    +0.000 A 
ENDROOT
BRANCH   4   7
ATOM      7  O   UNL     1      31.440  -7.376  20.027  0.00  0.00    +0.000 OA
ATOM      8  H   UNL     1      31.553  -8.339  20.110  0.00  0.00    +0.000 HD
ENDBRANCH   4   7
BRANCH   5   9
ATOM      9  O   UNL     1      26.755  -7.994  20.599  0.00  0.00    +0.000 OA
ATOM     10  H   UNL     1      26.841  -8.963  20.569  0.00  0.00    +0.000 HD
ENDBRANCH   5   9
BRANCH   1  11
ATOM     11  C   UNL     1      28.343  -5.295  16.948  0.00  0.00    +0.000 C 
ATOM     12  C   UNL     1      28.125  -4.610  15.985  0.00  0.00    +0.000 C 
BRANCH  12  13
ATOM     13  C   UNL     1      27.867  -3.798  14.842  0.00  0.00    +0.000 A 
ATOM     14  C   UNL     1      28.817  -3.707  13.825  0.00  0.00    +0.000 A 
ATOM     15  C   UNL     1      26.665  -3.097  14.744  0.00  0.00    +0.000 A 
ATOM     16  C   UNL     1      28.567  -2.916  12.708  0.00  0.00    +0.000 A 
ATOM     17  C   UNL     1      26.412  -2.304  13.628  0.00  0.00    +0.000 A 
ATOM     18  C   UNL     1      27.365  -2.219  12.619  0.00  0.00    +0.000 A 
BRANCH  18  19
ATOM     19  O   UNL     1      27.094  -1.435  11.535  0.00  0.00    +0.000 OA
ATOM     20  H   UNL     1      27.937  -1.116  11.171  0.00  0.00    +0.000 HD
ENDBRANCH  18  19
ENDBRANCH  12  13
ENDBRANCH   1  11
TORSDOF 5
ENDMDL
MODEL 4
REMARK VINA RESULT:      -6.1     29.337     31.979
REMARK  Name = 445154_Resveratrol.pdbqt.pdb
REMARK  5 active torsions:
REMARK  status: ('A' for Active; 'I' for Inactive)
REMARK    1  A    between atoms: C_1  and  C_11
REMARK    2  A    between atoms: C_4  and  O_7
REMARK    3  A    between atoms: C_5  and  O_9
REMARK    4  A    between atoms: C_12  and  C_13
REMARK    5  A    between atoms: C_18  and  O_19
REMARK                            x       y       z     vdW  Elec       q    Type
REMARK                         _______ _______ _______ _____ _____    ______ ____
ROOT
ATOM      1  C   UNL     1      14.853   6.158  26.700  0.00  0.00    +0.000 A 
ATOM      2  C   UNL     1      14.923   7.317  25.928  0.00  0.00    +0.000 A 
ATOM      3  C   UNL     1      14.120   6.148  27.886  0.00  0.00    +0.000 A 
ATOM      4  C   UNL     1      13.458   7.305  28.291  0.00  0.00    +0.000 A 
ATOM      5  C   UNL     1      14.256   8.462  26.351  0.00  0.00    +0.000 A 
ATOM      6  C   UNL     1      13.519   8.468  27.531  0.00  0.00    +0.000 A 
ENDROOT
BRANCH   4   7
ATOM      7  O   UNL     1      12.733   7.324  29.447  0.00  0.00    +0.000 OA
ATOM      8  H   UNL     1      12.786   8.220  29.824  0.00  0.00    +0.000 HD
ENDBRANCH   4   7
BRANCH   5   9
ATOM      9  O   UNL     1      14.339   9.585  25.579  0.00  0.00    +0.000 OA
ATOM     10  H   UNL     1      14.095  10.348  26.132  0.00  0.00    +0.000 HD
ENDBRANCH   5   9
BRANCH   1  11
ATOM     11  C   UNL     1      15.534   4.978  26.277  0.00  0.00    +0.000 C 
ATOM     12  C   UNL     1      16.107   3.984  25.921  0.00  0.00    +0.000 C 
BRANCH  12  13
ATOM     13  C   UNL     1      16.788   2.805  25.498  0.00  0.00    +0.000 A 
ATOM     14  C   UNL     1      18.127   2.616  25.839  0.00  0.00    +0.000 A 
ATOM     15  C   UNL     1      16.114   1.845  24.744  0.00  0.00    +0.000 A 
ATOM     16  C   UNL     1      18.794   1.465  25.428  0.00  0.00    +0.000 A 
ATOM     17  C   UNL     1      16.778   0.693  24.330  0.00  0.00    +0.000 A 
ATOM     18  C   UNL     1      18.113   0.513  24.675  0.00  0.00    +0.000 A 
BRANCH  18  19
ATOM     19  O   UNL     1      18.742  -0.624  24.258  0.00  0.00    +0.000 OA
ATOM     20  H   UNL     1      18.353  -0.894  23.408  0.00  0.00    +0.000 HD
ENDBRANCH  18  19
ENDBRANCH  12  13
ENDBRANCH   1  11
TORSDOF 5
ENDMDL
MODEL 5
REMARK VINA RESULT:      -5.9      1.787      7.615
REMARK  Name = 445154_Resveratrol.pdbqt.pdb
REMARK  5 active torsions:
REMARK  status: ('A' for Active; 'I' for Inactive)
REMARK    1  A    between atoms: C_1  and  C_11
REMARK    2  A    between atoms: C_4  and  O_7
REMARK    3  A    between atoms: C_5  and  O_9
REMARK    4  A    between atoms: C_12  and  C_13
REMARK    5  A    between atoms: C_18  and  O_19
REMARK                            x       y       z     vdW  Elec       q    Type
REMARK                         _______ _______ _______ _____ _____    ______ ____
ROOT
ATOM      1  C   UNL     1      43.343  -4.482  11.239  0.00  0.00    +0.000 A 
ATOM      2  C   UNL     1      43.112  -5.416  12.248  0.00  0.00    +0.000 A 
ATOM      3  C   UNL     1      43.247  -4.858   9.899  0.00  0.00    +0.000 A 
ATOM      4  C   UNL     1      42.919  -6.173   9.579  0.00  0.00    +0.000 A 
ATOM      5  C   UNL     1      42.786  -6.725  11.907  0.00  0.00    +0.000 A 
ATOM      6  C   UNL     1      42.685  -7.115  10.575  0.00  0.00    +0.000 A 
ENDROOT
BRANCH   4   7
ATOM      7  O   UNL     1      42.817  -6.568   8.277  0.00  0.00    +0.000 OA
ATOM      8  H   UNL     1      42.773  -7.541   8.258  0.00  0.00    +0.000 HD
ENDBRANCH   4   7
BRANCH   5   9
ATOM      9  O   UNL     1      42.564  -7.622  12.912  0.00  0.00    +0.000 OA
ATOM     10  H   UNL     1      42.533  -8.512  12.518  0.00  0.00    +0.000 HD
ENDBRANCH   5   9
BRANCH   1  11
ATOM     11  C   UNL     1      43.679  -3.138  11.576  0.00  0.00    +0.000 C 
ATOM     12  C   UNL     1      43.963  -2.005  11.860  0.00  0.00    +0.000 C 
BRANCH  12  13
ATOM     13  C   UNL     1      44.301  -0.661  12.196  0.00  0.00    +0.000 A 
ATOM     14  C   UNL     1      43.615  -0.008  13.220  0.00  0.00    +0.000 A 
ATOM     15  C   UNL     1      45.315  -0.003  11.500  0.00  0.00    +0.000 A 
ATOM     16  C   UNL     1      43.942   1.304  13.550  0.00  0.00    +0.000 A 
ATOM     17  C   UNL     1      45.645   1.309  11.827  0.00  0.00    +0.000 A 
ATOM     18  C   UNL     1      44.955   1.953  12.850  0.00  0.00    +0.000 A 
BRANCH  18  19
ATOM     19  O   UNL     1      45.297   3.239  13.152  0.00  0.00    +0.000 OA
ATOM     20  H   UNL     1      45.612   3.262  14.073  0.00  0.00    +0.000 HD
ENDBRANCH  18  19
ENDBRANCH  12  13
ENDBRANCH   1  11
TORSDOF 5
ENDMDL
MODEL 6
REMARK VINA RESULT:      -5.9      1.789      7.413
REMARK  Name = 445154_Resveratrol.pdbqt.pdb
REMARK  5 active torsions:
REMARK  status: ('A' for Active; 'I' for Inactive)
REMARK    1  A    between atoms: C_1  and  C_11
REMARK    2  A    between atoms: C_4  and  O_7
REMARK    3  A    between atoms: C_5  and  O_9
REMARK    4  A    between atoms: C_12  and  C_13
REMARK    5  A    between atoms: C_18  and  O_19
REMARK                            x       y       z     vdW  Elec       q    Type
REMARK                         _______ _______ _______ _____ _____    ______ ____
ROOT
ATOM      1  C   UNL     1      43.305  -4.500  11.267  0.00  0.00    +0.000 A 
ATOM      2  C   UNL     1      43.184  -4.865   9.927  0.00  0.00    +0.000 A 
ATOM      3  C   UNL     1      43.102  -5.444  12.273  0.00  0.00    +0.000 A 
ATOM      4  C   UNL     1      42.777  -6.754  11.927  0.00  0.00    +0.000 A 
ATOM      5  C   UNL     1      42.859  -6.178   9.603  0.00  0.00    +0.000 A 
ATOM      6  C   UNL     1      42.654  -7.132  10.595  0.00  0.00    +0.000 A 
ENDROOT
BRANCH   4   7
ATOM      7  O   UNL     1      42.573  -7.699  12.890  0.00  0.00    +0.000 OA
ATOM      8  H   UNL     1      42.666  -7.271  13.760  0.00  0.00    +0.000 HD
ENDBRANCH   4   7
BRANCH   5   9
ATOM      9  O   UNL     1      42.746  -6.513   8.284  0.00  0.00    +0.000 OA
ATOM     10  H   UNL     1      42.071  -5.936   7.885  0.00  0.00    +0.000 HD
ENDBRANCH   5   9
BRANCH   1  11
ATOM     11  C   UNL     1      43.637  -3.157  11.613  0.00  0.00    +0.000 C 
ATOM     12  C   UNL     1      43.917  -2.025  11.903  0.00  0.00    +0.000 C 
BRANCH  12  13
ATOM     13  C   UNL     1      44.249  -0.682  12.248  0.00  0.00    +0.000 A 
ATOM     14  C   UNL     1      45.212   0.007  11.511  0.00  0.00    +0.000 A 
ATOM     15  C   UNL     1      43.610  -0.060  13.320  0.00  0.00    +0.000 A 
ATOM     16  C   UNL     1      45.537   1.318  11.845  0.00  0.00    +0.000 A 
ATOM     17  C   UNL     1      43.932   1.251  13.658  0.00  0.00    +0.000 A 
ATOM     18  C   UNL     1      44.894   1.930  12.917  0.00  0.00    +0.000 A 
BRANCH  18  19
ATOM     19  O   UNL     1      45.194   3.215  13.267  0.00  0.00    +0.000 OA
ATOM     20  H   UNL     1      45.128   3.291  14.235  0.00  0.00    +0.000 HD
ENDBRANCH  18  19
ENDBRANCH  12  13
ENDBRANCH   1  11
TORSDOF 5
ENDMDL
MODEL 7
REMARK VINA RESULT:      -5.8      2.829      4.351
REMARK  Name = 445154_Resveratrol.pdbqt.pdb
REMARK  5 active torsions:
REMARK  status: ('A' for Active; 'I' for Inactive)
REMARK    1  A    between atoms: C_1  and  C_11
REMARK    2  A    between atoms: C_4  and  O_7
REMARK    3  A    between atoms: C_5  and  O_9
REMARK    4  A    between atoms: C_12  and  C_13
REMARK    5  A    between atoms: C_18  and  O_19
REMARK                            x       y       z     vdW  Elec       q    Type
REMARK                         _______ _______ _______ _____ _____    ______ ____
ROOT
ATOM      1  C   UNL     1      43.901  -4.179  12.519  0.00  0.00    +0.000 A 
ATOM      2  C   UNL     1      43.531  -4.621  13.788  0.00  0.00    +0.000 A 
ATOM      3  C   UNL     1      43.689  -2.852  12.148  0.00  0.00    +0.000 A 
ATOM      4  C   UNL     1      43.106  -1.972  13.057  0.00  0.00    +0.000 A 
ATOM      5  C   UNL     1      42.949  -3.726  14.681  0.00  0.00    +0.000 A 
ATOM      6  C   UNL     1      42.732  -2.398  14.327  0.00  0.00    +0.000 A 
ENDROOT
BRANCH   4   7
ATOM      7  O   UNL     1      42.887  -0.667  12.721  0.00  0.00    +0.000 OA
ATOM      8  H   UNL     1      43.574  -0.125  13.149  0.00  0.00    +0.000 HD
ENDBRANCH   4   7
BRANCH   5   9
ATOM      9  O   UNL     1      42.596  -4.181  15.919  0.00  0.00    +0.000 OA
ATOM     10  H   UNL     1      41.654  -3.975  16.057  0.00  0.00    +0.000 HD
ENDBRANCH   5   9
BRANCH   1  11
ATOM     11  C   UNL     1      44.496  -5.087  11.594  0.00  0.00    +0.000 C 
ATOM     12  C   UNL     1      44.998  -5.852  10.815  0.00  0.00    +0.000 C 
BRANCH  12  13
ATOM     13  C   UNL     1      45.594  -6.759   9.890  0.00  0.00    +0.000 A 
ATOM     14  C   UNL     1      44.809  -7.370   8.912  0.00  0.00    +0.000 A 
ATOM     15  C   UNL     1      46.959  -7.032   9.965  0.00  0.00    +0.000 A 
ATOM     16  C   UNL     1      45.388  -8.255   8.008  0.00  0.00    +0.000 A 
ATOM     17  C   UNL     1      47.542  -7.917   9.062  0.00  0.00    +0.000 A 
ATOM     18  C   UNL     1      46.752  -8.522   8.091  0.00  0.00    +0.000 A 
BRANCH  18  19
ATOM     19  O   UNL     1      47.346  -9.386   7.217  0.00  0.00    +0.000 OA
ATOM     20  H   UNL     1      48.197  -9.666   7.597  0.00  0.00    +0.000 HD
ENDBRANCH  18  19
ENDBRANCH  12  13
ENDBRANCH   1  11
TORSDOF 5
ENDMDL
MODEL 8
REMARK VINA RESULT:      -5.8     32.154     34.179
REMARK  Name = 445154_Resveratrol.pdbqt.pdb
REMARK  5 active torsions:
REMARK  status: ('A' for Active; 'I' for Inactive)
REMARK    1  A    between atoms: C_1  and  C_11
REMARK    2  A    between atoms: C_4  and  O_7
REMARK    3  A    between atoms: C_5  and  O_9
REMARK    4  A    between atoms: C_12  and  C_13
REMARK    5  A    between atoms: C_18  and  O_19
REMARK                            x       y       z     vdW  Elec       q    Type
REMARK                         _______ _______ _______ _____ _____    ______ ____
ROOT
ATOM      1  C   UNL     1      21.015  20.747   3.264  0.00  0.00    +0.000 A 
ATOM      2  C   UNL     1      19.712  20.707   3.759  0.00  0.00    +0.000 A 
ATOM      3  C   UNL     1      21.529  19.664   2.552  0.00  0.00    +0.000 A 
ATOM      4  C   UNL     1      20.731  18.543   2.339  0.00  0.00    +0.000 A 
ATOM      5  C   UNL     1      18.931  19.577   3.537  0.00  0.00    +0.000 A 
ATOM      6  C   UNL     1      19.429  18.489   2.827  0.00  0.00    +0.000 A 
ENDROOT
BRANCH   4   7
ATOM      7  O   UNL     1      21.207  17.469   1.645  0.00  0.00    +0.000 OA
ATOM      8  H   UNL     1      21.768  16.945   2.245  0.00  0.00    +0.000 HD
ENDBRANCH   4   7
BRANCH   5   9
ATOM      9  O   UNL     1      17.658  19.560   4.031  0.00  0.00    +0.000 OA
ATOM     10  H   UNL     1      17.275  18.685   3.842  0.00  0.00    +0.000 HD
ENDBRANCH   5   9
BRANCH   1  11
ATOM     11  C   UNL     1      21.826  21.899   3.486  0.00  0.00    +0.000 C 
ATOM     12  C   UNL     1      22.509  22.869   3.674  0.00  0.00    +0.000 C 
BRANCH  12  13
ATOM     13  C   UNL     1      23.321  24.020   3.898  0.00  0.00    +0.000 A 
ATOM     14  C   UNL     1      23.150  24.776   5.057  0.00  0.00    +0.000 A 
ATOM     15  C   UNL     1      24.282  24.387   2.956  0.00  0.00    +0.000 A 
ATOM     16  C   UNL     1      23.942  25.900   5.277  0.00  0.00    +0.000 A 
ATOM     17  C   UNL     1      25.075  25.511   3.173  0.00  0.00    +0.000 A 
ATOM     18  C   UNL     1      24.898  26.259   4.332  0.00  0.00    +0.000 A 
BRANCH  18  19
ATOM     19  O   UNL     1      25.687  27.356   4.522  0.00  0.00    +0.000 OA
ATOM     20  H   UNL     1      25.232  27.957   5.137  0.00  0.00    +0.000 HD
ENDBRANCH  18  19
ENDBRANCH  12  13
ENDBRANCH   1  11
TORSDOF 5
ENDMDL
MODEL 9
REMARK VINA RESULT:      -5.6     32.913     35.971
REMARK  Name = 445154_Resveratrol.pdbqt.pdb
REMARK  5 active torsions:
REMARK  status: ('A' for Active; 'I' for Inactive)
REMARK    1  A    between atoms: C_1  and  C_11
REMARK    2  A    between atoms: C_4  and  O_7
REMARK    3  A    between atoms: C_5  and  O_9
REMARK    4  A    between atoms: C_12  and  C_13
REMARK    5  A    between atoms: C_18  and  O_19
REMARK                            x       y       z     vdW  Elec       q    Type
REMARK                         _______ _______ _______ _____ _____    ______ ____
ROOT
ATOM      1  C   UNL     1      12.452  11.277  14.615  0.00  0.00    +0.000 A 
ATOM      2  C   UNL     1      12.362   9.892  14.738  0.00  0.00    +0.000 A 
ATOM      3  C   UNL     1      13.228  11.843  13.604  0.00  0.00    +0.000 A 
ATOM      4  C   UNL     1      13.912  11.012  12.720  0.00  0.00    +0.000 A 
ATOM      5  C   UNL     1      13.053   9.079  13.845  0.00  0.00    +0.000 A 
ATOM      6  C   UNL     1      13.831   9.628  12.831  0.00  0.00    +0.000 A 
ENDROOT
BRANCH   4   7
ATOM      7  O   UNL     1      14.679  11.538  11.721  0.00  0.00    +0.000 OA
ATOM      8  H   UNL     1      15.149  12.313  12.075  0.00  0.00    +0.000 HD
ENDBRANCH   4   7
BRANCH   5   9
ATOM      9  O   UNL     1      12.949   7.725  13.985  0.00  0.00    +0.000 OA
ATOM     10  H   UNL     1      13.452   7.309  13.262  0.00  0.00    +0.000 HD
ENDBRANCH   5   9
BRANCH   1  11
ATOM     11  C   UNL     1      11.749  12.121  15.525  0.00  0.00    +0.000 C 
ATOM     12  C   UNL     1      11.158  12.832  16.291  0.00  0.00    +0.000 C 
BRANCH  12  13
ATOM     13  C   UNL     1      10.455  13.677  17.201  0.00  0.00    +0.000 A 
ATOM     14  C   UNL     1       9.085  13.885  17.038  0.00  0.00    +0.000 A 
ATOM     15  C   UNL     1      11.138  14.292  18.249  0.00  0.00    +0.000 A 
ATOM     16  C   UNL     1       8.397  14.708  17.925  0.00  0.00    +0.000 A 
ATOM     17  C   UNL     1      10.453  15.116  19.138  0.00  0.00    +0.000 A 
ATOM     18  C   UNL     1       9.088  15.318  18.968  0.00  0.00    +0.000 A 
BRANCH  18  19
ATOM     19  O   UNL     1       8.438  16.130  19.852  0.00  0.00    +0.000 OA
ATOM     20  H   UNL     1       7.522  16.246  19.543  0.00  0.00    +0.000 HD
ENDBRANCH  18  19
ENDBRANCH  12  13
ENDBRANCH   1  11
TORSDOF 5
ENDMDL
