MODEL 1
REMARK VINA RESULT:      -6.8      0.000      0.000
REMARK  Name = 448438_Violaxanthin.pdbqt.pdb
REMARK  16 active torsions:
REMARK  status: ('A' for Active; 'I' for Inactive)
REMARK    1  A    between atoms: C_1  and  C_5
REMARK    2  A    between atoms: C_2  and  C_27
REMARK    3  A    between atoms: C_3  and  C_5
REMARK    4  A    between atoms: C_3  and  C_7
REMARK    5  A    between atoms: C_6  and  C_10
REMARK    6  A    between atoms: C_8  and  C_10
REMARK    7  A    between atoms: C_8  and  C_12
REMARK    8  A    between atoms: C_11  and  C_14
REMARK    9  A    between atoms: C_19  and  O_23
REMARK   10  A    between atoms: C_25  and  C_27
REMARK   11  A    between atoms: C_25  and  C_29
REMARK   12  A    between atoms: C_28  and  C_32
REMARK   13  A    between atoms: C_30  and  C_32
REMARK   14  A    between atoms: C_30  and  C_34
REMARK   15  A    between atoms: C_33  and  C_36
REMARK   16  A    between atoms: C_41  and  O_45
REMARK                            x       y       z     vdW  Elec       q    Type
REMARK                         _______ _______ _______ _____ _____    ______ ____
ROOT
ATOM      1  C   UNL     1      45.486   3.551  17.165  0.00  0.00    +0.000 C 
ATOM      2  C   UNL     1      45.730   3.565  15.991  0.00  0.00    +0.000 C 
ENDROOT
BRANCH   2   3
ATOM      3  C   UNL     1      46.045   3.582  14.490  0.00  0.00    +0.000 C 
BRANCH   3   4
ATOM      4  C   UNL     1      46.310   3.598  13.222  0.00  0.00    +0.000 C 
ATOM      5  C   UNL     1      46.560   4.904  12.529  0.00  0.00    +0.000 C 
BRANCH   4   7
ATOM      6  C   UNL     1      46.280   1.371  11.850  0.00  0.00    +0.000 C 
ATOM      7  C   UNL     1      46.294   2.394  12.480  0.00  0.00    +0.000 C 
BRANCH   6   8
ATOM      8  C   UNL     1      46.262   0.064  11.048  0.00  0.00    +0.000 C 
BRANCH   8   9
ATOM      9  C   UNL     1      46.249  -1.043  10.372  0.00  0.00    +0.000 C 
ATOM     10  C   UNL     1      47.104  -1.183   9.150  0.00  0.00    +0.000 C 
BRANCH   9  12
ATOM     11  C   UNL     1      44.900  -3.103  11.266  0.00  0.00    +0.000 C 
ATOM     12  C   UNL     1      45.521  -2.158  10.860  0.00  0.00    +0.000 C 
BRANCH  11  14
ATOM     13  O   UNL     1      42.810  -3.812  12.149  0.00  0.00    +0.000 OA
ATOM     14  C   UNL     1      44.136  -4.249  11.736  0.00  0.00    +0.000 C 
ATOM     15  C   UNL     1      42.842  -4.655  10.998  0.00  0.00    +0.000 C 
ATOM     16  C   UNL     1      44.830  -5.320  12.643  0.00  0.00    +0.000 C 
ATOM     17  C   UNL     1      42.324  -5.956  11.270  0.00  0.00    +0.000 C 
ATOM     18  C   UNL     1      43.925  -6.474  12.733  0.00  0.00    +0.000 C 
ATOM     19  C   UNL     1      42.746  -6.972  12.143  0.00  0.00    +0.000 C 
ATOM     20  C   UNL     1      42.357  -3.961   9.721  0.00  0.00    +0.000 C 
ATOM     21  C   UNL     1      46.134  -5.718  11.910  0.00  0.00    +0.000 C 
ATOM     22  C   UNL     1      45.087  -4.644  14.007  0.00  0.00    +0.000 C 
BRANCH  19  23
ATOM     23  O   UNL     1      41.853  -7.744  12.824  0.00  0.00    +0.000 OA
ATOM     24  H   UNL     1      41.450  -7.278  13.578  0.00  0.00    +0.000 HD
ENDBRANCH  19  23
ENDBRANCH  11  14
ENDBRANCH   9  12
ENDBRANCH   8   9
ENDBRANCH   6   8
ENDBRANCH   4   7
ENDBRANCH   3   4
ENDBRANCH   2   3
BRANCH   1  25
ATOM     25  C   UNL     1      45.172   3.534  18.666  0.00  0.00    +0.000 C 
BRANCH  25  26
ATOM     26  C   UNL     1      44.907   3.519  19.935  0.00  0.00    +0.000 C 
ATOM     27  C   UNL     1      44.989   2.232  20.699  0.00  0.00    +0.000 C 
BRANCH  26  29
ATOM     28  C   UNL     1      44.277   5.740  21.164  0.00  0.00    +0.000 C 
ATOM     29  C   UNL     1      44.568   4.719  20.601  0.00  0.00    +0.000 C 
BRANCH  28  30
ATOM     30  C   UNL     1      43.903   7.046  21.876  0.00  0.00    +0.000 C 
BRANCH  30  31
ATOM     31  C   UNL     1      43.591   8.152  22.476  0.00  0.00    +0.000 C 
ATOM     32  C   UNL     1      44.583   8.816  23.381  0.00  0.00    +0.000 C 
BRANCH  31  34
ATOM     33  C   UNL     1      41.264   9.271  22.033  0.00  0.00    +0.000 C 
ATOM     34  C   UNL     1      42.331   8.754  22.237  0.00  0.00    +0.000 C 
BRANCH  33  36
ATOM     35  O   UNL     1      39.593  10.712  22.930  0.00  0.00    +0.000 OA
ATOM     36  C   UNL     1      39.976   9.901  21.783  0.00  0.00    +0.000 C 
ATOM     37  C   UNL     1      39.875  11.440  21.736  0.00  0.00    +0.000 C 
ATOM     38  C   UNL     1      38.829   9.065  21.110  0.00  0.00    +0.000 C 
ATOM     39  C   UNL     1      38.698  11.998  21.154  0.00  0.00    +0.000 C 
ATOM     40  C   UNL     1      37.785  10.013  20.711  0.00  0.00    +0.000 C 
ATOM     41  C   UNL     1      37.546  11.397  20.619  0.00  0.00    +0.000 C 
ATOM     42  C   UNL     1      41.082  12.372  21.867  0.00  0.00    +0.000 C 
ATOM     43  C   UNL     1      38.368   8.039  22.169  0.00  0.00    +0.000 C 
ATOM     44  C   UNL     1      39.474   8.395  19.870  0.00  0.00    +0.000 C 
BRANCH  41  45
ATOM     45  O   UNL     1      36.855  11.929  19.574  0.00  0.00    +0.000 OA
ATOM     46  H   UNL     1      36.130  11.351  19.274  0.00  0.00    +0.000 HD
ENDBRANCH  41  45
ENDBRANCH  33  36
ENDBRANCH  31  34
ENDBRANCH  30  31
ENDBRANCH  28  30
ENDBRANCH  26  29
ENDBRANCH  25  26
ENDBRANCH   1  25
TORSDOF 16
ENDMDL
MODEL 2
REMARK VINA RESULT:      -6.4     24.558     28.272
REMARK  Name = 448438_Violaxanthin.pdbqt.pdb
REMARK  16 active torsions:
REMARK  status: ('A' for Active; 'I' for Inactive)
REMARK    1  A    between atoms: C_1  and  C_5
REMARK    2  A    between atoms: C_2  and  C_27
REMARK    3  A    between atoms: C_3  and  C_5
REMARK    4  A    between atoms: C_3  and  C_7
REMARK    5  A    between atoms: C_6  and  C_10
REMARK    6  A    between atoms: C_8  and  C_10
REMARK    7  A    between atoms: C_8  and  C_12
REMARK    8  A    between atoms: C_11  and  C_14
REMARK    9  A    between atoms: C_19  and  O_23
REMARK   10  A    between atoms: C_25  and  C_27
REMARK   11  A    between atoms: C_25  and  C_29
REMARK   12  A    between atoms: C_28  and  C_32
REMARK   13  A    between atoms: C_30  and  C_32
REMARK   14  A    between atoms: C_30  and  C_34
REMARK   15  A    between atoms: C_33  and  C_36
REMARK   16  A    between atoms: C_41  and  O_45
REMARK                            x       y       z     vdW  Elec       q    Type
REMARK                         _______ _______ _______ _____ _____    ______ ____
ROOT
ATOM      1  C   UNL     1      16.213  -4.935   6.423  0.00  0.00    +0.000 C 
ATOM      2  C   UNL     1      16.562  -5.401   7.471  0.00  0.00    +0.000 C 
ENDROOT
BRANCH   2   3
ATOM      3  C   UNL     1      17.007  -5.995   8.813  0.00  0.00    +0.000 C 
BRANCH   3   4
ATOM      4  C   UNL     1      17.380  -6.497   9.948  0.00  0.00    +0.000 C 
ATOM      5  C   UNL     1      17.307  -7.978  10.168  0.00  0.00    +0.000 C 
BRANCH   4   7
ATOM      6  C   UNL     1      18.139  -4.918  11.890  0.00  0.00    +0.000 C 
ATOM      7  C   UNL     1      17.790  -5.643  10.998  0.00  0.00    +0.000 C 
BRANCH   6   8
ATOM      8  C   UNL     1      18.586  -3.992  13.028  0.00  0.00    +0.000 C 
BRANCH   8   9
ATOM      9  C   UNL     1      18.964  -3.211  13.993  0.00  0.00    +0.000 C 
ATOM     10  C   UNL     1      17.940  -2.564  14.875  0.00  0.00    +0.000 C 
BRANCH   9  12
ATOM     11  C   UNL     1      21.514  -2.961  14.535  0.00  0.00    +0.000 C 
ATOM     12  C   UNL     1      20.343  -3.071  14.287  0.00  0.00    +0.000 C 
BRANCH  11  14
ATOM     13  O   UNL     1      23.709  -3.254  13.672  0.00  0.00    +0.000 OA
ATOM     14  C   UNL     1      22.933  -2.853  14.836  0.00  0.00    +0.000 C 
ATOM     15  C   UNL     1      23.811  -1.875  14.025  0.00  0.00    +0.000 C 
ATOM     16  C   UNL     1      23.466  -3.334  16.228  0.00  0.00    +0.000 C 
ATOM     17  C   UNL     1      25.089  -1.552  14.567  0.00  0.00    +0.000 C 
ATOM     18  C   UNL     1      24.851  -2.859  16.357  0.00  0.00    +0.000 C 
ATOM     19  C   UNL     1      25.762  -1.994  15.719  0.00  0.00    +0.000 C 
ATOM     20  C   UNL     1      23.243  -0.931  12.961  0.00  0.00    +0.000 C 
ATOM     21  C   UNL     1      22.565  -2.654  17.287  0.00  0.00    +0.000 C 
ATOM     22  C   UNL     1      23.350  -4.873  16.236  0.00  0.00    +0.000 C 
BRANCH  19  23
ATOM     23  O   UNL     1      27.106  -2.211  15.722  0.00  0.00    +0.000 OA
ATOM     24  H   UNL     1      27.588  -1.582  16.288  0.00  0.00    +0.000 HD
ENDBRANCH  19  23
ENDBRANCH  11  14
ENDBRANCH   9  12
ENDBRANCH   8   9
ENDBRANCH   6   8
ENDBRANCH   4   7
ENDBRANCH   3   4
ENDBRANCH   2   3
BRANCH   1  25
ATOM     25  C   UNL     1      15.768  -4.340   5.081  0.00  0.00    +0.000 C 
BRANCH  25  26
ATOM     26  C   UNL     1      15.392  -3.837   3.947  0.00  0.00    +0.000 C 
ATOM     27  C   UNL     1      14.868  -4.738   2.869  0.00  0.00    +0.000 C 
BRANCH  26  29
ATOM     28  C   UNL     1      15.498  -1.253   3.562  0.00  0.00    +0.000 C 
ATOM     29  C   UNL     1      15.451  -2.440   3.738  0.00  0.00    +0.000 C 
BRANCH  28  30
ATOM     30  C   UNL     1      15.553   0.264   3.341  0.00  0.00    +0.000 C 
BRANCH  30  31
ATOM     31  C   UNL     1      15.600   1.545   3.150  0.00  0.00    +0.000 C 
ATOM     32  C   UNL     1      15.596   2.092   1.755  0.00  0.00    +0.000 C 
BRANCH  31  34
ATOM     33  C   UNL     1      15.615   3.170   5.205  0.00  0.00    +0.000 C 
ATOM     34  C   UNL     1      15.607   2.426   4.260  0.00  0.00    +0.000 C 
BRANCH  33  36
ATOM     35  O   UNL     1      16.973   4.597   6.544  0.00  0.00    +0.000 OA
ATOM     36  C   UNL     1      15.630   4.067   6.351  0.00  0.00    +0.000 C 
ATOM     37  C   UNL     1      15.990   5.554   6.152  0.00  0.00    +0.000 C 
ATOM     38  C   UNL     1      14.849   3.664   7.653  0.00  0.00    +0.000 C 
ATOM     39  C   UNL     1      15.659   6.452   7.211  0.00  0.00    +0.000 C 
ATOM     40  C   UNL     1      14.786   4.857   8.501  0.00  0.00    +0.000 C 
ATOM     41  C   UNL     1      15.072   6.235   8.468  0.00  0.00    +0.000 C 
ATOM     42  C   UNL     1      16.269   6.183   4.785  0.00  0.00    +0.000 C 
ATOM     43  C   UNL     1      15.638   2.493   8.282  0.00  0.00    +0.000 C 
ATOM     44  C   UNL     1      13.434   3.244   7.178  0.00  0.00    +0.000 C 
BRANCH  41  45
ATOM     45  O   UNL     1      14.252   7.144   9.066  0.00  0.00    +0.000 OA
ATOM     46  H   UNL     1      13.638   6.730   9.700  0.00  0.00    +0.000 HD
ENDBRANCH  41  45
ENDBRANCH  33  36
ENDBRANCH  31  34
ENDBRANCH  30  31
ENDBRANCH  28  30
ENDBRANCH  26  29
ENDBRANCH  25  26
ENDBRANCH   1  25
TORSDOF 16
ENDMDL
MODEL 3
REMARK VINA RESULT:      -6.2     18.276     21.525
REMARK  Name = 448438_Violaxanthin.pdbqt.pdb
REMARK  16 active torsions:
REMARK  status: ('A' for Active; 'I' for Inactive)
REMARK    1  A    between atoms: C_1  and  C_5
REMARK    2  A    between atoms: C_2  and  C_27
REMARK    3  A    between atoms: C_3  and  C_5
REMARK    4  A    between atoms: C_3  and  C_7
REMARK    5  A    between atoms: C_6  and  C_10
REMARK    6  A    between atoms: C_8  and  C_10
REMARK    7  A    between atoms: C_8  and  C_12
REMARK    8  A    between atoms: C_11  and  C_14
REMARK    9  A    between atoms: C_19  and  O_23
REMARK   10  A    between atoms: C_25  and  C_27
REMARK   11  A    between atoms: C_25  and  C_29
REMARK   12  A    between atoms: C_28  and  C_32
REMARK   13  A    between atoms: C_30  and  C_32
REMARK   14  A    between atoms: C_30  and  C_34
REMARK   15  A    between atoms: C_33  and  C_36
REMARK   16  A    between atoms: C_41  and  O_45
REMARK                            x       y       z     vdW  Elec       q    Type
REMARK                         _______ _______ _______ _____ _____    ______ ____
ROOT
ATOM      1  C   UNL     1      30.773   0.510  36.253  0.00  0.00    +0.000 C 
ATOM      2  C   UNL     1      30.017  -0.239  35.700  0.00  0.00    +0.000 C 
ENDROOT
BRANCH   2   3
ATOM      3  C   UNL     1      29.049  -1.194  34.992  0.00  0.00    +0.000 C 
BRANCH   3   4
ATOM      4  C   UNL     1      28.232  -2.002  34.393  0.00  0.00    +0.000 C 
ATOM      5  C   UNL     1      27.891  -3.320  35.021  0.00  0.00    +0.000 C 
BRANCH   4   7
ATOM      6  C   UNL     1      27.283  -1.390  32.033  0.00  0.00    +0.000 C 
ATOM      7  C   UNL     1      27.719  -1.671  33.117  0.00  0.00    +0.000 C 
BRANCH   6   8
ATOM      8  C   UNL     1      26.728  -1.029  30.650  0.00  0.00    +0.000 C 
BRANCH   8   9
ATOM      9  C   UNL     1      26.257  -0.728  29.479  0.00  0.00    +0.000 C 
ATOM     10  C   UNL     1      25.944   0.698  29.146  0.00  0.00    +0.000 C 
BRANCH   9  12
ATOM     11  C   UNL     1      26.068  -2.581  27.638  0.00  0.00    +0.000 C 
ATOM     12  C   UNL     1      26.158  -1.728  28.480  0.00  0.00    +0.000 C 
BRANCH  11  14
ATOM     13  O   UNL     1      26.519  -3.167  25.379  0.00  0.00    +0.000 OA
ATOM     14  C   UNL     1      25.945  -3.628  26.635  0.00  0.00    +0.000 C 
ATOM     15  C   UNL     1      27.220  -4.237  26.012  0.00  0.00    +0.000 C 
ATOM     16  C   UNL     1      24.615  -4.447  26.533  0.00  0.00    +0.000 C 
ATOM     17  C   UNL     1      27.069  -5.468  25.307  0.00  0.00    +0.000 C 
ATOM     18  C   UNL     1      24.869  -5.591  25.645  0.00  0.00    +0.000 C 
ATOM     19  C   UNL     1      25.941  -6.252  25.014  0.00  0.00    +0.000 C 
ATOM     20  C   UNL     1      28.633  -3.857  26.463  0.00  0.00    +0.000 C 
ATOM     21  C   UNL     1      24.308  -4.940  27.968  0.00  0.00    +0.000 C 
ATOM     22  C   UNL     1      23.542  -3.482  25.985  0.00  0.00    +0.000 C 
BRANCH  19  23
ATOM     23  O   UNL     1      25.808  -6.894  23.821  0.00  0.00    +0.000 OA
ATOM     24  H   UNL     1      24.897  -6.866  23.478  0.00  0.00    +0.000 HD
ENDBRANCH  19  23
ENDBRANCH  11  14
ENDBRANCH   9  12
ENDBRANCH   8   9
ENDBRANCH   6   8
ENDBRANCH   4   7
ENDBRANCH   3   4
ENDBRANCH   2   3
BRANCH   1  25
ATOM     25  C   UNL     1      31.741   1.466  36.962  0.00  0.00    +0.000 C 
BRANCH  25  26
ATOM     26  C   UNL     1      32.558   2.274  37.560  0.00  0.00    +0.000 C 
ATOM     27  C   UNL     1      33.570   1.732  38.525  0.00  0.00    +0.000 C 
BRANCH  26  29
ATOM     28  C   UNL     1      32.479   4.837  37.048  0.00  0.00    +0.000 C 
ATOM     29  C   UNL     1      32.513   3.660  37.284  0.00  0.00    +0.000 C 
BRANCH  28  30
ATOM     30  C   UNL     1      32.442   6.341  36.746  0.00  0.00    +0.000 C 
BRANCH  30  31
ATOM     31  C   UNL     1      32.406   7.611  36.492  0.00  0.00    +0.000 C 
ATOM     32  C   UNL     1      31.247   8.435  36.965  0.00  0.00    +0.000 C 
BRANCH  31  34
ATOM     33  C   UNL     1      34.398   8.754  35.232  0.00  0.00    +0.000 C 
ATOM     34  C   UNL     1      33.483   8.227  35.808  0.00  0.00    +0.000 C 
BRANCH  33  36
ATOM     35  O   UNL     1      35.005  10.464  33.689  0.00  0.00    +0.000 OA
ATOM     36  C   UNL     1      35.507   9.394  34.540  0.00  0.00    +0.000 C 
ATOM     37  C   UNL     1      35.804  10.887  34.792  0.00  0.00    +0.000 C 
ATOM     38  C   UNL     1      36.653   8.506  33.936  0.00  0.00    +0.000 C 
ATOM     39  C   UNL     1      37.079  11.377  34.378  0.00  0.00    +0.000 C 
ATOM     40  C   UNL     1      37.753   9.406  33.583  0.00  0.00    +0.000 C 
ATOM     41  C   UNL     1      38.154  10.748  33.729  0.00  0.00    +0.000 C 
ATOM     42  C   UNL     1      35.037  11.745  35.801  0.00  0.00    +0.000 C 
ATOM     43  C   UNL     1      36.034   7.773  32.724  0.00  0.00    +0.000 C 
ATOM     44  C   UNL     1      37.071   7.535  35.070  0.00  0.00    +0.000 C 
BRANCH  41  45
ATOM     45  O   UNL     1      39.454  11.077  33.967  0.00  0.00    +0.000 OA
ATOM     46  H   UNL     1      39.863  10.510  34.646  0.00  0.00    +0.000 HD
ENDBRANCH  41  45
ENDBRANCH  33  36
ENDBRANCH  31  34
ENDBRANCH  30  31
ENDBRANCH  28  30
ENDBRANCH  26  29
ENDBRANCH  25  26
ENDBRANCH   1  25
TORSDOF 16
ENDMDL
MODEL 4
REMARK VINA RESULT:      -6.1     15.352     17.762
REMARK  Name = 448438_Violaxanthin.pdbqt.pdb
REMARK  16 active torsions:
REMARK  status: ('A' for Active; 'I' for Inactive)
REMARK    1  A    between atoms: C_1  and  C_5
REMARK    2  A    between atoms: C_2  and  C_27
REMARK    3  A    between atoms: C_3  and  C_5
REMARK    4  A    between atoms: C_3  and  C_7
REMARK    5  A    between atoms: C_6  and  C_10
REMARK    6  A    between atoms: C_8  and  C_10
REMARK    7  A    between atoms: C_8  and  C_12
REMARK    8  A    between atoms: C_11  and  C_14
REMARK    9  A    between atoms: C_19  and  O_23
REMARK   10  A    between atoms: C_25  and  C_27
REMARK   11  A    between atoms: C_25  and  C_29
REMARK   12  A    between atoms: C_28  and  C_32
REMARK   13  A    between atoms: C_30  and  C_32
REMARK   14  A    between atoms: C_30  and  C_34
REMARK   15  A    between atoms: C_33  and  C_36
REMARK   16  A    between atoms: C_41  and  O_45
REMARK                            x       y       z     vdW  Elec       q    Type
REMARK                         _______ _______ _______ _____ _____    ______ ____
ROOT
ATOM      1  C   UNL     1      37.607  -9.584  27.581  0.00  0.00    +0.000 C 
ATOM      2  C   UNL     1      38.272 -10.442  27.071  0.00  0.00    +0.000 C 
ENDROOT
BRANCH   2   3
ATOM      3  C   UNL     1      39.122 -11.537  26.416  0.00  0.00    +0.000 C 
BRANCH   3   4
ATOM      4  C   UNL     1      39.839 -12.463  25.861  0.00  0.00    +0.000 C 
ATOM      5  C   UNL     1      40.394 -13.578  26.696  0.00  0.00    +0.000 C 
BRANCH   4   7
ATOM      6  C   UNL     1      40.421 -12.318  23.315  0.00  0.00    +0.000 C 
ATOM      7  C   UNL     1      40.153 -12.385  24.484  0.00  0.00    +0.000 C 
BRANCH   6   8
ATOM      8  C   UNL     1      40.762 -12.230  21.822  0.00  0.00    +0.000 C 
BRANCH   8   9
ATOM      9  C   UNL     1      41.049 -12.159  20.559  0.00  0.00    +0.000 C 
ATOM     10  C   UNL     1      42.434 -11.785  20.128  0.00  0.00    +0.000 C 
BRANCH   9  12
ATOM     11  C   UNL     1      39.268 -12.886  18.781  0.00  0.00    +0.000 C 
ATOM     12  C   UNL     1      40.089 -12.555  19.595  0.00  0.00    +0.000 C 
BRANCH  11  14
ATOM     13  O   UNL     1      37.423 -14.327  18.374  0.00  0.00    +0.000 OA
ATOM     14  C   UNL     1      38.257 -13.277  17.811  0.00  0.00    +0.000 C 
ATOM     15  C   UNL     1      36.763 -13.082  18.148  0.00  0.00    +0.000 C 
ATOM     16  C   UNL     1      38.655 -13.437  16.304  0.00  0.00    +0.000 C 
ATOM     17  C   UNL     1      35.842 -13.152  17.061  0.00  0.00    +0.000 C 
ATOM     18  C   UNL     1      37.411 -13.561  15.531  0.00  0.00    +0.000 C 
ATOM     19  C   UNL     1      36.019 -13.417  15.693  0.00  0.00    +0.000 C 
ATOM     20  C   UNL     1      36.280 -12.406  19.434  0.00  0.00    +0.000 C 
ATOM     21  C   UNL     1      39.397 -12.134  15.920  0.00  0.00    +0.000 C 
ATOM     22  C   UNL     1      39.551 -14.690  16.215  0.00  0.00    +0.000 C 
BRANCH  19  23
ATOM     23  O   UNL     1      35.117 -14.152  14.986  0.00  0.00    +0.000 OA
ATOM     24  H   UNL     1      35.504 -14.963  14.610  0.00  0.00    +0.000 HD
ENDBRANCH  19  23
ENDBRANCH  11  14
ENDBRANCH   9  12
ENDBRANCH   8   9
ENDBRANCH   6   8
ENDBRANCH   4   7
ENDBRANCH   3   4
ENDBRANCH   2   3
BRANCH   1  25
ATOM     25  C   UNL     1      36.757  -8.488  28.235  0.00  0.00    +0.000 C 
BRANCH  25  26
ATOM     26  C   UNL     1      36.038  -7.562  28.788  0.00  0.00    +0.000 C 
ATOM     27  C   UNL     1      36.689  -6.298  29.265  0.00  0.00    +0.000 C 
BRANCH  26  29
ATOM     28  C   UNL     1      33.452  -7.873  29.024  0.00  0.00    +0.000 C 
ATOM     29  C   UNL     1      34.640  -7.732  28.916  0.00  0.00    +0.000 C 
BRANCH  28  30
ATOM     30  C   UNL     1      31.934  -8.046  29.163  0.00  0.00    +0.000 C 
BRANCH  30  31
ATOM     31  C   UNL     1      30.652  -8.196  29.276  0.00  0.00    +0.000 C 
ATOM     32  C   UNL     1      30.100  -9.352  30.053  0.00  0.00    +0.000 C 
BRANCH  31  34
ATOM     33  C   UNL     1      29.034  -6.428  28.217  0.00  0.00    +0.000 C 
ATOM     34  C   UNL     1      29.775  -7.239  28.706  0.00  0.00    +0.000 C 
BRANCH  33  36
ATOM     35  O   UNL     1      28.555  -4.106  27.994  0.00  0.00    +0.000 OA
ATOM     36  C   UNL     1      28.137  -5.450  27.620  0.00  0.00    +0.000 C 
ATOM     37  C   UNL     1      28.691  -4.423  26.610  0.00  0.00    +0.000 C 
ATOM     38  C   UNL     1      26.590  -5.722  27.622  0.00  0.00    +0.000 C 
ATOM     39  C   UNL     1      27.743  -3.728  25.801  0.00  0.00    +0.000 C 
ATOM     40  C   UNL     1      25.982  -4.750  26.710  0.00  0.00    +0.000 C 
ATOM     41  C   UNL     1      26.339  -3.772  25.762  0.00  0.00    +0.000 C 
ATOM     42  C   UNL     1      30.143  -4.410  26.125  0.00  0.00    +0.000 C 
ATOM     43  C   UNL     1      26.130  -5.571  29.090  0.00  0.00    +0.000 C 
ATOM     44  C   UNL     1      26.420  -7.167  27.089  0.00  0.00    +0.000 C 
BRANCH  41  45
ATOM     45  O   UNL     1      25.628  -3.605  24.613  0.00  0.00    +0.000 OA
ATOM     46  H   UNL     1      26.143  -3.157  23.918  0.00  0.00    +0.000 HD
ENDBRANCH  41  45
ENDBRANCH  33  36
ENDBRANCH  31  34
ENDBRANCH  30  31
ENDBRANCH  28  30
ENDBRANCH  26  29
ENDBRANCH  25  26
ENDBRANCH   1  25
TORSDOF 16
ENDMDL
MODEL 5
REMARK VINA RESULT:      -6.0     10.239     14.496
REMARK  Name = 448438_Violaxanthin.pdbqt.pdb
REMARK  16 active torsions:
REMARK  status: ('A' for Active; 'I' for Inactive)
REMARK    1  A    between atoms: C_1  and  C_5
REMARK    2  A    between atoms: C_2  and  C_27
REMARK    3  A    between atoms: C_3  and  C_5
REMARK    4  A    between atoms: C_3  and  C_7
REMARK    5  A    between atoms: C_6  and  C_10
REMARK    6  A    between atoms: C_8  and  C_10
REMARK    7  A    between atoms: C_8  and  C_12
REMARK    8  A    between atoms: C_11  and  C_14
REMARK    9  A    between atoms: C_19  and  O_23
REMARK   10  A    between atoms: C_25  and  C_27
REMARK   11  A    between atoms: C_25  and  C_29
REMARK   12  A    between atoms: C_28  and  C_32
REMARK   13  A    between atoms: C_30  and  C_32
REMARK   14  A    between atoms: C_30  and  C_34
REMARK   15  A    between atoms: C_33  and  C_36
REMARK   16  A    between atoms: C_41  and  O_45
REMARK                            x       y       z     vdW  Elec       q    Type
REMARK                         _______ _______ _______ _____ _____    ______ ____
ROOT
ATOM      1  C   UNL     1      52.377  -3.281   8.647  0.00  0.00    +0.000 C 
ATOM      2  C   UNL     1      53.008  -4.272   8.405  0.00  0.00    +0.000 C 
ENDROOT
BRANCH   2   3
ATOM      3  C   UNL     1      53.816  -5.538   8.097  0.00  0.00    +0.000 C 
BRANCH   3   4
ATOM      4  C   UNL     1      54.502  -6.606   7.836  0.00  0.00    +0.000 C 
ATOM      5  C   UNL     1      55.992  -6.595   8.003  0.00  0.00    +0.000 C 
BRANCH   4   7
ATOM      6  C   UNL     1      53.303  -8.734   6.900  0.00  0.00    +0.000 C 
ATOM      7  C   UNL     1      53.854  -7.757   7.330  0.00  0.00    +0.000 C 
BRANCH   6   8
ATOM      8  C   UNL     1      52.600  -9.983   6.353  0.00  0.00    +0.000 C 
BRANCH   8   9
ATOM      9  C   UNL     1      52.002 -11.038   5.893  0.00  0.00    +0.000 C 
ATOM     10  C   UNL     1      52.770 -12.038   5.085  0.00  0.00    +0.000 C 
BRANCH   9  12
ATOM     11  C   UNL     1      49.517 -11.518   6.565  0.00  0.00    +0.000 C 
ATOM     12  C   UNL     1      50.659 -11.302   6.258  0.00  0.00    +0.000 C 
BRANCH  11  14
ATOM     13  O   UNL     1      47.971 -13.137   7.365  0.00  0.00    +0.000 OA
ATOM     14  C   UNL     1      48.130 -11.755   6.936  0.00  0.00    +0.000 C 
ATOM     15  C   UNL     1      47.788 -12.157   8.387  0.00  0.00    +0.000 C 
ATOM     16  C   UNL     1      46.983 -11.166   6.048  0.00  0.00    +0.000 C 
ATOM     17  C   UNL     1      46.422 -12.043   8.783  0.00  0.00    +0.000 C 
ATOM     18  C   UNL     1      45.725 -11.320   6.793  0.00  0.00    +0.000 C 
ATOM     19  C   UNL     1      45.267 -11.665   8.080  0.00  0.00    +0.000 C 
ATOM     20  C   UNL     1      48.836 -12.235   9.500  0.00  0.00    +0.000 C 
ATOM     21  C   UNL     1      47.316  -9.665   5.863  0.00  0.00    +0.000 C 
ATOM     22  C   UNL     1      47.001 -11.955   4.721  0.00  0.00    +0.000 C 
BRANCH  19  23
ATOM     23  O   UNL     1      44.069 -12.276   8.293  0.00  0.00    +0.000 OA
ATOM     24  H   UNL     1      44.147 -13.244   8.364  0.00  0.00    +0.000 HD
ENDBRANCH  19  23
ENDBRANCH  11  14
ENDBRANCH   9  12
ENDBRANCH   8   9
ENDBRANCH   6   8
ENDBRANCH   4   7
ENDBRANCH   3   4
ENDBRANCH   2   3
BRANCH   1  25
ATOM     25  C   UNL     1      51.569  -2.014   8.955  0.00  0.00    +0.000 C 
BRANCH  25  26
ATOM     26  C   UNL     1      50.886  -0.944   9.216  0.00  0.00    +0.000 C 
ATOM     27  C   UNL     1      51.476   0.405   8.932  0.00  0.00    +0.000 C 
BRANCH  26  29
ATOM     28  C   UNL     1      48.467  -1.136  10.190  0.00  0.00    +0.000 C 
ATOM     29  C   UNL     1      49.578  -1.050   9.742  0.00  0.00    +0.000 C 
BRANCH  28  30
ATOM     30  C   UNL     1      47.047  -1.238  10.762  0.00  0.00    +0.000 C 
BRANCH  30  31
ATOM     31  C   UNL     1      45.848  -1.321  11.249  0.00  0.00    +0.000 C 
ATOM     32  C   UNL     1      45.041  -0.077  11.461  0.00  0.00    +0.000 C 
BRANCH  31  34
ATOM     33  C   UNL     1      44.804  -3.666  11.774  0.00  0.00    +0.000 C 
ATOM     34  C   UNL     1      45.287  -2.590  11.534  0.00  0.00    +0.000 C 
BRANCH  33  36
ATOM     35  O   UNL     1      44.620  -5.407  13.388  0.00  0.00    +0.000 OA
ATOM     36  C   UNL     1      44.217  -4.966  12.060  0.00  0.00    +0.000 C 
ATOM     37  C   UNL     1      43.232  -5.116  13.238  0.00  0.00    +0.000 C 
ATOM     38  C   UNL     1      44.199  -6.066  10.938  0.00  0.00    +0.000 C 
ATOM     39  C   UNL     1      42.427  -6.294  13.268  0.00  0.00    +0.000 C 
ATOM     40  C   UNL     1      43.300  -7.129  11.393  0.00  0.00    +0.000 C 
ATOM     41  C   UNL     1      42.374  -7.410  12.416  0.00  0.00    +0.000 C 
ATOM     42  C   UNL     1      42.762  -3.945  14.104  0.00  0.00    +0.000 C 
ATOM     43  C   UNL     1      45.666  -6.523  10.763  0.00  0.00    +0.000 C 
ATOM     44  C   UNL     1      43.637  -5.365   9.675  0.00  0.00    +0.000 C 
BRANCH  41  45
ATOM     45  O   UNL     1      41.221  -8.089  12.161  0.00  0.00    +0.000 OA
ATOM     46  H   UNL     1      41.383  -8.949  11.732  0.00  0.00    +0.000 HD
ENDBRANCH  41  45
ENDBRANCH  33  36
ENDBRANCH  31  34
ENDBRANCH  30  31
ENDBRANCH  28  30
ENDBRANCH  26  29
ENDBRANCH  25  26
ENDBRANCH   1  25
TORSDOF 16
ENDMDL
MODEL 6
REMARK VINA RESULT:      -5.9     17.563     21.453
REMARK  Name = 448438_Violaxanthin.pdbqt.pdb
REMARK  16 active torsions:
REMARK  status: ('A' for Active; 'I' for Inactive)
REMARK    1  A    between atoms: C_1  and  C_5
REMARK    2  A    between atoms: C_2  and  C_27
REMARK    3  A    between atoms: C_3  and  C_5
REMARK    4  A    between atoms: C_3  and  C_7
REMARK    5  A    between atoms: C_6  and  C_10
REMARK    6  A    between atoms: C_8  and  C_10
REMARK    7  A    between atoms: C_8  and  C_12
REMARK    8  A    between atoms: C_11  and  C_14
REMARK    9  A    between atoms: C_19  and  O_23
REMARK   10  A    between atoms: C_25  and  C_27
REMARK   11  A    between atoms: C_25  and  C_29
REMARK   12  A    between atoms: C_28  and  C_32
REMARK   13  A    between atoms: C_30  and  C_32
REMARK   14  A    between atoms: C_30  and  C_34
REMARK   15  A    between atoms: C_33  and  C_36
REMARK   16  A    between atoms: C_41  and  O_45
REMARK                            x       y       z     vdW  Elec       q    Type
REMARK                         _______ _______ _______ _____ _____    ______ ____
ROOT
ATOM      1  C   UNL     1      30.443   1.967  37.050  0.00  0.00    +0.000 C 
ATOM      2  C   UNL     1      30.147   0.905  36.577  0.00  0.00    +0.000 C 
ENDROOT
BRANCH   2   3
ATOM      3  C   UNL     1      29.766  -0.451  35.971  0.00  0.00    +0.000 C 
BRANCH   3   4
ATOM      4  C   UNL     1      29.445  -1.596  35.457  0.00  0.00    +0.000 C 
ATOM      5  C   UNL     1      30.089  -2.850  35.966  0.00  0.00    +0.000 C 
BRANCH   4   7
ATOM      6  C   UNL     1      27.770  -1.705  33.451  0.00  0.00    +0.000 C 
ATOM      7  C   UNL     1      28.539  -1.655  34.372  0.00  0.00    +0.000 C 
BRANCH   6   8
ATOM      8  C   UNL     1      26.786  -1.767  32.275  0.00  0.00    +0.000 C 
BRANCH   8   9
ATOM      9  C   UNL     1      25.956  -1.823  31.280  0.00  0.00    +0.000 C 
ATOM     10  C   UNL     1      24.642  -1.108  31.363  0.00  0.00    +0.000 C 
BRANCH   9  12
ATOM     11  C   UNL     1      26.665  -2.994  29.047  0.00  0.00    +0.000 C 
ATOM     12  C   UNL     1      26.344  -2.456  30.073  0.00  0.00    +0.000 C 
BRANCH  11  14
ATOM     13  O   UNL     1      25.995  -4.604  27.432  0.00  0.00    +0.000 OA
ATOM     14  C   UNL     1      27.029  -3.648  27.800  0.00  0.00    +0.000 C 
ATOM     15  C   UNL     1      26.124  -3.482  26.560  0.00  0.00    +0.000 C 
ATOM     16  C   UNL     1      28.510  -4.103  27.571  0.00  0.00    +0.000 C 
ATOM     17  C   UNL     1      26.683  -3.843  25.299  0.00  0.00    +0.000 C 
ATOM     18  C   UNL     1      28.644  -4.470  26.154  0.00  0.00    +0.000 C 
ATOM     19  C   UNL     1      27.929  -4.384  24.943  0.00  0.00    +0.000 C 
ATOM     20  C   UNL     1      24.888  -2.578  26.545  0.00  0.00    +0.000 C 
ATOM     21  C   UNL     1      29.388  -2.868  27.890  0.00  0.00    +0.000 C 
ATOM     22  C   UNL     1      28.762  -5.286  28.529  0.00  0.00    +0.000 C 
BRANCH  19  23
ATOM     23  O   UNL     1      28.049  -5.311  23.952  0.00  0.00    +0.000 OA
ATOM     24  H   UNL     1      28.871  -5.210  23.439  0.00  0.00    +0.000 HD
ENDBRANCH  19  23
ENDBRANCH  11  14
ENDBRANCH   9  12
ENDBRANCH   8   9
ENDBRANCH   6   8
ENDBRANCH   4   7
ENDBRANCH   3   4
ENDBRANCH   2   3
BRANCH   1  25
ATOM     25  C   UNL     1      30.823   3.324  37.656  0.00  0.00    +0.000 C 
BRANCH  25  26
ATOM     26  C   UNL     1      31.144   4.470  38.168  0.00  0.00    +0.000 C 
ATOM     27  C   UNL     1      30.181   5.179  39.072  0.00  0.00    +0.000 C 
BRANCH  26  29
ATOM     28  C   UNL     1      33.483   5.523  37.661  0.00  0.00    +0.000 C 
ATOM     29  C   UNL     1      32.410   5.038  37.895  0.00  0.00    +0.000 C 
BRANCH  28  30
ATOM     30  C   UNL     1      34.852   6.147  37.357  0.00  0.00    +0.000 C 
BRANCH  30  31
ATOM     31  C   UNL     1      36.010   6.671  37.103  0.00  0.00    +0.000 C 
ATOM     32  C   UNL     1      37.217   6.219  37.866  0.00  0.00    +0.000 C 
BRANCH  31  34
ATOM     33  C   UNL     1      36.245   8.451  35.195  0.00  0.00    +0.000 C 
ATOM     34  C   UNL     1      36.140   7.635  36.073  0.00  0.00    +0.000 C 
BRANCH  33  36
ATOM     35  O   UNL     1      35.217   9.348  33.244  0.00  0.00    +0.000 OA
ATOM     36  C   UNL     1      36.366   9.439  34.133  0.00  0.00    +0.000 C 
ATOM     37  C   UNL     1      35.307  10.553  34.002  0.00  0.00    +0.000 C 
ATOM     38  C   UNL     1      37.761   9.663  33.446  0.00  0.00    +0.000 C 
ATOM     39  C   UNL     1      35.641  11.678  33.192  0.00  0.00    +0.000 C 
ATOM     40  C   UNL     1      37.657  10.891  32.656  0.00  0.00    +0.000 C 
ATOM     41  C   UNL     1      36.783  11.972  32.428  0.00  0.00    +0.000 C 
ATOM     42  C   UNL     1      34.146  10.737  34.983  0.00  0.00    +0.000 C 
ATOM     43  C   UNL     1      38.029   8.398  32.599  0.00  0.00    +0.000 C 
ATOM     44  C   UNL     1      38.776   9.831  34.606  0.00  0.00    +0.000 C 
BRANCH  41  45
ATOM     45  O   UNL     1      37.252  13.239  32.260  0.00  0.00    +0.000 OA
ATOM     46  H   UNL     1      38.156  13.351  32.606  0.00  0.00    +0.000 HD
ENDBRANCH  41  45
ENDBRANCH  33  36
ENDBRANCH  31  34
ENDBRANCH  30  31
ENDBRANCH  28  30
ENDBRANCH  26  29
ENDBRANCH  25  26
ENDBRANCH   1  25
TORSDOF 16
ENDMDL
MODEL 7
REMARK VINA RESULT:      -5.9     30.457     33.788
REMARK  Name = 448438_Violaxanthin.pdbqt.pdb
REMARK  16 active torsions:
REMARK  status: ('A' for Active; 'I' for Inactive)
REMARK    1  A    between atoms: C_1  and  C_5
REMARK    2  A    between atoms: C_2  and  C_27
REMARK    3  A    between atoms: C_3  and  C_5
REMARK    4  A    between atoms: C_3  and  C_7
REMARK    5  A    between atoms: C_6  and  C_10
REMARK    6  A    between atoms: C_8  and  C_10
REMARK    7  A    between atoms: C_8  and  C_12
REMARK    8  A    between atoms: C_11  and  C_14
REMARK    9  A    between atoms: C_19  and  O_23
REMARK   10  A    between atoms: C_25  and  C_27
REMARK   11  A    between atoms: C_25  and  C_29
REMARK   12  A    between atoms: C_28  and  C_32
REMARK   13  A    between atoms: C_30  and  C_32
REMARK   14  A    between atoms: C_30  and  C_34
REMARK   15  A    between atoms: C_33  and  C_36
REMARK   16  A    between atoms: C_41  and  O_45
REMARK                            x       y       z     vdW  Elec       q    Type
REMARK                         _______ _______ _______ _____ _____    ______ ____
ROOT
ATOM      1  C   UNL     1      17.201  17.685   4.460  0.00  0.00    +0.000 C 
ATOM      2  C   UNL     1      16.094  17.239   4.576  0.00  0.00    +0.000 C 
ENDROOT
BRANCH   2   3
ATOM      3  C   UNL     1      14.677  16.671   4.723  0.00  0.00    +0.000 C 
BRANCH   3   4
ATOM      4  C   UNL     1      13.481  16.189   4.847  0.00  0.00    +0.000 C 
ATOM      5  C   UNL     1      12.662  15.902   3.625  0.00  0.00    +0.000 C 
BRANCH   4   7
ATOM      6  C   UNL     1      12.453  15.837   7.227  0.00  0.00    +0.000 C 
ATOM      7  C   UNL     1      12.925  15.998   6.134  0.00  0.00    +0.000 C 
BRANCH   6   8
ATOM      8  C   UNL     1      11.851  15.633   8.623  0.00  0.00    +0.000 C 
BRANCH   8   9
ATOM      9  C   UNL     1      11.342  15.463   9.803  0.00  0.00    +0.000 C 
ATOM     10  C   UNL     1      10.448  16.512  10.389  0.00  0.00    +0.000 C 
BRANCH   9  12
ATOM     11  C   UNL     1      11.688  13.187  11.053  0.00  0.00    +0.000 C 
ATOM     12  C   UNL     1      11.531  14.234  10.483  0.00  0.00    +0.000 C 
BRANCH  11  14
ATOM     13  O   UNL     1      10.721  11.657  12.594  0.00  0.00    +0.000 OA
ATOM     14  C   UNL     1      11.862  11.909  11.726  0.00  0.00    +0.000 C 
ATOM     15  C   UNL     1      10.845  10.774  11.480  0.00  0.00    +0.000 C 
ATOM     16  C   UNL     1      13.269  11.523  12.296  0.00  0.00    +0.000 C 
ATOM     17  C   UNL     1      11.234   9.460  11.876  0.00  0.00    +0.000 C 
ATOM     18  C   UNL     1      13.219  10.100  12.664  0.00  0.00    +0.000 C 
ATOM     19  C   UNL     1      12.388   8.973  12.513  0.00  0.00    +0.000 C 
ATOM     20  C   UNL     1       9.691  10.890  10.480  0.00  0.00    +0.000 C 
ATOM     21  C   UNL     1      14.272  11.743  11.138  0.00  0.00    +0.000 C 
ATOM     22  C   UNL     1      13.526  12.451  13.502  0.00  0.00    +0.000 C 
BRANCH  19  23
ATOM     23  O   UNL     1      12.325   7.978  13.440  0.00  0.00    +0.000 OA
ATOM     24  H   UNL     1      12.845   7.194  13.186  0.00  0.00    +0.000 HD
ENDBRANCH  19  23
ENDBRANCH  11  14
ENDBRANCH   9  12
ENDBRANCH   8   9
ENDBRANCH   6   8
ENDBRANCH   4   7
ENDBRANCH   3   4
ENDBRANCH   2   3
BRANCH   1  25
ATOM     25  C   UNL     1      18.618  18.254   4.312  0.00  0.00    +0.000 C 
BRANCH  25  26
ATOM     26  C   UNL     1      19.815  18.735   4.187  0.00  0.00    +0.000 C 
ATOM     27  C   UNL     1      20.979  18.001   4.782  0.00  0.00    +0.000 C 
BRANCH  26  29
ATOM     28  C   UNL     1      20.205  20.955   2.862  0.00  0.00    +0.000 C 
ATOM     29  C   UNL     1      20.024  19.935   3.470  0.00  0.00    +0.000 C 
BRANCH  28  30
ATOM     30  C   UNL     1      20.443  22.259   2.089  0.00  0.00    +0.000 C 
BRANCH  30  31
ATOM     31  C   UNL     1      20.639  23.360   1.434  0.00  0.00    +0.000 C 
ATOM     32  C   UNL     1      19.657  23.791   0.388  0.00  0.00    +0.000 C 
BRANCH  31  34
ATOM     33  C   UNL     1      22.702  24.870   2.007  0.00  0.00    +0.000 C 
ATOM     34  C   UNL     1      21.756  24.176   1.741  0.00  0.00    +0.000 C 
BRANCH  33  36
ATOM     35  O   UNL     1      23.414  26.838   3.143  0.00  0.00    +0.000 OA
ATOM     36  C   UNL     1      23.847  25.706   2.336  0.00  0.00    +0.000 C 
ATOM     37  C   UNL     1      24.254  25.898   3.812  0.00  0.00    +0.000 C 
ATOM     38  C   UNL     1      24.919  26.011   1.229  0.00  0.00    +0.000 C 
ATOM     39  C   UNL     1      25.556  26.422   4.066  0.00  0.00    +0.000 C 
ATOM     40  C   UNL     1      26.078  26.600   1.905  0.00  0.00    +0.000 C 
ATOM     41  C   UNL     1      26.576  26.847   3.199  0.00  0.00    +0.000 C 
ATOM     42  C   UNL     1      23.561  25.192   4.980  0.00  0.00    +0.000 C 
ATOM     43  C   UNL     1      24.236  26.963   0.221  0.00  0.00    +0.000 C 
ATOM     44  C   UNL     1      25.278  24.638   0.605  0.00  0.00    +0.000 C 
BRANCH  41  45
ATOM     45  O   UNL     1      27.899  26.702   3.489  0.00  0.00    +0.000 OA
ATOM     46  H   UNL     1      28.257  27.462   3.982  0.00  0.00    +0.000 HD
ENDBRANCH  41  45
ENDBRANCH  33  36
ENDBRANCH  31  34
ENDBRANCH  30  31
ENDBRANCH  28  30
ENDBRANCH  26  29
ENDBRANCH  25  26
ENDBRANCH   1  25
TORSDOF 16
ENDMDL
MODEL 8
REMARK VINA RESULT:      -5.7      8.689     11.222
REMARK  Name = 448438_Violaxanthin.pdbqt.pdb
REMARK  16 active torsions:
REMARK  status: ('A' for Active; 'I' for Inactive)
REMARK    1  A    between atoms: C_1  and  C_5
REMARK    2  A    between atoms: C_2  and  C_27
REMARK    3  A    between atoms: C_3  and  C_5
REMARK    4  A    between atoms: C_3  and  C_7
REMARK    5  A    between atoms: C_6  and  C_10
REMARK    6  A    between atoms: C_8  and  C_10
REMARK    7  A    between atoms: C_8  and  C_12
REMARK    8  A    between atoms: C_11  and  C_14
REMARK    9  A    between atoms: C_19  and  O_23
REMARK   10  A    between atoms: C_25  and  C_27
REMARK   11  A    between atoms: C_25  and  C_29
REMARK   12  A    between atoms: C_28  and  C_32
REMARK   13  A    between atoms: C_30  and  C_32
REMARK   14  A    between atoms: C_30  and  C_34
REMARK   15  A    between atoms: C_33  and  C_36
REMARK   16  A    between atoms: C_41  and  O_45
REMARK                            x       y       z     vdW  Elec       q    Type
REMARK                         _______ _______ _______ _____ _____    ______ ____
ROOT
ATOM      1  C   UNL     1      52.945   1.485   8.490  0.00  0.00    +0.000 C 
ATOM      2  C   UNL     1      52.327   0.488   8.743  0.00  0.00    +0.000 C 
ENDROOT
BRANCH   2   3
ATOM      3  C   UNL     1      51.539  -0.787   9.064  0.00  0.00    +0.000 C 
BRANCH   3   4
ATOM      4  C   UNL     1      50.870  -1.864   9.334  0.00  0.00    +0.000 C 
ATOM      5  C   UNL     1      51.488  -3.207   9.083  0.00  0.00    +0.000 C 
BRANCH   4   7
ATOM      6  C   UNL     1      48.406  -1.694  10.193  0.00  0.00    +0.000 C 
ATOM      7  C   UNL     1      49.538  -1.772   9.798  0.00  0.00    +0.000 C 
BRANCH   6   8
ATOM      8  C   UNL     1      46.961  -1.594  10.699  0.00  0.00    +0.000 C 
BRANCH   8   9
ATOM      9  C   UNL     1      45.741  -1.511  11.130  0.00  0.00    +0.000 C 
ATOM     10  C   UNL     1      45.115  -0.168  11.348  0.00  0.00    +0.000 C 
BRANCH   9  12
ATOM     11  C   UNL     1      44.310  -3.689  11.403  0.00  0.00    +0.000 C 
ATOM     12  C   UNL     1      44.963  -2.687  11.275  0.00  0.00    +0.000 C 
BRANCH  11  14
ATOM     13  O   UNL     1      44.200  -5.775  12.536  0.00  0.00    +0.000 OA
ATOM     14  C   UNL     1      43.538  -4.911  11.571  0.00  0.00    +0.000 C 
ATOM     15  C   UNL     1      42.940  -5.250  12.953  0.00  0.00    +0.000 C 
ATOM     16  C   UNL     1      42.924  -5.614  10.313  0.00  0.00    +0.000 C 
ATOM     17  C   UNL     1      41.926  -6.251  12.990  0.00  0.00    +0.000 C 
ATOM     18  C   UNL     1      41.988  -6.639  10.796  0.00  0.00    +0.000 C 
ATOM     19  C   UNL     1      41.365  -7.060  11.987  0.00  0.00    +0.000 C 
ATOM     20  C   UNL     1      43.041  -4.310  14.158  0.00  0.00    +0.000 C 
ATOM     21  C   UNL     1      42.160  -4.512   9.540  0.00  0.00    +0.000 C 
ATOM     22  C   UNL     1      44.107  -6.201   9.514  0.00  0.00    +0.000 C 
BRANCH  19  23
ATOM     23  O   UNL     1      41.029  -8.358  12.222  0.00  0.00    +0.000 OA
ATOM     24  H   UNL     1      41.257  -8.946  11.480  0.00  0.00    +0.000 HD
ENDBRANCH  19  23
ENDBRANCH  11  14
ENDBRANCH   9  12
ENDBRANCH   8   9
ENDBRANCH   6   8
ENDBRANCH   4   7
ENDBRANCH   3   4
ENDBRANCH   2   3
BRANCH   1  25
ATOM     25  C   UNL     1      53.734   2.760   8.167  0.00  0.00    +0.000 C 
BRANCH  25  26
ATOM     26  C   UNL     1      54.401   3.837   7.895  0.00  0.00    +0.000 C 
ATOM     27  C   UNL     1      55.221   3.909   6.642  0.00  0.00    +0.000 C 
BRANCH  26  29
ATOM     28  C   UNL     1      54.277   5.898   9.499  0.00  0.00    +0.000 C 
ATOM     29  C   UNL     1      54.334   4.950   8.764  0.00  0.00    +0.000 C 
BRANCH  28  30
ATOM     30  C   UNL     1      54.207   7.113  10.433  0.00  0.00    +0.000 C 
BRANCH  30  31
ATOM     31  C   UNL     1      54.145   8.137  11.225  0.00  0.00    +0.000 C 
ATOM     32  C   UNL     1      55.298   8.454  12.127  0.00  0.00    +0.000 C 
BRANCH  31  34
ATOM     33  C   UNL     1      52.038   9.695  11.179  0.00  0.00    +0.000 C 
ATOM     34  C   UNL     1      53.007   8.981  11.203  0.00  0.00    +0.000 C 
BRANCH  33  36
ATOM     35  O   UNL     1      49.826   9.937  10.333  0.00  0.00    +0.000 OA
ATOM     36  C   UNL     1      50.864  10.553  11.148  0.00  0.00    +0.000 C 
ATOM     37  C   UNL     1      49.528  10.039  11.724  0.00  0.00    +0.000 C 
ATOM     38  C   UNL     1      51.048  12.104  10.982  0.00  0.00    +0.000 C 
ATOM     39  C   UNL     1      48.516  11.010  11.990  0.00  0.00    +0.000 C 
ATOM     40  C   UNL     1      49.757  12.725  11.287  0.00  0.00    +0.000 C 
ATOM     41  C   UNL     1      48.483  12.401  11.793  0.00  0.00    +0.000 C 
ATOM     42  C   UNL     1      49.368   8.680  12.410  0.00  0.00    +0.000 C 
ATOM     43  C   UNL     1      51.519  12.327   9.527  0.00  0.00    +0.000 C 
ATOM     44  C   UNL     1      52.120  12.511  12.026  0.00  0.00    +0.000 C 
BRANCH  41  45
ATOM     45  O   UNL     1      47.813  13.248  12.623  0.00  0.00    +0.000 OA
ATOM     46  H   UNL     1      47.158  12.785  13.176  0.00  0.00    +0.000 HD
ENDBRANCH  41  45
ENDBRANCH  33  36
ENDBRANCH  31  34
ENDBRANCH  30  31
ENDBRANCH  28  30
ENDBRANCH  26  29
ENDBRANCH  25  26
ENDBRANCH   1  25
TORSDOF 16
ENDMDL
MODEL 9
REMARK VINA RESULT:      -5.6     17.854     21.423
REMARK  Name = 448438_Violaxanthin.pdbqt.pdb
REMARK  16 active torsions:
REMARK  status: ('A' for Active; 'I' for Inactive)
REMARK    1  A    between atoms: C_1  and  C_5
REMARK    2  A    between atoms: C_2  and  C_27
REMARK    3  A    between atoms: C_3  and  C_5
REMARK    4  A    between atoms: C_3  and  C_7
REMARK    5  A    between atoms: C_6  and  C_10
REMARK    6  A    between atoms: C_8  and  C_10
REMARK    7  A    between atoms: C_8  and  C_12
REMARK    8  A    between atoms: C_11  and  C_14
REMARK    9  A    between atoms: C_19  and  O_23
REMARK   10  A    between atoms: C_25  and  C_27
REMARK   11  A    between atoms: C_25  and  C_29
REMARK   12  A    between atoms: C_28  and  C_32
REMARK   13  A    between atoms: C_30  and  C_32
REMARK   14  A    between atoms: C_30  and  C_34
REMARK   15  A    between atoms: C_33  and  C_36
REMARK   16  A    between atoms: C_41  and  O_45
REMARK                            x       y       z     vdW  Elec       q    Type
REMARK                         _______ _______ _______ _____ _____    ______ ____
ROOT
ATOM      1  C   UNL     1      31.075   3.155  36.509  0.00  0.00    +0.000 C 
ATOM      2  C   UNL     1      30.767   2.004  36.370  0.00  0.00    +0.000 C 
ENDROOT
BRANCH   2   3
ATOM      3  C   UNL     1      30.370   0.534  36.191  0.00  0.00    +0.000 C 
BRANCH   3   4
ATOM      4  C   UNL     1      30.035  -0.708  36.038  0.00  0.00    +0.000 C 
ATOM      5  C   UNL     1      30.775  -1.778  36.783  0.00  0.00    +0.000 C 
BRANCH   4   7
ATOM      6  C   UNL     1      28.156  -1.355  34.336  0.00  0.00    +0.000 C 
ATOM      7  C   UNL     1      29.019  -1.058  35.118  0.00  0.00    +0.000 C 
BRANCH   6   8
ATOM      8  C   UNL     1      27.053  -1.733  33.340  0.00  0.00    +0.000 C 
BRANCH   8   9
ATOM      9  C   UNL     1      26.122  -2.055  32.496  0.00  0.00    +0.000 C 
ATOM     10  C   UNL     1      24.688  -1.777  32.825  0.00  0.00    +0.000 C 
BRANCH   9  12
ATOM     11  C   UNL     1      26.761  -2.982  30.131  0.00  0.00    +0.000 C 
ATOM     12  C   UNL     1      26.473  -2.556  31.217  0.00  0.00    +0.000 C 
BRANCH  11  14
ATOM     13  O   UNL     1      26.084  -4.482  28.416  0.00  0.00    +0.000 OA
ATOM     14  C   UNL     1      27.088  -3.506  28.813  0.00  0.00    +0.000 C 
ATOM     15  C   UNL     1      26.107  -3.284  27.642  0.00  0.00    +0.000 C 
ATOM     16  C   UNL     1      28.575  -3.857  28.469  0.00  0.00    +0.000 C 
ATOM     17  C   UNL     1      26.612  -3.504  26.326  0.00  0.00    +0.000 C 
ATOM     18  C   UNL     1      28.647  -4.093  27.020  0.00  0.00    +0.000 C 
ATOM     19  C   UNL     1      27.862  -3.943  25.860  0.00  0.00    +0.000 C 
ATOM     20  C   UNL     1      24.829  -2.451  27.771  0.00  0.00    +0.000 C 
ATOM     21  C   UNL     1      29.406  -2.608  28.851  0.00  0.00    +0.000 C 
ATOM     22  C   UNL     1      28.940  -5.102  29.305  0.00  0.00    +0.000 C 
BRANCH  19  23
ATOM     23  O   UNL     1      27.973  -4.773  24.786  0.00  0.00    +0.000 OA
ATOM     24  H   UNL     1      27.142  -5.238  24.583  0.00  0.00    +0.000 HD
ENDBRANCH  19  23
ENDBRANCH  11  14
ENDBRANCH   9  12
ENDBRANCH   8   9
ENDBRANCH   6   8
ENDBRANCH   4   7
ENDBRANCH   3   4
ENDBRANCH   2   3
BRANCH   1  25
ATOM     25  C   UNL     1      31.471   4.626  36.688  0.00  0.00    +0.000 C 
BRANCH  25  26
ATOM     26  C   UNL     1      31.805   5.869  36.839  0.00  0.00    +0.000 C 
ATOM     27  C   UNL     1      30.760   6.885  37.191  0.00  0.00    +0.000 C 
BRANCH  26  29
ATOM     28  C   UNL     1      34.303   6.596  36.576  0.00  0.00    +0.000 C 
ATOM     29  C   UNL     1      33.157   6.261  36.698  0.00  0.00    +0.000 C 
BRANCH  28  30
ATOM     30  C   UNL     1      35.767   7.028  36.414  0.00  0.00    +0.000 C 
BRANCH  30  31
ATOM     31  C   UNL     1      37.004   7.390  36.281  0.00  0.00    +0.000 C 
ATOM     32  C   UNL     1      38.097   6.536  36.849  0.00  0.00    +0.000 C 
BRANCH  31  34
ATOM     33  C   UNL     1      37.595   9.566  34.946  0.00  0.00    +0.000 C 
ATOM     34  C   UNL     1      37.324   8.565  35.556  0.00  0.00    +0.000 C 
BRANCH  33  36
ATOM     35  O   UNL     1      38.128  11.878  35.147  0.00  0.00    +0.000 OA
ATOM     36  C   UNL     1      37.926  10.779  34.213  0.00  0.00    +0.000 C 
ATOM     37  C   UNL     1      39.293  11.458  34.440  0.00  0.00    +0.000 C 
ATOM     38  C   UNL     1      37.142  11.120  32.896  0.00  0.00    +0.000 C 
ATOM     39  C   UNL     1      39.712  12.418  33.472  0.00  0.00    +0.000 C 
ATOM     40  C   UNL     1      37.874  12.199  32.229  0.00  0.00    +0.000 C 
ATOM     41  C   UNL     1      39.085  12.913  32.316  0.00  0.00    +0.000 C 
ATOM     42  C   UNL     1      40.382  10.888  35.353  0.00  0.00    +0.000 C 
ATOM     43  C   UNL     1      35.714  11.515  33.338  0.00  0.00    +0.000 C 
ATOM     44  C   UNL     1      37.167   9.823  32.047  0.00  0.00    +0.000 C 
BRANCH  41  45
ATOM     45  O   UNL     1      39.775  13.276  31.200  0.00  0.00    +0.000 OA
ATOM     46  H   UNL     1      39.522  12.752  30.419  0.00  0.00    +0.000 HD
ENDBRANCH  41  45
ENDBRANCH  33  36
ENDBRANCH  31  34
ENDBRANCH  30  31
ENDBRANCH  28  30
ENDBRANCH  26  29
ENDBRANCH  25  26
ENDBRANCH   1  25
TORSDOF 16
ENDMDL
