MODEL 1
REMARK VINA RESULT:     -10.1      0.000      0.000
REMARK  Name = 490561_Nocardiopsis.pdbqt.pdb
REMARK  3 active torsions:
REMARK  status: ('A' for Active; 'I' for Inactive)
REMARK    1  A    between atoms: C_7  and  O_32
REMARK    2  A    between atoms: C_7  and  C_35
REMARK    3  A    between atoms: C_35  and  O_36
REMARK                            x       y       z     vdW  Elec       q    Type
REMARK                         _______ _______ _______ _____ _____    ______ ____
ROOT
ATOM      1  O   UNL     1      45.436  -4.229  13.091  0.00  0.00    +0.000 OA
ATOM      2  O   UNL     1      48.729   2.128  10.750  0.00  0.00    +0.000 OA
ATOM      3  N   UNL     1      44.168  -2.234  13.117  0.00  0.00    +0.000 N 
ATOM      4  N   UNL     1      46.576  -2.976  11.486  0.00  0.00    +0.000 N 
ATOM      5  N   UNL     1      46.925   2.942  11.965  0.00  0.00    +0.000 N 
ATOM      6  C   UNL     1      44.062  -3.706  13.060  0.00  0.00    +0.000 C 
ATOM      7  C   UNL     1      43.476  -4.242  11.683  0.00  0.00    +0.000 C 
ATOM      8  C   UNL     1      45.871  -4.136  11.757  0.00  0.00    +0.000 C 
ATOM      9  C   UNL     1      44.733  -4.392  10.955  0.00  0.00    +0.000 C 
ATOM     10  C   UNL     1      45.154  -1.387  12.677  0.00  0.00    +0.000 A 
ATOM     11  C   UNL     1      46.284  -1.724  11.933  0.00  0.00    +0.000 A 
ATOM     12  C   UNL     1      45.020  -0.013  12.899  0.00  0.00    +0.000 A 
ATOM     13  C   UNL     1      47.085  -0.648  11.532  0.00  0.00    +0.000 A 
ATOM     14  C   UNL     1      43.370  -4.297  14.333  0.00  0.00    +0.000 C 
ATOM     15  C   UNL     1      43.243  -1.284  13.618  0.00  0.00    +0.000 A 
ATOM     16  C   UNL     1      47.672  -2.697  10.650  0.00  0.00    +0.000 A 
ATOM     17  C   UNL     1      43.761   0.062  13.521  0.00  0.00    +0.000 A 
ATOM     18  C   UNL     1      45.818   1.078  12.528  0.00  0.00    +0.000 A 
ATOM     19  C   UNL     1      46.974   0.738  11.763  0.00  0.00    +0.000 A 
ATOM     20  C   UNL     1      48.014  -1.292  10.685  0.00  0.00    +0.000 A 
ATOM     21  C   UNL     1      45.820   2.559  12.639  0.00  0.00    +0.000 C 
ATOM     22  C   UNL     1      41.963  -1.503  14.153  0.00  0.00    +0.000 A 
ATOM     23  C   UNL     1      47.706   1.929  11.388  0.00  0.00    +0.000 C 
ATOM     24  C   UNL     1      48.408  -3.597   9.864  0.00  0.00    +0.000 A 
ATOM     25  C   UNL     1      42.962   1.125  13.987  0.00  0.00    +0.000 A 
ATOM     26  C   UNL     1      49.099  -0.859   9.898  0.00  0.00    +0.000 A 
ATOM     27  C   UNL     1      41.211  -0.418  14.603  0.00  0.00    +0.000 A 
ATOM     28  C   UNL     1      41.701   0.875  14.529  0.00  0.00    +0.000 A 
ATOM     29  C   UNL     1      49.477  -3.113   9.110  0.00  0.00    +0.000 A 
ATOM     30  C   UNL     1      49.819  -1.769   9.125  0.00  0.00    +0.000 A 
ATOM     31  H   UNL     1      47.194   3.909  11.868  0.00  0.00    +0.000 HD
ENDROOT
BRANCH   7  32
ATOM     32  O   UNL     1      42.640  -3.310  10.980  0.00  0.00    +0.000 OA
ATOM     33  H   UNL     1      41.723  -3.660  11.013  0.00  0.00    +0.000 HD
ENDBRANCH   7  32
BRANCH   7  35
ATOM     34  O   UNL     1      43.345  -6.544  12.351  0.00  0.00    +0.000 OA
ATOM     35  C   UNL     1      42.760  -5.580  11.852  0.00  0.00    +0.000 C 
BRANCH  35  36
ATOM     36  O   UNL     1      41.457  -5.511  11.445  0.00  0.00    +0.000 OA
ATOM     37  C   UNL     1      41.073  -6.303  10.354  0.00  0.00    +0.000 C 
ENDBRANCH  35  36
ENDBRANCH   7  35
TORSDOF 3
ENDMDL
MODEL 2
REMARK VINA RESULT:      -9.7      2.224      6.322
REMARK  Name = 490561_Nocardiopsis.pdbqt.pdb
REMARK  3 active torsions:
REMARK  status: ('A' for Active; 'I' for Inactive)
REMARK    1  A    between atoms: C_7  and  O_32
REMARK    2  A    between atoms: C_7  and  C_35
REMARK    3  A    between atoms: C_35  and  O_36
REMARK                            x       y       z     vdW  Elec       q    Type
REMARK                         _______ _______ _______ _____ _____    ______ ____
ROOT
ATOM      1  O   UNL     1      44.478  -2.006  14.565  0.00  0.00    +0.000 OA
ATOM      2  O   UNL     1      46.422  -7.430   9.713  0.00  0.00    +0.000 OA
ATOM      3  N   UNL     1      45.877  -1.435  12.746  0.00  0.00    +0.000 N 
ATOM      4  N   UNL     1      43.940  -3.706  13.061  0.00  0.00    +0.000 N 
ATOM      5  N   UNL     1      48.032  -5.810   9.291  0.00  0.00    +0.000 N 
ATOM      6  C   UNL     1      44.909  -0.884  13.716  0.00  0.00    +0.000 C 
ATOM      7  C   UNL     1      43.564  -0.374  13.041  0.00  0.00    +0.000 C 
ATOM      8  C   UNL     1      43.474  -2.643  13.814  0.00  0.00    +0.000 C 
ATOM      9  C   UNL     1      42.797  -1.615  13.114  0.00  0.00    +0.000 C 
ATOM     10  C   UNL     1      45.989  -2.690  12.203  0.00  0.00    +0.000 A 
ATOM     11  C   UNL     1      45.104  -3.757  12.355  0.00  0.00    +0.000 A 
ATOM     12  C   UNL     1      47.043  -2.961  11.325  0.00  0.00    +0.000 A 
ATOM     13  C   UNL     1      45.407  -4.904  11.613  0.00  0.00    +0.000 A 
ATOM     14  C   UNL     1      45.573   0.139  14.695  0.00  0.00    +0.000 C 
ATOM     15  C   UNL     1      46.947  -0.790  12.077  0.00  0.00    +0.000 A 
ATOM     16  C   UNL     1      43.377  -4.947  12.709  0.00  0.00    +0.000 A 
ATOM     17  C   UNL     1      47.680  -1.710  11.238  0.00  0.00    +0.000 A 
ATOM     18  C   UNL     1      47.380  -4.105  10.590  0.00  0.00    +0.000 A 
ATOM     19  C   UNL     1      46.474  -5.198  10.740  0.00  0.00    +0.000 A 
ATOM     20  C   UNL     1      44.265  -5.701  11.851  0.00  0.00    +0.000 A 
ATOM     21  C   UNL     1      48.404  -4.553   9.612  0.00  0.00    +0.000 C 
ATOM     22  C   UNL     1      47.332   0.560  12.137  0.00  0.00    +0.000 A 
ATOM     23  C   UNL     1      46.877  -6.312   9.909  0.00  0.00    +0.000 C 
ATOM     24  C   UNL     1      42.138  -5.474  13.102  0.00  0.00    +0.000 A 
ATOM     25  C   UNL     1      48.784  -1.222  10.510  0.00  0.00    +0.000 A 
ATOM     26  C   UNL     1      43.839  -6.972  11.418  0.00  0.00    +0.000 A 
ATOM     27  C   UNL     1      48.433   0.994  11.399  0.00  0.00    +0.000 A 
ATOM     28  C   UNL     1      49.153   0.119  10.602  0.00  0.00    +0.000 A 
ATOM     29  C   UNL     1      41.771  -6.740  12.647  0.00  0.00    +0.000 A 
ATOM     30  C   UNL     1      42.605  -7.479  11.821  0.00  0.00    +0.000 A 
ATOM     31  H   UNL     1      48.547  -6.379   8.636  0.00  0.00    +0.000 HD
ENDROOT
BRANCH   7  32
ATOM     32  O   UNL     1      43.689   0.015  11.665  0.00  0.00    +0.000 OA
ATOM     33  H   UNL     1      42.834  -0.187  11.226  0.00  0.00    +0.000 HD
ENDBRANCH   7  32
BRANCH   7  35
ATOM     34  O   UNL     1      43.140   1.924  13.593  0.00  0.00    +0.000 OA
ATOM     35  C   UNL     1      42.908   0.741  13.853  0.00  0.00    +0.000 C 
BRANCH  35  36
ATOM     36  O   UNL     1      42.050   0.244  14.794  0.00  0.00    +0.000 OA
ATOM     37  C   UNL     1      40.682   0.501  14.629  0.00  0.00    +0.000 C 
ENDBRANCH  35  36
ENDBRANCH   7  35
TORSDOF 3
ENDMDL
MODEL 3
REMARK VINA RESULT:      -9.2      3.361      6.685
REMARK  Name = 490561_Nocardiopsis.pdbqt.pdb
REMARK  3 active torsions:
REMARK  status: ('A' for Active; 'I' for Inactive)
REMARK    1  A    between atoms: C_7  and  O_32
REMARK    2  A    between atoms: C_7  and  C_35
REMARK    3  A    between atoms: C_35  and  O_36
REMARK                            x       y       z     vdW  Elec       q    Type
REMARK                         _______ _______ _______ _____ _____    ______ ____
ROOT
ATOM      1  O   UNL     1      46.575  -2.928  11.732  0.00  0.00    +0.000 OA
ATOM      2  O   UNL     1      49.398  -9.206   8.675  0.00  0.00    +0.000 OA
ATOM      3  N   UNL     1      45.066  -4.583  10.976  0.00  0.00    +0.000 N 
ATOM      4  N   UNL     1      47.938  -4.819  11.814  0.00  0.00    +0.000 N 
ATOM      5  N   UNL     1      47.208  -9.238   7.901  0.00  0.00    +0.000 N 
ATOM      6  C   UNL     1      45.210  -3.447  11.909  0.00  0.00    +0.000 C 
ATOM      7  C   UNL     1      45.158  -3.880  13.438  0.00  0.00    +0.000 C 
ATOM      8  C   UNL     1      47.372  -3.773  12.523  0.00  0.00    +0.000 C 
ATOM      9  C   UNL     1      46.583  -4.119  13.647  0.00  0.00    +0.000 C 
ATOM     10  C   UNL     1      45.995  -5.463  10.480  0.00  0.00    +0.000 A 
ATOM     11  C   UNL     1      47.335  -5.570  10.852  0.00  0.00    +0.000 A 
ATOM     12  C   UNL     1      45.590  -6.436   9.562  0.00  0.00    +0.000 A 
ATOM     13  C   UNL     1      48.043  -6.621  10.257  0.00  0.00    +0.000 A 
ATOM     14  C   UNL     1      44.266  -2.256  11.539  0.00  0.00    +0.000 C 
ATOM     15  C   UNL     1      43.898  -5.098  10.360  0.00  0.00    +0.000 A 
ATOM     16  C   UNL     1      49.179  -5.476  11.907  0.00  0.00    +0.000 A 
ATOM     17  C   UNL     1      44.206  -6.200   9.477  0.00  0.00    +0.000 A 
ATOM     18  C   UNL     1      46.284  -7.480   8.937  0.00  0.00    +0.000 A 
ATOM     19  C   UNL     1      47.655  -7.596   9.316  0.00  0.00    +0.000 A 
ATOM     20  C   UNL     1      49.272  -6.556  10.950  0.00  0.00    +0.000 A 
ATOM     21  C   UNL     1      46.024  -8.596   7.993  0.00  0.00    +0.000 C 
ATOM     22  C   UNL     1      42.565  -4.681  10.518  0.00  0.00    +0.000 A 
ATOM     23  C   UNL     1      48.273  -8.727   8.658  0.00  0.00    +0.000 C 
ATOM     24  C   UNL     1      50.247  -5.182  12.768  0.00  0.00    +0.000 A 
ATOM     25  C   UNL     1      43.149  -6.819   8.779  0.00  0.00    +0.000 A 
ATOM     26  C   UNL     1      50.464  -7.307  10.921  0.00  0.00    +0.000 A 
ATOM     27  C   UNL     1      41.555  -5.324   9.804  0.00  0.00    +0.000 A 
ATOM     28  C   UNL     1      41.839  -6.372   8.943  0.00  0.00    +0.000 A 
ATOM     29  C   UNL     1      51.405  -5.955  12.689  0.00  0.00    +0.000 A 
ATOM     30  C   UNL     1      51.516  -6.999  11.782  0.00  0.00    +0.000 A 
ATOM     31  H   UNL     1      47.341 -10.053   7.321  0.00  0.00    +0.000 HD
ENDROOT
BRANCH   7  32
ATOM     32  O   UNL     1      44.440  -5.095  13.697  0.00  0.00    +0.000 OA
ATOM     33  H   UNL     1      45.014  -5.839  13.410  0.00  0.00    +0.000 HD
ENDBRANCH   7  32
BRANCH   7  35
ATOM     34  O   UNL     1      43.448  -2.701  14.643  0.00  0.00    +0.000 OA
ATOM     35  C   UNL     1      44.640  -2.753  14.330  0.00  0.00    +0.000 C 
BRANCH  35  36
ATOM     36  O   UNL     1      45.647  -1.921  14.731  0.00  0.00    +0.000 OA
ATOM     37  C   UNL     1      45.553  -0.567  14.380  0.00  0.00    +0.000 C 
ENDBRANCH  35  36
ENDBRANCH   7  35
TORSDOF 3
ENDMDL
MODEL 4
REMARK VINA RESULT:      -9.0      1.619      5.084
REMARK  Name = 490561_Nocardiopsis.pdbqt.pdb
REMARK  3 active torsions:
REMARK  status: ('A' for Active; 'I' for Inactive)
REMARK    1  A    between atoms: C_7  and  O_32
REMARK    2  A    between atoms: C_7  and  C_35
REMARK    3  A    between atoms: C_35  and  O_36
REMARK                            x       y       z     vdW  Elec       q    Type
REMARK                         _______ _______ _______ _____ _____    ______ ____
ROOT
ATOM      1  O   UNL     1      43.081  -3.170  11.026  0.00  0.00    +0.000 OA
ATOM      2  O   UNL     1      48.965   1.525  11.297  0.00  0.00    +0.000 OA
ATOM      3  N   UNL     1      45.257  -4.092  10.940  0.00  0.00    +0.000 N 
ATOM      4  N   UNL     1      44.308  -1.471  12.052  0.00  0.00    +0.000 N 
ATOM      5  N   UNL     1      49.927  -0.399  10.422  0.00  0.00    +0.000 N 
ATOM      6  C   UNL     1      43.853  -4.394  11.290  0.00  0.00    +0.000 C 
ATOM      7  C   UNL     1      43.637  -4.660  12.841  0.00  0.00    +0.000 C 
ATOM      8  C   UNL     1      43.276  -2.384  12.176  0.00  0.00    +0.000 C 
ATOM      9  C   UNL     1      43.355  -3.291  13.262  0.00  0.00    +0.000 C 
ATOM     10  C   UNL     1      45.955  -2.911  10.966  0.00  0.00    +0.000 A 
ATOM     11  C   UNL     1      45.518  -1.684  11.466  0.00  0.00    +0.000 A 
ATOM     12  C   UNL     1      47.284  -2.896  10.534  0.00  0.00    +0.000 A 
ATOM     13  C   UNL     1      46.468  -0.657  11.458  0.00  0.00    +0.000 A 
ATOM     14  C   UNL     1      43.232  -5.481  10.351  0.00  0.00    +0.000 C 
ATOM     15  C   UNL     1      46.285  -4.967  10.509  0.00  0.00    +0.000 A 
ATOM     16  C   UNL     1      44.489  -0.161  12.534  0.00  0.00    +0.000 A 
ATOM     17  C   UNL     1      47.509  -4.251  10.230  0.00  0.00    +0.000 A 
ATOM     18  C   UNL     1      48.245  -1.878  10.495  0.00  0.00    +0.000 A 
ATOM     19  C   UNL     1      47.804  -0.622  11.009  0.00  0.00    +0.000 A 
ATOM     20  C   UNL     1      45.785   0.360  12.160  0.00  0.00    +0.000 A 
ATOM     21  C   UNL     1      49.669  -1.688  10.116  0.00  0.00    +0.000 C 
ATOM     22  C   UNL     1      46.239  -6.362  10.347  0.00  0.00    +0.000 A 
ATOM     23  C   UNL     1      48.875   0.350  10.971  0.00  0.00    +0.000 C 
ATOM     24  C   UNL     1      43.585   0.618  13.272  0.00  0.00    +0.000 A 
ATOM     25  C   UNL     1      48.628  -4.982   9.782  0.00  0.00    +0.000 A 
ATOM     26  C   UNL     1      46.111   1.668  12.570  0.00  0.00    +0.000 A 
ATOM     27  C   UNL     1      47.372  -7.040   9.899  0.00  0.00    +0.000 A 
ATOM     28  C   UNL     1      48.548  -6.364   9.614  0.00  0.00    +0.000 A 
ATOM     29  C   UNL     1      43.959   1.909  13.644  0.00  0.00    +0.000 A 
ATOM     30  C   UNL     1      45.198   2.428  13.301  0.00  0.00    +0.000 A 
ATOM     31  H   UNL     1      50.830   0.025  10.273  0.00  0.00    +0.000 HD
ENDROOT
BRANCH   7  32
ATOM     32  O   UNL     1      44.798  -5.131  13.541  0.00  0.00    +0.000 OA
ATOM     33  H   UNL     1      45.255  -4.344  13.911  0.00  0.00    +0.000 HD
ENDBRANCH   7  32
BRANCH   7  35
ATOM     34  O   UNL     1      41.319  -5.118  13.266  0.00  0.00    +0.000 OA
ATOM     35  C   UNL     1      42.448  -5.584  13.099  0.00  0.00    +0.000 C 
BRANCH  35  36
ATOM     36  O   UNL     1      42.812  -6.901  13.057  0.00  0.00    +0.000 OA
ATOM     37  C   UNL     1      41.958  -7.792  12.392  0.00  0.00    +0.000 C 
ENDBRANCH  35  36
ENDBRANCH   7  35
TORSDOF 3
ENDMDL
MODEL 5
REMARK VINA RESULT:      -8.9      2.895      7.849
REMARK  Name = 490561_Nocardiopsis.pdbqt.pdb
REMARK  3 active torsions:
REMARK  status: ('A' for Active; 'I' for Inactive)
REMARK    1  A    between atoms: C_7  and  O_32
REMARK    2  A    between atoms: C_7  and  C_35
REMARK    3  A    between atoms: C_35  and  O_36
REMARK                            x       y       z     vdW  Elec       q    Type
REMARK                         _______ _______ _______ _____ _____    ______ ____
ROOT
ATOM      1  O   UNL     1      46.057  -2.558  12.172  0.00  0.00    +0.000 OA
ATOM      2  O   UNL     1      45.120  -9.124   8.603  0.00  0.00    +0.000 OA
ATOM      3  N   UNL     1      47.870  -3.428  10.929  0.00  0.00    +0.000 N 
ATOM      4  N   UNL     1      44.924  -3.935  10.667  0.00  0.00    +0.000 N 
ATOM      5  N   UNL     1      47.434  -8.950   8.685  0.00  0.00    +0.000 N 
ATOM      6  C   UNL     1      47.292  -2.180  11.469  0.00  0.00    +0.000 C 
ATOM      7  C   UNL     1      46.801  -1.175  10.340  0.00  0.00    +0.000 C 
ATOM      8  C   UNL     1      45.093  -2.650  11.152  0.00  0.00    +0.000 C 
ATOM      9  C   UNL     1      45.427  -1.651  10.206  0.00  0.00    +0.000 C 
ATOM     10  C   UNL     1      47.272  -4.595  10.528  0.00  0.00    +0.000 A 
ATOM     11  C   UNL     1      45.904  -4.847  10.418  0.00  0.00    +0.000 A 
ATOM     12  C   UNL     1      48.071  -5.655  10.089  0.00  0.00    +0.000 A 
ATOM     13  C   UNL     1      45.561  -6.096   9.890  0.00  0.00    +0.000 A 
ATOM     14  C   UNL     1      48.204  -1.532  12.562  0.00  0.00    +0.000 C 
ATOM     15  C   UNL     1      49.223  -3.743  10.643  0.00  0.00    +0.000 A 
ATOM     16  C   UNL     1      43.798  -4.643  10.208  0.00  0.00    +0.000 A 
ATOM     17  C   UNL     1      49.361  -5.099  10.164  0.00  0.00    +0.000 A 
ATOM     18  C   UNL     1      47.752  -6.921   9.581  0.00  0.00    +0.000 A 
ATOM     19  C   UNL     1      46.354  -7.181   9.462  0.00  0.00    +0.000 A 
ATOM     20  C   UNL     1      44.161  -5.968   9.757  0.00  0.00    +0.000 A 
ATOM     21  C   UNL     1      48.439  -8.125   9.049  0.00  0.00    +0.000 C 
ATOM     22  C   UNL     1      50.358  -2.924  10.762  0.00  0.00    +0.000 A 
ATOM     23  C   UNL     1      46.124  -8.488   8.886  0.00  0.00    +0.000 C 
ATOM     24  C   UNL     1      42.464  -4.209  10.170  0.00  0.00    +0.000 A 
ATOM     25  C   UNL     1      50.650  -5.571   9.843  0.00  0.00    +0.000 A 
ATOM     26  C   UNL     1      43.134  -6.801   9.270  0.00  0.00    +0.000 A 
ATOM     27  C   UNL     1      51.613  -3.437  10.434  0.00  0.00    +0.000 A 
ATOM     28  C   UNL     1      51.761  -4.741   9.987  0.00  0.00    +0.000 A 
ATOM     29  C   UNL     1      41.489  -5.080   9.684  0.00  0.00    +0.000 A 
ATOM     30  C   UNL     1      41.814  -6.354   9.242  0.00  0.00    +0.000 A 
ATOM     31  H   UNL     1      47.596  -9.861   8.283  0.00  0.00    +0.000 HD
ENDROOT
BRANCH   7  32
ATOM     32  O   UNL     1      47.467  -1.316   9.076  0.00  0.00    +0.000 OA
ATOM     33  H   UNL     1      47.149  -2.153   8.671  0.00  0.00    +0.000 HD
ENDBRANCH   7  32
BRANCH   7  35
ATOM     34  O   UNL     1      47.848   0.970  10.595  0.00  0.00    +0.000 OA
ATOM     35  C   UNL     1      46.851   0.277  10.810  0.00  0.00    +0.000 C 
BRANCH  35  36
ATOM     36  O   UNL     1      45.681   0.656  11.406  0.00  0.00    +0.000 OA
ATOM     37  C   UNL     1      45.761   1.513  12.512  0.00  0.00    +0.000 C 
ENDBRANCH  35  36
ENDBRANCH   7  35
TORSDOF 3
ENDMDL
MODEL 6
REMARK VINA RESULT:      -8.8      1.465      5.105
REMARK  Name = 490561_Nocardiopsis.pdbqt.pdb
REMARK  3 active torsions:
REMARK  status: ('A' for Active; 'I' for Inactive)
REMARK    1  A    between atoms: C_7  and  O_32
REMARK    2  A    between atoms: C_7  and  C_35
REMARK    3  A    between atoms: C_35  and  O_36
REMARK                            x       y       z     vdW  Elec       q    Type
REMARK                         _______ _______ _______ _____ _____    ______ ____
ROOT
ATOM      1  O   UNL     1      42.718  -1.945  11.887  0.00  0.00    +0.000 OA
ATOM      2  O   UNL     1      47.562   3.705  13.043  0.00  0.00    +0.000 OA
ATOM      3  N   UNL     1      45.008  -2.320  11.432  0.00  0.00    +0.000 N 
ATOM      4  N   UNL     1      43.696  -0.325  13.251  0.00  0.00    +0.000 N 
ATOM      5  N   UNL     1      48.777   2.313  11.636  0.00  0.00    +0.000 N 
ATOM      6  C   UNL     1      43.739  -2.998  11.771  0.00  0.00    +0.000 C 
ATOM      7  C   UNL     1      43.755  -3.678  13.208  0.00  0.00    +0.000 C 
ATOM      8  C   UNL     1      42.884  -1.444  13.190  0.00  0.00    +0.000 C 
ATOM      9  C   UNL     1      43.260  -2.549  13.991  0.00  0.00    +0.000 C 
ATOM     10  C   UNL     1      45.460  -1.059  11.728  0.00  0.00    +0.000 A 
ATOM     11  C   UNL     1      44.851  -0.119  12.559  0.00  0.00    +0.000 A 
ATOM     12  C   UNL     1      46.703  -0.649  11.238  0.00  0.00    +0.000 A 
ATOM     13  C   UNL     1      45.575   1.061  12.767  0.00  0.00    +0.000 A 
ATOM     14  C   UNL     1      43.240  -3.929  10.618  0.00  0.00    +0.000 C 
ATOM     15  C   UNL     1      46.132  -2.817  10.726  0.00  0.00    +0.000 A 
ATOM     16  C   UNL     1      43.671   0.832  14.051  0.00  0.00    +0.000 A 
ATOM     17  C   UNL     1      47.152  -1.805  10.575  0.00  0.00    +0.000 A 
ATOM     18  C   UNL     1      47.436   0.532  11.414  0.00  0.00    +0.000 A 
ATOM     19  C   UNL     1      46.819   1.496  12.266  0.00  0.00    +0.000 A 
ATOM     20  C   UNL     1      44.790   1.700  13.753  0.00  0.00    +0.000 A 
ATOM     21  C   UNL     1      48.743   1.115  11.016  0.00  0.00    +0.000 C 
ATOM     22  C   UNL     1      46.341  -4.105  10.204  0.00  0.00    +0.000 A 
ATOM     23  C   UNL     1      47.668   2.657  12.424  0.00  0.00    +0.000 C 
ATOM     24  C   UNL     1      42.722   1.190  15.020  0.00  0.00    +0.000 A 
ATOM     25  C   UNL     1      48.335  -2.140   9.884  0.00  0.00    +0.000 A 
ATOM     26  C   UNL     1      44.898   2.905  14.474  0.00  0.00    +0.000 A 
ATOM     27  C   UNL     1      47.527  -4.387   9.527  0.00  0.00    +0.000 A 
ATOM     28  C   UNL     1      48.508  -3.422   9.363  0.00  0.00    +0.000 A 
ATOM     29  C   UNL     1      42.876   2.399  15.697  0.00  0.00    +0.000 A 
ATOM     30  C   UNL     1      43.943   3.244  15.431  0.00  0.00    +0.000 A 
ATOM     31  H   UNL     1      49.557   2.948  11.551  0.00  0.00    +0.000 HD
ENDROOT
BRANCH   7  32
ATOM     32  O   UNL     1      45.058  -4.041  13.688  0.00  0.00    +0.000 OA
ATOM     33  H   UNL     1      45.222  -3.522  14.506  0.00  0.00    +0.000 HD
ENDBRANCH   7  32
BRANCH   7  35
ATOM     34  O   UNL     1      41.614  -4.709  13.548  0.00  0.00    +0.000 OA
ATOM     35  C   UNL     1      42.807  -4.873  13.281  0.00  0.00    +0.000 C 
BRANCH  35  36
ATOM     36  O   UNL     1      43.442  -6.043  12.970  0.00  0.00    +0.000 OA
ATOM     37  C   UNL     1      42.651  -7.121  12.548  0.00  0.00    +0.000 C 
ENDBRANCH  35  36
ENDBRANCH   7  35
TORSDOF 3
ENDMDL
MODEL 7
REMARK VINA RESULT:      -8.4      3.321      6.478
REMARK  Name = 490561_Nocardiopsis.pdbqt.pdb
REMARK  3 active torsions:
REMARK  status: ('A' for Active; 'I' for Inactive)
REMARK    1  A    between atoms: C_7  and  O_32
REMARK    2  A    between atoms: C_7  and  C_35
REMARK    3  A    between atoms: C_35  and  O_36
REMARK                            x       y       z     vdW  Elec       q    Type
REMARK                         _______ _______ _______ _____ _____    ______ ____
ROOT
ATOM      1  O   UNL     1      48.898  -3.738  11.001  0.00  0.00    +0.000 OA
ATOM      2  O   UNL     1      43.110  -7.597   8.114  0.00  0.00    +0.000 OA
ATOM      3  N   UNL     1      46.761  -3.445  11.968  0.00  0.00    +0.000 N 
ATOM      4  N   UNL     1      47.869  -5.737  10.378  0.00  0.00    +0.000 N 
ATOM      5  N   UNL     1      42.025  -5.908   9.281  0.00  0.00    +0.000 N 
ATOM      6  C   UNL     1      48.210  -3.337  12.237  0.00  0.00    +0.000 C 
ATOM      7  C   UNL     1      48.727  -4.378  13.321  0.00  0.00    +0.000 C 
ATOM      8  C   UNL     1      48.919  -5.143  11.056  0.00  0.00    +0.000 C 
ATOM      9  C   UNL     1      49.065  -5.479  12.424  0.00  0.00    +0.000 C 
ATOM     10  C   UNL     1      46.064  -4.267  11.120  0.00  0.00    +0.000 A 
ATOM     11  C   UNL     1      46.571  -5.324  10.364  0.00  0.00    +0.000 A 
ATOM     12  C   UNL     1      44.676  -4.130  11.026  0.00  0.00    +0.000 A 
ATOM     13  C   UNL     1      45.622  -6.066   9.651  0.00  0.00    +0.000 A 
ATOM     14  C   UNL     1      48.654  -1.859  12.493  0.00  0.00    +0.000 C 
ATOM     15  C   UNL     1      45.682  -2.738  12.555  0.00  0.00    +0.000 A 
ATOM     16  C   UNL     1      47.765  -6.920   9.624  0.00  0.00    +0.000 A 
ATOM     17  C   UNL     1      44.417  -3.120  11.971  0.00  0.00    +0.000 A 
ATOM     18  C   UNL     1      43.710  -4.843  10.303  0.00  0.00    +0.000 A 
ATOM     19  C   UNL     1      44.224  -5.928   9.532  0.00  0.00    +0.000 A 
ATOM     20  C   UNL     1      46.414  -7.124   9.151  0.00  0.00    +0.000 A 
ATOM     21  C   UNL     1      42.238  -4.865  10.111  0.00  0.00    +0.000 C 
ATOM     22  C   UNL     1      45.717  -1.778  13.581  0.00  0.00    +0.000 A 
ATOM     23  C   UNL     1      43.152  -6.631   8.862  0.00  0.00    +0.000 C 
ATOM     24  C   UNL     1      48.783  -7.833   9.308  0.00  0.00    +0.000 A 
ATOM     25  C   UNL     1      43.243  -2.498  12.442  0.00  0.00    +0.000 A 
ATOM     26  C   UNL     1      46.154  -8.270   8.374  0.00  0.00    +0.000 A 
ATOM     27  C   UNL     1      44.528  -1.189  14.011  0.00  0.00    +0.000 A 
ATOM     28  C   UNL     1      43.310  -1.536  13.449  0.00  0.00    +0.000 A 
ATOM     29  C   UNL     1      48.469  -8.947   8.530  0.00  0.00    +0.000 A 
ATOM     30  C   UNL     1      47.179  -9.164   8.069  0.00  0.00    +0.000 A 
ATOM     31  H   UNL     1      41.104  -6.173   8.966  0.00  0.00    +0.000 HD
ENDROOT
BRANCH   7  32
ATOM     32  O   UNL     1      47.730  -4.825  14.252  0.00  0.00    +0.000 OA
ATOM     33  H   UNL     1      47.659  -4.142  14.954  0.00  0.00    +0.000 HD
ENDBRANCH   7  32
BRANCH   7  35
ATOM     34  O   UNL     1      49.838  -3.302  15.158  0.00  0.00    +0.000 OA
ATOM     35  C   UNL     1      49.957  -3.860  14.065  0.00  0.00    +0.000 C 
BRANCH  35  36
ATOM     36  O   UNL     1      51.112  -4.150  13.394  0.00  0.00    +0.000 OA
ATOM     37  C   UNL     1      52.087  -3.146  13.313  0.00  0.00    +0.000 C 
ENDBRANCH  35  36
ENDBRANCH   7  35
TORSDOF 3
ENDMDL
MODEL 8
REMARK VINA RESULT:      -8.3     33.183     36.309
REMARK  Name = 490561_Nocardiopsis.pdbqt.pdb
REMARK  3 active torsions:
REMARK  status: ('A' for Active; 'I' for Inactive)
REMARK    1  A    between atoms: C_7  and  O_32
REMARK    2  A    between atoms: C_7  and  C_35
REMARK    3  A    between atoms: C_35  and  O_36
REMARK                            x       y       z     vdW  Elec       q    Type
REMARK                         _______ _______ _______ _____ _____    ______ ____
ROOT
ATOM      1  O   UNL     1      13.104   3.693  31.018  0.00  0.00    +0.000 OA
ATOM      2  O   UNL     1      14.105  10.194  27.349  0.00  0.00    +0.000 OA
ATOM      3  N   UNL     1      14.457   3.690  29.079  0.00  0.00    +0.000 N 
ATOM      4  N   UNL     1      13.755   5.932  30.947  0.00  0.00    +0.000 N 
ATOM      5  N   UNL     1      14.700   8.636  25.733  0.00  0.00    +0.000 N 
ATOM      6  C   UNL     1      14.191   2.970  30.342  0.00  0.00    +0.000 C 
ATOM      7  C   UNL     1      15.400   3.041  31.372  0.00  0.00    +0.000 C 
ATOM      8  C   UNL     1      13.750   4.755  31.675  0.00  0.00    +0.000 C 
ATOM      9  C   UNL     1      15.010   4.255  32.084  0.00  0.00    +0.000 C 
ATOM     10  C   UNL     1      14.306   5.013  28.751  0.00  0.00    +0.000 A 
ATOM     11  C   UNL     1      13.965   6.061  29.607  0.00  0.00    +0.000 A 
ATOM     12  C   UNL     1      14.596   5.429  27.448  0.00  0.00    +0.000 A 
ATOM     13  C   UNL     1      13.973   7.336  29.033  0.00  0.00    +0.000 A 
ATOM     14  C   UNL     1      13.634   1.530  30.094  0.00  0.00    +0.000 C 
ATOM     15  C   UNL     1      14.982   3.200  27.858  0.00  0.00    +0.000 A 
ATOM     16  C   UNL     1      13.658   7.286  31.317  0.00  0.00    +0.000 A 
ATOM     17  C   UNL     1      15.042   4.236  26.852  0.00  0.00    +0.000 A 
ATOM     18  C   UNL     1      14.588   6.694  26.845  0.00  0.00    +0.000 A 
ATOM     19  C   UNL     1      14.243   7.769  27.718  0.00  0.00    +0.000 A 
ATOM     20  C   UNL     1      13.761   8.154  30.165  0.00  0.00    +0.000 A 
ATOM     21  C   UNL     1      14.888   7.315  25.530  0.00  0.00    +0.000 C 
ATOM     22  C   UNL     1      15.427   1.902  27.552  0.00  0.00    +0.000 A 
ATOM     23  C   UNL     1      14.309   9.035  27.020  0.00  0.00    +0.000 C 
ATOM     24  C   UNL     1      13.470   7.816  32.603  0.00  0.00    +0.000 A 
ATOM     25  C   UNL     1      15.534   3.905  25.574  0.00  0.00    +0.000 A 
ATOM     26  C   UNL     1      13.677   9.544  30.379  0.00  0.00    +0.000 A 
ATOM     27  C   UNL     1      15.905   1.624  26.271  0.00  0.00    +0.000 A 
ATOM     28  C   UNL     1      15.953   2.605  25.294  0.00  0.00    +0.000 A 
ATOM     29  C   UNL     1      13.387   9.200  32.753  0.00  0.00    +0.000 A 
ATOM     30  C   UNL     1      13.487  10.052  31.663  0.00  0.00    +0.000 A 
ATOM     31  H   UNL     1      14.832   9.322  25.006  0.00  0.00    +0.000 HD
ENDROOT
BRANCH   7  32
ATOM     32  O   UNL     1      16.689   3.246  30.775  0.00  0.00    +0.000 OA
ATOM     33  H   UNL     1      17.229   3.758  31.416  0.00  0.00    +0.000 HD
ENDBRANCH   7  32
BRANCH   7  35
ATOM     34  O   UNL     1      14.611   1.724  33.217  0.00  0.00    +0.000 OA
ATOM     35  C   UNL     1      15.428   1.828  32.300  0.00  0.00    +0.000 C 
BRANCH  35  36
ATOM     36  O   UNL     1      16.392   0.932  31.932  0.00  0.00    +0.000 OA
ATOM     37  C   UNL     1      17.343   0.566  32.895  0.00  0.00    +0.000 C 
ENDBRANCH  35  36
ENDBRANCH   7  35
TORSDOF 3
ENDMDL
MODEL 9
REMARK VINA RESULT:      -8.2      3.481      7.964
REMARK  Name = 490561_Nocardiopsis.pdbqt.pdb
REMARK  3 active torsions:
REMARK  status: ('A' for Active; 'I' for Inactive)
REMARK    1  A    between atoms: C_7  and  O_32
REMARK    2  A    between atoms: C_7  and  C_35
REMARK    3  A    between atoms: C_35  and  O_36
REMARK                            x       y       z     vdW  Elec       q    Type
REMARK                         _______ _______ _______ _____ _____    ______ ____
ROOT
ATOM      1  O   UNL     1      48.762  -4.674  12.655  0.00  0.00    +0.000 OA
ATOM      2  O   UNL     1      41.612  -4.447  10.300  0.00  0.00    +0.000 OA
ATOM      3  N   UNL     1      48.166  -5.950  10.756  0.00  0.00    +0.000 N 
ATOM      4  N   UNL     1      46.873  -3.510  11.933  0.00  0.00    +0.000 N 
ATOM      5  N   UNL     1      42.392  -6.381   9.278  0.00  0.00    +0.000 N 
ATOM      6  C   UNL     1      49.303  -5.295  11.436  0.00  0.00    +0.000 C 
ATOM      7  C   UNL     1      49.906  -4.074  10.616  0.00  0.00    +0.000 C 
ATOM      8  C   UNL     1      48.228  -3.451  12.213  0.00  0.00    +0.000 C 
ATOM      9  C   UNL     1      49.075  -3.007  11.168  0.00  0.00    +0.000 C 
ATOM     10  C   UNL     1      46.829  -5.645  10.745  0.00  0.00    +0.000 A 
ATOM     11  C   UNL     1      46.216  -4.522  11.303  0.00  0.00    +0.000 A 
ATOM     12  C   UNL     1      45.947  -6.470  10.041  0.00  0.00    +0.000 A 
ATOM     13  C   UNL     1      44.842  -4.405  11.065  0.00  0.00    +0.000 A 
ATOM     14  C   UNL     1      50.365  -6.328  11.937  0.00  0.00    +0.000 C 
ATOM     15  C   UNL     1      48.162  -7.069   9.887  0.00  0.00    +0.000 A 
ATOM     16  C   UNL     1      45.823  -2.588  12.094  0.00  0.00    +0.000 A 
ATOM     17  C   UNL     1      46.821  -7.414   9.472  0.00  0.00    +0.000 A 
ATOM     18  C   UNL     1      44.568  -6.386   9.809  0.00  0.00    +0.000 A 
ATOM     19  C   UNL     1      43.937  -5.238  10.375  0.00  0.00    +0.000 A 
ATOM     20  C   UNL     1      44.575  -3.124  11.597  0.00  0.00    +0.000 A 
ATOM     21  C   UNL     1      43.502  -7.123   9.083  0.00  0.00    +0.000 C 
ATOM     22  C   UNL     1      49.254  -7.818   9.415  0.00  0.00    +0.000 A 
ATOM     23  C   UNL     1      42.529  -5.214  10.044  0.00  0.00    +0.000 C 
ATOM     24  C   UNL     1      45.880  -1.307  12.662  0.00  0.00    +0.000 A 
ATOM     25  C   UNL     1      46.646  -8.515   8.610  0.00  0.00    +0.000 A 
ATOM     26  C   UNL     1      43.426  -2.314  11.694  0.00  0.00    +0.000 A 
ATOM     27  C   UNL     1      49.028  -8.900   8.565  0.00  0.00    +0.000 A 
ATOM     28  C   UNL     1      47.747  -9.250   8.171  0.00  0.00    +0.000 A 
ATOM     29  C   UNL     1      44.710  -0.552  12.738  0.00  0.00    +0.000 A 
ATOM     30  C   UNL     1      43.503  -1.044  12.264  0.00  0.00    +0.000 A 
ATOM     31  H   UNL     1      41.493  -6.636   8.896  0.00  0.00    +0.000 HD
ENDROOT
BRANCH   7  32
ATOM     32  O   UNL     1      49.698  -4.138   9.198  0.00  0.00    +0.000 OA
ATOM     33  H   UNL     1      48.731  -4.066   9.041  0.00  0.00    +0.000 HD
ENDBRANCH   7  32
BRANCH   7  35
ATOM     34  O   UNL     1      52.256  -4.366  10.224  0.00  0.00    +0.000 OA
ATOM     35  C   UNL     1      51.384  -3.854  10.930  0.00  0.00    +0.000 C 
BRANCH  35  36
ATOM     36  O   UNL     1      51.556  -3.018  11.998  0.00  0.00    +0.000 OA
ATOM     37  C   UNL     1      52.385  -3.455  13.040  0.00  0.00    +0.000 C 
ENDBRANCH  35  36
ENDBRANCH   7  35
TORSDOF 3
ENDMDL
