REMARK  Name = 5109870_Ethoxyphenyl.pdbqt.pdb
REMARK  6 active torsions:
REMARK  status: ('A' for Active; 'I' for Inactive)
REMARK    1  A    between atoms: N_2  and  C_22
REMARK    2  A    between atoms: C_3  and  O_11
REMARK    3  A    between atoms: C_3  and  C_13
REMARK    4  A    between atoms: C_16  and  N_19
REMARK    5  A    between atoms: C_25  and  O_28
REMARK    6  A    between atoms: O_28  and  C_29
REMARK                            x       y       z     vdW  Elec       q    Type
REMARK                         _______ _______ _______ _____ _____    ______ ____
ROOT
ATOM      1  N   UNL     1       0.896   1.485  -0.044  0.00  0.00    +0.000 N 
ATOM      2  N   UNL     1      -1.023   0.044  -0.062  0.00  0.00    +0.000 N 
ATOM      3  C   UNL     1       1.262   0.366   0.857  0.00  0.00    +0.000 C 
ATOM      4  C   UNL     1      -0.545   1.294  -0.404  0.00  0.00    +0.000 C 
ATOM      5  C   UNL     1       0.092  -0.495   0.671  0.00  0.00    +0.000 C 
ATOM      6  C   UNL     1       1.185   2.850   0.393  0.00  0.00    +0.000 C 
ATOM      7  C   UNL     1      -1.398   2.418  -0.609  0.00  0.00    +0.000 C 
ATOM      8  C   UNL     1       0.773   4.325   0.538  0.00  0.00    +0.000 C 
ATOM      9  C   UNL     1      -1.609   3.932  -0.448  0.00  0.00    +0.000 C 
ATOM     10  C   UNL     1      -0.578   4.900   0.125  0.00  0.00    +0.000 C 
ENDROOT
BRANCH   3  11
ATOM     11  C   UNL     1       2.579  -0.259   0.461  0.00  0.00    +0.000 A 
ATOM     12  C   UNL     1       2.640  -1.323  -0.450  0.00  0.00    +0.000 A 
ATOM     13  C   UNL     1       3.861  -1.865  -0.843  0.00  0.00    +0.000 A 
ATOM     14  C   UNL     1       5.035  -1.325  -0.326  0.00  0.00    +0.000 A 
ATOM     15  C   UNL     1       5.012  -0.259   0.568  0.00  0.00    +0.000 A 
ATOM     16  C   UNL     1       3.783   0.271   0.950  0.00  0.00    +0.000 A 
BRANCH  14  17
ATOM     17  N   UNL     1       6.310  -1.885  -0.729  0.00  0.00    +0.000 N 
ATOM     18  O   UNL     1       6.294  -2.836  -1.523  0.00  0.00    +0.000 OA
ATOM     19  O   UNL     1       7.337  -1.378  -0.256  0.00  0.00    +0.000 OA
ENDBRANCH  14  17
ENDBRANCH   3  11
BRANCH   2  20
ATOM     20  C   UNL     1      -2.323  -0.482  -0.001  0.00  0.00    +0.000 A 
ATOM     21  C   UNL     1      -3.408   0.148  -0.619  0.00  0.00    +0.000 A 
ATOM     22  C   UNL     1      -4.692  -0.395  -0.572  0.00  0.00    +0.000 A 
ATOM     23  C   UNL     1      -4.919  -1.597   0.094  0.00  0.00    +0.000 A 
ATOM     24  C   UNL     1      -3.853  -2.248   0.707  0.00  0.00    +0.000 A 
ATOM     25  C   UNL     1      -2.573  -1.696   0.654  0.00  0.00    +0.000 A 
BRANCH  23  26
ATOM     26  O   UNL     1      -6.139  -2.214   0.198  0.00  0.00    +0.000 OA
BRANCH  26  27
ATOM     27  C   UNL     1      -7.146  -1.566  -0.383  0.00  0.00    +0.000 C 
ATOM     28  C   UNL     1      -8.317  -0.830  -1.045  0.00  0.00    +0.000 C 
ENDBRANCH  26  27
ENDBRANCH  23  26
ENDBRANCH   2  20
BRANCH   3  29
ATOM     29  O   UNL     1       1.309   0.744   2.227  0.00  0.00    +0.000 OA
ATOM     30  H   UNL     1       0.496   1.254   2.377  0.00  0.00    +0.000 HD
ENDBRANCH   3  29
TORSDOF 6
