MODEL 1
REMARK VINA RESULT:      -7.1      0.000      0.000
REMARK  Name = 5109870_Ethoxyphenyl.pdbqt.pdb
REMARK  6 active torsions:
REMARK  status: ('A' for Active; 'I' for Inactive)
REMARK    1  A    between atoms: N_2  and  C_22
REMARK    2  A    between atoms: C_3  and  O_11
REMARK    3  A    between atoms: C_3  and  C_13
REMARK    4  A    between atoms: C_16  and  N_19
REMARK    5  A    between atoms: C_25  and  O_28
REMARK    6  A    between atoms: O_28  and  C_29
REMARK                            x       y       z     vdW  Elec       q    Type
REMARK                         _______ _______ _______ _____ _____    ______ ____
ROOT
ATOM      1  N   UNL     1      45.859  -2.108  10.821  0.00  0.00    +0.000 N 
ATOM      2  N   UNL     1      45.488  -0.597  12.648  0.00  0.00    +0.000 N 
ATOM      3  C   UNL     1      45.641  -2.988  11.994  0.00  0.00    +0.000 C 
ATOM      4  C   UNL     1      45.923  -0.705  11.342  0.00  0.00    +0.000 C 
ATOM      5  C   UNL     1      45.305  -1.980  13.002  0.00  0.00    +0.000 C 
ATOM      6  C   UNL     1      46.967  -2.418   9.918  0.00  0.00    +0.000 C 
ATOM      7  C   UNL     1      46.774   0.260  10.728  0.00  0.00    +0.000 C 
ATOM      8  C   UNL     1      48.156  -1.966   9.054  0.00  0.00    +0.000 C 
ATOM      9  C   UNL     1      47.939   0.534   9.764  0.00  0.00    +0.000 C 
ATOM     10  C   UNL     1      48.656  -0.529   8.937  0.00  0.00    +0.000 C 
ENDROOT
BRANCH   3  11
ATOM     11  C   UNL     1      44.558  -4.008  11.731  0.00  0.00    +0.000 A 
ATOM     12  C   UNL     1      44.450  -5.176  12.499  0.00  0.00    +0.000 A 
ATOM     13  C   UNL     1      43.423  -6.090  12.279  0.00  0.00    +0.000 A 
ATOM     14  C   UNL     1      42.486  -5.823  11.284  0.00  0.00    +0.000 A 
ATOM     15  C   UNL     1      42.555  -4.666  10.514  0.00  0.00    +0.000 A 
ATOM     16  C   UNL     1      43.588  -3.763  10.748  0.00  0.00    +0.000 A 
BRANCH  14  17
ATOM     17  N   UNL     1      41.415  -6.770  11.047  0.00  0.00    +0.000 N 
ATOM     18  O   UNL     1      41.277  -7.696  11.860  0.00  0.00    +0.000 OA
ATOM     19  O   UNL     1      40.702  -6.596  10.049  0.00  0.00    +0.000 OA
ENDBRANCH  14  17
ENDBRANCH   3  11
BRANCH   2  20
ATOM     20  C   UNL     1      45.581   0.441  13.588  0.00  0.00    +0.000 A 
ATOM     21  C   UNL     1      46.742   0.662  14.337  0.00  0.00    +0.000 A 
ATOM     22  C   UNL     1      46.832   1.712  15.252  0.00  0.00    +0.000 A 
ATOM     23  C   UNL     1      45.756   2.576  15.433  0.00  0.00    +0.000 A 
ATOM     24  C   UNL     1      44.595   2.383  14.691  0.00  0.00    +0.000 A 
ATOM     25  C   UNL     1      44.515   1.331  13.779  0.00  0.00    +0.000 A 
BRANCH  23  26
ATOM     26  O   UNL     1      45.743   3.636  16.303  0.00  0.00    +0.000 OA
BRANCH  26  27
ATOM     27  C   UNL     1      44.603   3.798  16.971  0.00  0.00    +0.000 C 
ATOM     28  C   UNL     1      43.281   3.981  17.727  0.00  0.00    +0.000 C 
ENDBRANCH  26  27
ENDBRANCH  23  26
ENDBRANCH   2  20
BRANCH   3  29
ATOM     29  O   UNL     1      46.824  -3.652  12.422  0.00  0.00    +0.000 OA
ATOM     30  H   UNL     1      46.550  -4.195  13.179  0.00  0.00    +0.000 HD
ENDBRANCH   3  29
TORSDOF 6
ENDMDL
MODEL 2
REMARK VINA RESULT:      -7.0     33.214     34.504
REMARK  Name = 5109870_Ethoxyphenyl.pdbqt.pdb
REMARK  6 active torsions:
REMARK  status: ('A' for Active; 'I' for Inactive)
REMARK    1  A    between atoms: N_2  and  C_22
REMARK    2  A    between atoms: C_3  and  O_11
REMARK    3  A    between atoms: C_3  and  C_13
REMARK    4  A    between atoms: C_16  and  N_19
REMARK    5  A    between atoms: C_25  and  O_28
REMARK    6  A    between atoms: O_28  and  C_29
REMARK                            x       y       z     vdW  Elec       q    Type
REMARK                         _______ _______ _______ _____ _____    ______ ____
ROOT
ATOM      1  N   UNL     1      22.014  21.157   1.505  0.00  0.00    +0.000 N 
ATOM      2  N   UNL     1      22.895  23.017   2.739  0.00  0.00    +0.000 N 
ATOM      3  C   UNL     1      22.126  20.660   2.897  0.00  0.00    +0.000 C 
ATOM      4  C   UNL     1      22.657  22.509   1.476  0.00  0.00    +0.000 C 
ATOM      5  C   UNL     1      22.544  21.894   3.567  0.00  0.00    +0.000 C 
ATOM      6  C   UNL     1      22.481  20.294   0.421  0.00  0.00    +0.000 C 
ATOM      7  C   UNL     1      23.360  22.955   0.319  0.00  0.00    +0.000 C 
ATOM      8  C   UNL     1      23.231  20.101  -0.908  0.00  0.00    +0.000 C 
ATOM      9  C   UNL     1      23.999  22.591  -1.031  0.00  0.00    +0.000 C 
ATOM     10  C   UNL     1      23.973  21.201  -1.661  0.00  0.00    +0.000 C 
ENDROOT
BRANCH   3  11
ATOM     11  C   UNL     1      20.820  20.083   3.389  0.00  0.00    +0.000 A 
ATOM     12  C   UNL     1      19.675  20.879   3.533  0.00  0.00    +0.000 A 
ATOM     13  C   UNL     1      18.464  20.330   3.946  0.00  0.00    +0.000 A 
ATOM     14  C   UNL     1      18.397  18.964   4.204  0.00  0.00    +0.000 A 
ATOM     15  C   UNL     1      19.509  18.142   4.057  0.00  0.00    +0.000 A 
ATOM     16  C   UNL     1      20.712  18.707   3.643  0.00  0.00    +0.000 A 
BRANCH  14  17
ATOM     17  N   UNL     1      17.139  18.386   4.636  0.00  0.00    +0.000 N 
ATOM     18  O   UNL     1      16.146  19.126   4.664  0.00  0.00    +0.000 OA
ATOM     19  O   UNL     1      17.134  17.187   4.949  0.00  0.00    +0.000 OA
ENDBRANCH  14  17
ENDBRANCH   3  11
BRANCH   2  20
ATOM     20  C   UNL     1      23.660  24.106   3.186  0.00  0.00    +0.000 A 
ATOM     21  C   UNL     1      24.937  24.373   2.682  0.00  0.00    +0.000 A 
ATOM     22  C   UNL     1      25.679  25.471   3.116  0.00  0.00    +0.000 A 
ATOM     23  C   UNL     1      25.150  26.341   4.067  0.00  0.00    +0.000 A 
ATOM     24  C   UNL     1      23.876  26.102   4.575  0.00  0.00    +0.000 A 
ATOM     25  C   UNL     1      23.143  25.000   4.134  0.00  0.00    +0.000 A 
BRANCH  23  26
ATOM     26  O   UNL     1      25.795  27.446   4.559  0.00  0.00    +0.000 OA
BRANCH  26  27
ATOM     27  C   UNL     1      25.063  28.558   4.581  0.00  0.00    +0.000 C 
ATOM     28  C   UNL     1      24.208  29.830   4.614  0.00  0.00    +0.000 C 
ENDBRANCH  26  27
ENDBRANCH  23  26
ENDBRANCH   2  20
BRANCH   3  29
ATOM     29  O   UNL     1      23.163  19.702   3.067  0.00  0.00    +0.000 OA
ATOM     30  H   UNL     1      23.857  19.967   2.441  0.00  0.00    +0.000 HD
ENDBRANCH   3  29
TORSDOF 6
ENDMDL
MODEL 3
REMARK VINA RESULT:      -6.6      3.957      7.297
REMARK  Name = 5109870_Ethoxyphenyl.pdbqt.pdb
REMARK  6 active torsions:
REMARK  status: ('A' for Active; 'I' for Inactive)
REMARK    1  A    between atoms: N_2  and  C_22
REMARK    2  A    between atoms: C_3  and  O_11
REMARK    3  A    between atoms: C_3  and  C_13
REMARK    4  A    between atoms: C_16  and  N_19
REMARK    5  A    between atoms: C_25  and  O_28
REMARK    6  A    between atoms: O_28  and  C_29
REMARK                            x       y       z     vdW  Elec       q    Type
REMARK                         _______ _______ _______ _____ _____    ______ ____
ROOT
ATOM      1  N   UNL     1      48.551  -1.574  10.675  0.00  0.00    +0.000 N 
ATOM      2  N   UNL     1      46.912  -0.231  11.802  0.00  0.00    +0.000 N 
ATOM      3  C   UNL     1      48.035  -0.659   9.629  0.00  0.00    +0.000 C 
ATOM      4  C   UNL     1      47.700  -1.362  11.889  0.00  0.00    +0.000 C 
ATOM      5  C   UNL     1      47.154   0.180  10.444  0.00  0.00    +0.000 C 
ATOM      6  C   UNL     1      48.706  -2.989  10.344  0.00  0.00    +0.000 C 
ATOM      7  C   UNL     1      47.401  -2.446  12.765  0.00  0.00    +0.000 C 
ATOM      8  C   UNL     1      48.559  -4.475  10.714  0.00  0.00    +0.000 C 
ATOM      9  C   UNL     1      47.397  -3.967  12.993  0.00  0.00    +0.000 C 
ATOM     10  C   UNL     1      47.939  -4.997  12.006  0.00  0.00    +0.000 C 
ENDROOT
BRANCH   3  11
ATOM     11  C   UNL     1      49.155   0.082   8.936  0.00  0.00    +0.000 A 
ATOM     12  C   UNL     1      48.914   1.253   8.203  0.00  0.00    +0.000 A 
ATOM     13  C   UNL     1      49.958   1.954   7.605  0.00  0.00    +0.000 A 
ATOM     14  C   UNL     1      51.259   1.482   7.754  0.00  0.00    +0.000 A 
ATOM     15  C   UNL     1      51.535   0.332   8.487  0.00  0.00    +0.000 A 
ATOM     16  C   UNL     1      50.480  -0.356   9.080  0.00  0.00    +0.000 A 
BRANCH  14  17
ATOM     17  N   UNL     1      52.351   2.205   7.132  0.00  0.00    +0.000 N 
ATOM     18  O   UNL     1      52.634   1.921   5.960  0.00  0.00    +0.000 OA
ATOM     19  O   UNL     1      52.932   3.064   7.810  0.00  0.00    +0.000 OA
ENDBRANCH  14  17
ENDBRANCH   3  11
BRANCH   2  20
ATOM     20  C   UNL     1      45.830   0.224  12.572  0.00  0.00    +0.000 A 
ATOM     21  C   UNL     1      46.013   0.965  13.744  0.00  0.00    +0.000 A 
ATOM     22  C   UNL     1      44.930   1.432  14.490  0.00  0.00    +0.000 A 
ATOM     23  C   UNL     1      43.628   1.172  14.070  0.00  0.00    +0.000 A 
ATOM     24  C   UNL     1      43.421   0.447  12.901  0.00  0.00    +0.000 A 
ATOM     25  C   UNL     1      44.510  -0.016  12.163  0.00  0.00    +0.000 A 
BRANCH  23  26
ATOM     26  O   UNL     1      42.498   1.585  14.728  0.00  0.00    +0.000 OA
BRANCH  26  27
ATOM     27  C   UNL     1      41.500   0.704  14.736  0.00  0.00    +0.000 C 
ATOM     28  C   UNL     1      40.346  -0.304  14.760  0.00  0.00    +0.000 C 
ENDBRANCH  26  27
ENDBRANCH  23  26
ENDBRANCH   2  20
BRANCH   3  29
ATOM     29  O   UNL     1      47.230  -1.318   8.658  0.00  0.00    +0.000 OA
ATOM     30  H   UNL     1      47.786  -2.036   8.314  0.00  0.00    +0.000 HD
ENDBRANCH   3  29
TORSDOF 6
ENDMDL
MODEL 4
REMARK VINA RESULT:      -6.6     32.892     34.608
REMARK  Name = 5109870_Ethoxyphenyl.pdbqt.pdb
REMARK  6 active torsions:
REMARK  status: ('A' for Active; 'I' for Inactive)
REMARK    1  A    between atoms: N_2  and  C_22
REMARK    2  A    between atoms: C_3  and  O_11
REMARK    3  A    between atoms: C_3  and  C_13
REMARK    4  A    between atoms: C_16  and  N_19
REMARK    5  A    between atoms: C_25  and  O_28
REMARK    6  A    between atoms: O_28  and  C_29
REMARK                            x       y       z     vdW  Elec       q    Type
REMARK                         _______ _______ _______ _____ _____    ______ ____
ROOT
ATOM      1  N   UNL     1      23.778  23.720   2.854  0.00  0.00    +0.000 N 
ATOM      2  N   UNL     1      25.139  23.937   0.889  0.00  0.00    +0.000 N 
ATOM      3  C   UNL     1      22.887  23.321   1.738  0.00  0.00    +0.000 C 
ATOM      4  C   UNL     1      25.040  24.236   2.234  0.00  0.00    +0.000 C 
ATOM      5  C   UNL     1      23.843  23.368   0.629  0.00  0.00    +0.000 C 
ATOM      6  C   UNL     1      23.249  24.624   3.874  0.00  0.00    +0.000 C 
ATOM      7  C   UNL     1      25.768  25.298   2.845  0.00  0.00    +0.000 C 
ATOM      8  C   UNL     1      23.415  25.838   4.804  0.00  0.00    +0.000 C 
ATOM      9  C   UNL     1      25.783  26.429   3.886  0.00  0.00    +0.000 C 
ATOM     10  C   UNL     1      24.645  26.739   4.854  0.00  0.00    +0.000 C 
ENDROOT
BRANCH   3  11
ATOM     11  C   UNL     1      22.264  21.967   1.981  0.00  0.00    +0.000 A 
ATOM     12  C   UNL     1      22.503  20.885   1.121  0.00  0.00    +0.000 A 
ATOM     13  C   UNL     1      21.960  19.629   1.376  0.00  0.00    +0.000 A 
ATOM     14  C   UNL     1      21.177  19.452   2.514  0.00  0.00    +0.000 A 
ATOM     15  C   UNL     1      20.932  20.499   3.397  0.00  0.00    +0.000 A 
ATOM     16  C   UNL     1      21.483  21.748   3.127  0.00  0.00    +0.000 A 
BRANCH  14  17
ATOM     17  N   UNL     1      20.607  18.147   2.785  0.00  0.00    +0.000 N 
ATOM     18  O   UNL     1      21.335  17.303   3.326  0.00  0.00    +0.000 OA
ATOM     19  O   UNL     1      19.426  17.957   2.461  0.00  0.00    +0.000 OA
ENDBRANCH  14  17
ENDBRANCH   3  11
BRANCH   2  20
ATOM     20  C   UNL     1      26.004  24.397  -0.116  0.00  0.00    +0.000 A 
ATOM     21  C   UNL     1      26.081  25.749  -0.466  0.00  0.00    +0.000 A 
ATOM     22  C   UNL     1      26.961  26.200  -1.450  0.00  0.00    +0.000 A 
ATOM     23  C   UNL     1      27.796  25.300  -2.107  0.00  0.00    +0.000 A 
ATOM     24  C   UNL     1      27.745  23.951  -1.768  0.00  0.00    +0.000 A 
ATOM     25  C   UNL     1      26.862  23.511  -0.782  0.00  0.00    +0.000 A 
BRANCH  23  26
ATOM     26  O   UNL     1      28.694  25.639  -3.086  0.00  0.00    +0.000 OA
BRANCH  26  27
ATOM     27  C   UNL     1      29.810  24.913  -3.099  0.00  0.00    +0.000 C 
ATOM     28  C   UNL     1      31.094  24.076  -3.131  0.00  0.00    +0.000 C 
ENDBRANCH  26  27
ENDBRANCH  23  26
ENDBRANCH   2  20
BRANCH   3  29
ATOM     29  O   UNL     1      21.865  24.273   1.471  0.00  0.00    +0.000 OA
ATOM     30  H   UNL     1      21.727  24.233   0.510  0.00  0.00    +0.000 HD
ENDBRANCH   3  29
TORSDOF 6
ENDMDL
MODEL 5
REMARK VINA RESULT:      -6.5     29.438     32.847
REMARK  Name = 5109870_Ethoxyphenyl.pdbqt.pdb
REMARK  6 active torsions:
REMARK  status: ('A' for Active; 'I' for Inactive)
REMARK    1  A    between atoms: N_2  and  C_22
REMARK    2  A    between atoms: C_3  and  O_11
REMARK    3  A    between atoms: C_3  and  C_13
REMARK    4  A    between atoms: C_16  and  N_19
REMARK    5  A    between atoms: C_25  and  O_28
REMARK    6  A    between atoms: O_28  and  C_29
REMARK                            x       y       z     vdW  Elec       q    Type
REMARK                         _______ _______ _______ _____ _____    ______ ____
ROOT
ATOM      1  N   UNL     1      16.024   1.401  26.626  0.00  0.00    +0.000 N 
ATOM      2  N   UNL     1      15.564   3.719  26.206  0.00  0.00    +0.000 N 
ATOM      3  C   UNL     1      15.168   1.398  25.415  0.00  0.00    +0.000 C 
ATOM      4  C   UNL     1      16.060   2.813  27.123  0.00  0.00    +0.000 C 
ATOM      5  C   UNL     1      15.059   2.840  25.185  0.00  0.00    +0.000 C 
ATOM      6  C   UNL     1      15.725   0.443  27.689  0.00  0.00    +0.000 C 
ATOM      7  C   UNL     1      16.134   3.090  28.520  0.00  0.00    +0.000 C 
ATOM      8  C   UNL     1      15.568   0.105  29.182  0.00  0.00    +0.000 C 
ATOM      9  C   UNL     1      16.006   2.557  29.956  0.00  0.00    +0.000 C 
ATOM     10  C   UNL     1      15.713   1.105  30.324  0.00  0.00    +0.000 C 
ENDROOT
BRANCH   3  11
ATOM     11  C   UNL     1      15.803   0.621  24.287  0.00  0.00    +0.000 A 
ATOM     12  C   UNL     1      15.034   0.071  23.252  0.00  0.00    +0.000 A 
ATOM     13  C   UNL     1      15.631  -0.607  22.192  0.00  0.00    +0.000 A 
ATOM     14  C   UNL     1      17.018  -0.723  22.164  0.00  0.00    +0.000 A 
ATOM     15  C   UNL     1      17.813  -0.176  23.166  0.00  0.00    +0.000 A 
ATOM     16  C   UNL     1      17.200   0.498  24.218  0.00  0.00    +0.000 A 
BRANCH  14  17
ATOM     17  N   UNL     1      17.647  -1.429  21.065  0.00  0.00    +0.000 N 
ATOM     18  O   UNL     1      18.525  -2.258  21.343  0.00  0.00    +0.000 OA
ATOM     19  O   UNL     1      17.268  -1.160  19.916  0.00  0.00    +0.000 OA
ENDBRANCH  14  17
ENDBRANCH   3  11
BRANCH   2  20
ATOM     20  C   UNL     1      15.203   5.071  26.319  0.00  0.00    +0.000 A 
ATOM     21  C   UNL     1      16.003   6.098  25.807  0.00  0.00    +0.000 A 
ATOM     22  C   UNL     1      15.624   7.437  25.904  0.00  0.00    +0.000 A 
ATOM     23  C   UNL     1      14.420   7.780  26.514  0.00  0.00    +0.000 A 
ATOM     24  C   UNL     1      13.602   6.775  27.021  0.00  0.00    +0.000 A 
ATOM     25  C   UNL     1      13.991   5.439  26.919  0.00  0.00    +0.000 A 
BRANCH  23  26
ATOM     26  O   UNL     1      13.956   9.062  26.660  0.00  0.00    +0.000 OA
BRANCH  26  27
ATOM     27  C   UNL     1      14.043   9.553  27.894  0.00  0.00    +0.000 C 
ATOM     28  C   UNL     1      14.127  10.120  29.316  0.00  0.00    +0.000 C 
ENDBRANCH  26  27
ENDBRANCH  23  26
ENDBRANCH   2  20
BRANCH   3  29
ATOM     29  O   UNL     1      13.859   0.898  25.658  0.00  0.00    +0.000 OA
ATOM     30  H   UNL     1      13.761   0.903  26.624  0.00  0.00    +0.000 HD
ENDBRANCH   3  29
TORSDOF 6
ENDMDL
MODEL 6
REMARK VINA RESULT:      -6.4      2.312      7.980
REMARK  Name = 5109870_Ethoxyphenyl.pdbqt.pdb
REMARK  6 active torsions:
REMARK  status: ('A' for Active; 'I' for Inactive)
REMARK    1  A    between atoms: N_2  and  C_22
REMARK    2  A    between atoms: C_3  and  O_11
REMARK    3  A    between atoms: C_3  and  C_13
REMARK    4  A    between atoms: C_16  and  N_19
REMARK    5  A    between atoms: C_25  and  O_28
REMARK    6  A    between atoms: O_28  and  C_29
REMARK                            x       y       z     vdW  Elec       q    Type
REMARK                         _______ _______ _______ _____ _____    ______ ____
ROOT
ATOM      1  N   UNL     1      46.461   0.117  12.122  0.00  0.00    +0.000 N 
ATOM      2  N   UNL     1      45.538  -2.097  12.048  0.00  0.00    +0.000 N 
ATOM      3  C   UNL     1      44.997   0.320  12.241  0.00  0.00    +0.000 C 
ATOM      4  C   UNL     1      46.672  -1.338  11.837  0.00  0.00    +0.000 C 
ATOM      5  C   UNL     1      44.558  -1.076  12.312  0.00  0.00    +0.000 C 
ATOM      6  C   UNL     1      47.208   0.978  11.206  0.00  0.00    +0.000 C 
ATOM      7  C   UNL     1      47.743  -1.766  10.999  0.00  0.00    +0.000 C 
ATOM      8  C   UNL     1      48.288   1.168  10.127  0.00  0.00    +0.000 C 
ATOM      9  C   UNL     1      48.825  -1.379   9.978  0.00  0.00    +0.000 C 
ATOM     10  C   UNL     1      49.113   0.044   9.510  0.00  0.00    +0.000 C 
ENDROOT
BRANCH   3  11
ATOM     11  C   UNL     1      44.648   1.157  13.449  0.00  0.00    +0.000 A 
ATOM     12  C   UNL     1      45.608   1.951  14.092  0.00  0.00    +0.000 A 
ATOM     13  C   UNL     1      45.268   2.753  15.178  0.00  0.00    +0.000 A 
ATOM     14  C   UNL     1      43.947   2.769  15.616  0.00  0.00    +0.000 A 
ATOM     15  C   UNL     1      42.966   2.005  14.992  0.00  0.00    +0.000 A 
ATOM     16  C   UNL     1      43.322   1.209  13.907  0.00  0.00    +0.000 A 
BRANCH  14  17
ATOM     17  N   UNL     1      43.586   3.600  16.748  0.00  0.00    +0.000 N 
ATOM     18  O   UNL     1      43.176   3.032  17.770  0.00  0.00    +0.000 OA
ATOM     19  O   UNL     1      43.710   4.827  16.624  0.00  0.00    +0.000 OA
ENDBRANCH  14  17
ENDBRANCH   3  11
BRANCH   2  20
ATOM     20  C   UNL     1      45.212  -3.418  11.705  0.00  0.00    +0.000 A 
ATOM     21  C   UNL     1      45.699  -4.514  12.425  0.00  0.00    +0.000 A 
ATOM     22  C   UNL     1      45.351  -5.822  12.090  0.00  0.00    +0.000 A 
ATOM     23  C   UNL     1      44.493  -6.065  11.020  0.00  0.00    +0.000 A 
ATOM     24  C   UNL     1      43.986  -4.991  10.296  0.00  0.00    +0.000 A 
ATOM     25  C   UNL     1      44.341  -3.686  10.640  0.00  0.00    +0.000 A 
BRANCH  23  26
ATOM     26  O   UNL     1      44.089  -7.310  10.610  0.00  0.00    +0.000 OA
BRANCH  26  27
ATOM     27  C   UNL     1      44.465  -7.643   9.378  0.00  0.00    +0.000 C 
ATOM     28  C   UNL     1      44.892  -8.042   7.960  0.00  0.00    +0.000 C 
ENDBRANCH  26  27
ENDBRANCH  23  26
ENDBRANCH   2  20
BRANCH   3  29
ATOM     29  O   UNL     1      44.417   0.898  11.079  0.00  0.00    +0.000 OA
ATOM     30  H   UNL     1      44.259   0.153  10.476  0.00  0.00    +0.000 HD
ENDBRANCH   3  29
TORSDOF 6
ENDMDL
MODEL 7
REMARK VINA RESULT:      -6.2      2.401      8.018
REMARK  Name = 5109870_Ethoxyphenyl.pdbqt.pdb
REMARK  6 active torsions:
REMARK  status: ('A' for Active; 'I' for Inactive)
REMARK    1  A    between atoms: N_2  and  C_22
REMARK    2  A    between atoms: C_3  and  O_11
REMARK    3  A    between atoms: C_3  and  C_13
REMARK    4  A    between atoms: C_16  and  N_19
REMARK    5  A    between atoms: C_25  and  O_28
REMARK    6  A    between atoms: O_28  and  C_29
REMARK                            x       y       z     vdW  Elec       q    Type
REMARK                         _______ _______ _______ _____ _____    ______ ____
ROOT
ATOM      1  N   UNL     1      46.913   0.098  11.859  0.00  0.00    +0.000 N 
ATOM      2  N   UNL     1      45.761  -1.739  12.888  0.00  0.00    +0.000 N 
ATOM      3  C   UNL     1      45.608   0.664  12.279  0.00  0.00    +0.000 C 
ATOM      4  C   UNL     1      46.842  -1.377  12.107  0.00  0.00    +0.000 C 
ATOM      5  C   UNL     1      45.056  -0.489  12.993  0.00  0.00    +0.000 C 
ATOM      6  C   UNL     1      47.408   0.415  10.521  0.00  0.00    +0.000 C 
ATOM      7  C   UNL     1      47.512  -2.292  11.243  0.00  0.00    +0.000 C 
ATOM      8  C   UNL     1      48.079  -0.015   9.205  0.00  0.00    +0.000 C 
ATOM      9  C   UNL     1      48.228  -2.523   9.903  0.00  0.00    +0.000 C 
ATOM     10  C   UNL     1      48.511  -1.438   8.868  0.00  0.00    +0.000 C 
ENDROOT
BRANCH   3  11
ATOM     11  C   UNL     1      45.786   1.906  13.121  0.00  0.00    +0.000 A 
ATOM     12  C   UNL     1      46.415   3.051  12.613  0.00  0.00    +0.000 A 
ATOM     13  C   UNL     1      46.536   4.206  13.380  0.00  0.00    +0.000 A 
ATOM     14  C   UNL     1      46.008   4.217  14.668  0.00  0.00    +0.000 A 
ATOM     15  C   UNL     1      45.363   3.104  15.198  0.00  0.00    +0.000 A 
ATOM     16  C   UNL     1      45.251   1.957  14.417  0.00  0.00    +0.000 A 
BRANCH  14  17
ATOM     17  N   UNL     1      46.131   5.416  15.474  0.00  0.00    +0.000 N 
ATOM     18  O   UNL     1      45.275   5.610  16.348  0.00  0.00    +0.000 OA
ATOM     19  O   UNL     1      47.085   6.171  15.241  0.00  0.00    +0.000 OA
ENDBRANCH  14  17
ENDBRANCH   3  11
BRANCH   2  20
ATOM     20  C   UNL     1      45.185  -2.986  13.177  0.00  0.00    +0.000 A 
ATOM     21  C   UNL     1      45.723  -3.848  14.137  0.00  0.00    +0.000 A 
ATOM     22  C   UNL     1      45.129  -5.075  14.433  0.00  0.00    +0.000 A 
ATOM     23  C   UNL     1      43.967  -5.466  13.773  0.00  0.00    +0.000 A 
ATOM     24  C   UNL     1      43.406  -4.621  12.822  0.00  0.00    +0.000 A 
ATOM     25  C   UNL     1      44.008  -3.396  12.533  0.00  0.00    +0.000 A 
BRANCH  23  26
ATOM     26  O   UNL     1      43.306  -6.648  13.990  0.00  0.00    +0.000 OA
BRANCH  26  27
ATOM     27  C   UNL     1      42.533  -7.050  12.984  0.00  0.00    +0.000 C 
ATOM     28  C   UNL     1      41.628  -7.515  11.836  0.00  0.00    +0.000 C 
ENDBRANCH  26  27
ENDBRANCH  23  26
ENDBRANCH   2  20
BRANCH   3  29
ATOM     29  O   UNL     1      44.746   0.951  11.185  0.00  0.00    +0.000 OA
ATOM     30  H   UNL     1      44.683   0.119  10.687  0.00  0.00    +0.000 HD
ENDBRANCH   3  29
TORSDOF 6
ENDMDL
MODEL 8
REMARK VINA RESULT:      -6.0     30.869     33.995
REMARK  Name = 5109870_Ethoxyphenyl.pdbqt.pdb
REMARK  6 active torsions:
REMARK  status: ('A' for Active; 'I' for Inactive)
REMARK    1  A    between atoms: N_2  and  C_22
REMARK    2  A    between atoms: C_3  and  O_11
REMARK    3  A    between atoms: C_3  and  C_13
REMARK    4  A    between atoms: C_16  and  N_19
REMARK    5  A    between atoms: C_25  and  O_28
REMARK    6  A    between atoms: O_28  and  C_29
REMARK                            x       y       z     vdW  Elec       q    Type
REMARK                         _______ _______ _______ _____ _____    ______ ____
ROOT
ATOM      1  N   UNL     1      15.371   2.885  27.187  0.00  0.00    +0.000 N 
ATOM      2  N   UNL     1      14.804   1.740  25.155  0.00  0.00    +0.000 N 
ATOM      3  C   UNL     1      15.993   3.699  26.114  0.00  0.00    +0.000 C 
ATOM      4  C   UNL     1      14.836   1.649  26.533  0.00  0.00    +0.000 C 
ATOM      5  C   UNL     1      15.483   2.991  24.938  0.00  0.00    +0.000 C 
ATOM      6  C   UNL     1      16.163   2.587  28.379  0.00  0.00    +0.000 C 
ATOM      7  C   UNL     1      14.838   0.402  27.225  0.00  0.00    +0.000 C 
ATOM      8  C   UNL     1      16.634   1.601  29.462  0.00  0.00    +0.000 C 
ATOM      9  C   UNL     1      15.353  -0.417  28.419  0.00  0.00    +0.000 C 
ATOM     10  C   UNL     1      16.249   0.127  29.528  0.00  0.00    +0.000 C 
ENDROOT
BRANCH   3  11
ATOM     11  C   UNL     1      15.583   5.150  26.208  0.00  0.00    +0.000 A 
ATOM     12  C   UNL     1      16.395   6.175  25.703  0.00  0.00    +0.000 A 
ATOM     13  C   UNL     1      15.990   7.506  25.754  0.00  0.00    +0.000 A 
ATOM     14  C   UNL     1      14.750   7.812  26.308  0.00  0.00    +0.000 A 
ATOM     15  C   UNL     1      13.912   6.818  26.805  0.00  0.00    +0.000 A 
ATOM     16  C   UNL     1      14.332   5.493  26.745  0.00  0.00    +0.000 A 
BRANCH  14  17
ATOM     17  N   UNL     1      14.322   9.195  26.366  0.00  0.00    +0.000 N 
ATOM     18  O   UNL     1      13.888   9.617  27.448  0.00  0.00    +0.000 OA
ATOM     19  O   UNL     1      14.418   9.872  25.333  0.00  0.00    +0.000 OA
ENDBRANCH  14  17
ENDBRANCH   3  11
BRANCH   2  20
ATOM     20  C   UNL     1      14.604   0.778  24.153  0.00  0.00    +0.000 A 
ATOM     21  C   UNL     1      13.325   0.413  23.720  0.00  0.00    +0.000 A 
ATOM     22  C   UNL     1      13.138  -0.528  22.707  0.00  0.00    +0.000 A 
ATOM     23  C   UNL     1      14.237  -1.122  22.092  0.00  0.00    +0.000 A 
ATOM     24  C   UNL     1      15.519  -0.766  22.498  0.00  0.00    +0.000 A 
ATOM     25  C   UNL     1      15.696   0.176  23.512  0.00  0.00    +0.000 A 
BRANCH  23  26
ATOM     26  O   UNL     1      14.162  -2.054  21.089  0.00  0.00    +0.000 OA
BRANCH  26  27
ATOM     27  C   UNL     1      14.860  -1.758  19.996  0.00  0.00    +0.000 C 
ATOM     28  C   UNL     1      15.664  -1.433  18.731  0.00  0.00    +0.000 C 
ENDBRANCH  26  27
ENDBRANCH  23  26
ENDBRANCH   2  20
BRANCH   3  29
ATOM     29  O   UNL     1      17.412   3.607  26.095  0.00  0.00    +0.000 OA
ATOM     30  H   UNL     1      17.616   2.989  25.374  0.00  0.00    +0.000 HD
ENDBRANCH   3  29
TORSDOF 6
ENDMDL
MODEL 9
REMARK VINA RESULT:      -5.9     21.609     25.313
REMARK  Name = 5109870_Ethoxyphenyl.pdbqt.pdb
REMARK  6 active torsions:
REMARK  status: ('A' for Active; 'I' for Inactive)
REMARK    1  A    between atoms: N_2  and  C_22
REMARK    2  A    between atoms: C_3  and  O_11
REMARK    3  A    between atoms: C_3  and  C_13
REMARK    4  A    between atoms: C_16  and  N_19
REMARK    5  A    between atoms: C_25  and  O_28
REMARK    6  A    between atoms: O_28  and  C_29
REMARK                            x       y       z     vdW  Elec       q    Type
REMARK                         _______ _______ _______ _____ _____    ______ ____
ROOT
ATOM      1  N   UNL     1      27.975  -2.194  31.244  0.00  0.00    +0.000 N 
ATOM      2  N   UNL     1      28.737  -2.981  29.109  0.00  0.00    +0.000 N 
ATOM      3  C   UNL     1      28.079  -3.664  31.405  0.00  0.00    +0.000 C 
ATOM      4  C   UNL     1      28.219  -1.901  29.796  0.00  0.00    +0.000 C 
ATOM      5  C   UNL     1      28.662  -4.015  30.108  0.00  0.00    +0.000 C 
ATOM      6  C   UNL     1      26.781  -1.523  31.756  0.00  0.00    +0.000 C 
ATOM      7  C   UNL     1      27.542  -0.826  29.148  0.00  0.00    +0.000 C 
ATOM      8  C   UNL     1      25.659  -0.483  31.598  0.00  0.00    +0.000 C 
ATOM      9  C   UNL     1      26.403   0.205  29.195  0.00  0.00    +0.000 C 
ATOM     10  C   UNL     1      25.447   0.395  30.369  0.00  0.00    +0.000 C 
ENDROOT
BRANCH   3  11
ATOM     11  C   UNL     1      28.923  -4.035  32.601  0.00  0.00    +0.000 A 
ATOM     12  C   UNL     1      28.535  -3.695  33.905  0.00  0.00    +0.000 A 
ATOM     13  C   UNL     1      29.297  -4.078  35.006  0.00  0.00    +0.000 A 
ATOM     14  C   UNL     1      30.455  -4.822  34.797  0.00  0.00    +0.000 A 
ATOM     15  C   UNL     1      30.862  -5.189  33.519  0.00  0.00    +0.000 A 
ATOM     16  C   UNL     1      30.088  -4.798  32.429  0.00  0.00    +0.000 A 
BRANCH  14  17
ATOM     17  N   UNL     1      31.255  -5.223  35.938  0.00  0.00    +0.000 N 
ATOM     18  O   UNL     1      31.748  -6.359  35.922  0.00  0.00    +0.000 OA
ATOM     19  O   UNL     1      31.396  -4.405  36.858  0.00  0.00    +0.000 OA
ENDBRANCH  14  17
ENDBRANCH   3  11
BRANCH   2  20
ATOM     20  C   UNL     1      28.902  -3.233  27.738  0.00  0.00    +0.000 A 
ATOM     21  C   UNL     1      30.084  -2.914  27.062  0.00  0.00    +0.000 A 
ATOM     22  C   UNL     1      30.247  -3.190  25.704  0.00  0.00    +0.000 A 
ATOM     23  C   UNL     1      29.223  -3.805  24.988  0.00  0.00    +0.000 A 
ATOM     24  C   UNL     1      28.042  -4.143  25.642  0.00  0.00    +0.000 A 
ATOM     25  C   UNL     1      27.890  -3.862  27.000  0.00  0.00    +0.000 A 
BRANCH  23  26
ATOM     26  O   UNL     1      29.282  -4.120  23.655  0.00  0.00    +0.000 OA
BRANCH  26  27
ATOM     27  C   UNL     1      28.411  -5.045  23.259  0.00  0.00    +0.000 C 
ATOM     28  C   UNL     1      27.421  -6.120  22.794  0.00  0.00    +0.000 C 
ENDBRANCH  26  27
ENDBRANCH  23  26
ENDBRANCH   2  20
BRANCH   3  29
ATOM     29  O   UNL     1      26.814  -4.306  31.500  0.00  0.00    +0.000 OA
ATOM     30  H   UNL     1      26.502  -4.120  32.401  0.00  0.00    +0.000 HD
ENDBRANCH   3  29
TORSDOF 6
ENDMDL
