MODEL 1
REMARK VINA RESULT:      -7.6      0.000      0.000
REMARK  Name = 5280445_Luteolin.pdbqt.pdb
REMARK  5 active torsions:
REMARK  status: ('A' for Active; 'I' for Inactive)
REMARK    1  A    between atoms: C_5  and  C_12
REMARK    2  A    between atoms: C_8  and  O_22
REMARK    3  A    between atoms: C_10  and  O_24
REMARK    4  A    between atoms: C_15  and  O_18
REMARK    5  A    between atoms: C_17  and  O_20
REMARK                            x       y       z     vdW  Elec       q    Type
REMARK                         _______ _______ _______ _____ _____    ______ ____
ROOT
ATOM      1  O   UNL     1      43.423  -2.430  12.319  0.00  0.00    +0.000 OA
ATOM      2  O   UNL     1      46.678  -2.221   9.812  0.00  0.00    +0.000 OA
ATOM      3  C   UNL     1      45.236  -1.042  11.328  0.00  0.00    +0.000 A 
ATOM      4  C   UNL     1      44.106  -1.220  12.164  0.00  0.00    +0.000 A 
ATOM      5  C   UNL     1      43.867  -3.553  11.610  0.00  0.00    +0.000 A 
ATOM      6  C   UNL     1      45.724  -2.209  10.570  0.00  0.00    +0.000 A 
ATOM      7  C   UNL     1      44.898  -3.323  10.868  0.00  0.00    +0.000 A 
ATOM      8  C   UNL     1      45.860   0.201  11.232  0.00  0.00    +0.000 A 
ATOM      9  C   UNL     1      43.616  -0.143  12.895  0.00  0.00    +0.000 A 
ATOM     10  C   UNL     1      44.251   1.093  12.788  0.00  0.00    +0.000 A 
ATOM     11  C   UNL     1      45.364   1.274  11.966  0.00  0.00    +0.000 A 
ENDROOT
BRANCH   5  12
ATOM     12  C   UNL     1      43.153  -4.813  11.773  0.00  0.00    +0.000 A 
ATOM     13  C   UNL     1      42.183  -5.201  10.845  0.00  0.00    +0.000 A 
ATOM     14  C   UNL     1      43.427  -5.655  12.859  0.00  0.00    +0.000 A 
ATOM     15  C   UNL     1      41.508  -6.404  11.011  0.00  0.00    +0.000 A 
ATOM     16  C   UNL     1      42.750  -6.863  13.026  0.00  0.00    +0.000 A 
ATOM     17  C   UNL     1      41.789  -7.230  12.093  0.00  0.00    +0.000 A 
BRANCH  15  18
ATOM     18  O   UNL     1      40.562  -6.772  10.097  0.00  0.00    +0.000 OA
ATOM     19  H   UNL     1      40.075  -5.950   9.889  0.00  0.00    +0.000 HD
ENDBRANCH  15  18
BRANCH  17  20
ATOM     20  O   UNL     1      41.097  -8.405  12.211  0.00  0.00    +0.000 OA
ATOM     21  H   UNL     1      40.373  -8.259  12.846  0.00  0.00    +0.000 HD
ENDBRANCH  17  20
ENDBRANCH   5  12
BRANCH   8  22
ATOM     22  O   UNL     1      46.952   0.435  10.442  0.00  0.00    +0.000 OA
ATOM     23  H   UNL     1      46.849   1.298   9.986  0.00  0.00    +0.000 HD
ENDBRANCH   8  22
BRANCH  10  24
ATOM     24  O   UNL     1      43.753   2.137  13.514  0.00  0.00    +0.000 OA
ATOM     25  H   UNL     1      43.294   2.742  12.904  0.00  0.00    +0.000 HD
ENDBRANCH  10  24
TORSDOF 5
ENDMDL
MODEL 2
REMARK VINA RESULT:      -7.6      3.538      4.655
REMARK  Name = 5280445_Luteolin.pdbqt.pdb
REMARK  5 active torsions:
REMARK  status: ('A' for Active; 'I' for Inactive)
REMARK    1  A    between atoms: C_5  and  C_12
REMARK    2  A    between atoms: C_8  and  O_22
REMARK    3  A    between atoms: C_10  and  O_24
REMARK    4  A    between atoms: C_15  and  O_18
REMARK    5  A    between atoms: C_17  and  O_20
REMARK                            x       y       z     vdW  Elec       q    Type
REMARK                         _______ _______ _______ _____ _____    ______ ____
ROOT
ATOM      1  O   UNL     1      44.459  -4.403  10.880  0.00  0.00    +0.000 OA
ATOM      2  O   UNL     1      43.747  -5.924  14.635  0.00  0.00    +0.000 OA
ATOM      3  C   UNL     1      43.653  -4.001  13.200  0.00  0.00    +0.000 A 
ATOM      4  C   UNL     1      43.935  -3.577  11.878  0.00  0.00    +0.000 A 
ATOM      5  C   UNL     1      44.734  -5.742  11.186  0.00  0.00    +0.000 A 
ATOM      6  C   UNL     1      43.932  -5.407  13.549  0.00  0.00    +0.000 A 
ATOM      7  C   UNL     1      44.455  -6.063  12.405  0.00  0.00    +0.000 A 
ATOM      8  C   UNL     1      43.128  -3.110  14.136  0.00  0.00    +0.000 A 
ATOM      9  C   UNL     1      43.684  -2.259  11.512  0.00  0.00    +0.000 A 
ATOM     10  C   UNL     1      43.159  -1.380  12.458  0.00  0.00    +0.000 A 
ATOM     11  C   UNL     1      42.880  -1.793  13.762  0.00  0.00    +0.000 A 
ENDROOT
BRANCH   5  12
ATOM     12  C   UNL     1      45.280  -6.601  10.144  0.00  0.00    +0.000 A 
ATOM     13  C   UNL     1      44.438  -7.180   9.190  0.00  0.00    +0.000 A 
ATOM     14  C   UNL     1      46.656  -6.861  10.079  0.00  0.00    +0.000 A 
ATOM     15  C   UNL     1      44.970  -7.998   8.201  0.00  0.00    +0.000 A 
ATOM     16  C   UNL     1      47.190  -7.683   9.086  0.00  0.00    +0.000 A 
ATOM     17  C   UNL     1      46.336  -8.248   8.148  0.00  0.00    +0.000 A 
BRANCH  15  18
ATOM     18  O   UNL     1      44.136  -8.556   7.275  0.00  0.00    +0.000 OA
ATOM     19  H   UNL     1      44.580  -9.383   6.997  0.00  0.00    +0.000 HD
ENDBRANCH  15  18
BRANCH  17  20
ATOM     20  O   UNL     1      46.810  -9.060   7.155  0.00  0.00    +0.000 OA
ATOM     21  H   UNL     1      46.359  -8.811   6.328  0.00  0.00    +0.000 HD
ENDBRANCH  17  20
ENDBRANCH   5  12
BRANCH   8  22
ATOM     22  O   UNL     1      42.836  -3.460  15.425  0.00  0.00    +0.000 OA
ATOM     23  H   UNL     1      41.889  -3.709  15.492  0.00  0.00    +0.000 HD
ENDBRANCH   8  22
BRANCH  10  24
ATOM     24  O   UNL     1      42.922  -0.091  12.078  0.00  0.00    +0.000 OA
ATOM     25  H   UNL     1      43.572   0.483  12.521  0.00  0.00    +0.000 HD
ENDBRANCH  10  24
TORSDOF 5
ENDMDL
MODEL 3
REMARK VINA RESULT:      -7.1      1.578      7.225
REMARK  Name = 5280445_Luteolin.pdbqt.pdb
REMARK  5 active torsions:
REMARK  status: ('A' for Active; 'I' for Inactive)
REMARK    1  A    between atoms: C_5  and  C_12
REMARK    2  A    between atoms: C_8  and  O_22
REMARK    3  A    between atoms: C_10  and  O_24
REMARK    4  A    between atoms: C_15  and  O_18
REMARK    5  A    between atoms: C_17  and  O_20
REMARK                            x       y       z     vdW  Elec       q    Type
REMARK                         _______ _______ _______ _____ _____    ______ ____
ROOT
ATOM      1  O   UNL     1      43.835  -3.234  10.964  0.00  0.00    +0.000 OA
ATOM      2  O   UNL     1      43.311  -5.171  14.555  0.00  0.00    +0.000 OA
ATOM      3  C   UNL     1      43.266  -5.341  12.160  0.00  0.00    +0.000 A 
ATOM      4  C   UNL     1      43.470  -4.583  10.980  0.00  0.00    +0.000 A 
ATOM      5  C   UNL     1      44.014  -2.567  12.182  0.00  0.00    +0.000 A 
ATOM      6  C   UNL     1      43.448  -4.662  13.457  0.00  0.00    +0.000 A 
ATOM      7  C   UNL     1      43.813  -3.313  13.216  0.00  0.00    +0.000 A 
ATOM      8  C   UNL     1      42.903  -6.686  12.088  0.00  0.00    +0.000 A 
ATOM      9  C   UNL     1      43.308  -5.189   9.739  0.00  0.00    +0.000 A 
ATOM     10  C   UNL     1      42.945  -6.533   9.683  0.00  0.00    +0.000 A 
ATOM     11  C   UNL     1      42.742  -7.284  10.842  0.00  0.00    +0.000 A 
ENDROOT
BRANCH   5  12
ATOM     12  C   UNL     1      44.395  -1.161  12.161  0.00  0.00    +0.000 A 
ATOM     13  C   UNL     1      43.692  -0.227  12.929  0.00  0.00    +0.000 A 
ATOM     14  C   UNL     1      45.469  -0.721  11.376  0.00  0.00    +0.000 A 
ATOM     15  C   UNL     1      44.063   1.112  12.901  0.00  0.00    +0.000 A 
ATOM     16  C   UNL     1      45.841   0.623  11.348  0.00  0.00    +0.000 A 
ATOM     17  C   UNL     1      45.130   1.535  12.118  0.00  0.00    +0.000 A 
BRANCH  15  18
ATOM     18  O   UNL     1      43.368   2.014  13.656  0.00  0.00    +0.000 OA
ATOM     19  H   UNL     1      42.516   1.577  13.855  0.00  0.00    +0.000 HD
ENDBRANCH  15  18
BRANCH  17  20
ATOM     20  O   UNL     1      45.456   2.864  12.126  0.00  0.00    +0.000 OA
ATOM     21  H   UNL     1      45.037   3.266  12.908  0.00  0.00    +0.000 HD
ENDBRANCH  17  20
ENDBRANCH   5  12
BRANCH   8  22
ATOM     22  O   UNL     1      42.692  -7.467  13.190  0.00  0.00    +0.000 OA
ATOM     23  H   UNL     1      42.422  -8.368  12.907  0.00  0.00    +0.000 HD
ENDBRANCH   8  22
BRANCH  10  24
ATOM     24  O   UNL     1      42.790  -7.108   8.454  0.00  0.00    +0.000 OA
ATOM     25  H   UNL     1      42.751  -8.074   8.571  0.00  0.00    +0.000 HD
ENDBRANCH  10  24
TORSDOF 5
ENDMDL
MODEL 4
REMARK VINA RESULT:      -7.0      1.374      3.148
REMARK  Name = 5280445_Luteolin.pdbqt.pdb
REMARK  5 active torsions:
REMARK  status: ('A' for Active; 'I' for Inactive)
REMARK    1  A    between atoms: C_5  and  C_12
REMARK    2  A    between atoms: C_8  and  O_22
REMARK    3  A    between atoms: C_10  and  O_24
REMARK    4  A    between atoms: C_15  and  O_18
REMARK    5  A    between atoms: C_17  and  O_20
REMARK                            x       y       z     vdW  Elec       q    Type
REMARK                         _______ _______ _______ _____ _____    ______ ____
ROOT
ATOM      1  O   UNL     1      44.972  -3.528  10.736  0.00  0.00    +0.000 OA
ATOM      2  O   UNL     1      43.590  -0.167  12.663  0.00  0.00    +0.000 OA
ATOM      3  C   UNL     1      45.262  -1.103  11.216  0.00  0.00    +0.000 A 
ATOM      4  C   UNL     1      45.654  -2.316  10.597  0.00  0.00    +0.000 A 
ATOM      5  C   UNL     1      43.823  -3.570  11.536  0.00  0.00    +0.000 A 
ATOM      6  C   UNL     1      44.055  -1.120  12.065  0.00  0.00    +0.000 A 
ATOM      7  C   UNL     1      43.522  -2.434  12.069  0.00  0.00    +0.000 A 
ATOM      8  C   UNL     1      46.000   0.064  11.025  0.00  0.00    +0.000 A 
ATOM      9  C   UNL     1      46.786  -2.340   9.790  0.00  0.00    +0.000 A 
ATOM     10  C   UNL     1      47.514  -1.165   9.608  0.00  0.00    +0.000 A 
ATOM     11  C   UNL     1      47.132   0.032  10.216  0.00  0.00    +0.000 A 
ENDROOT
BRANCH   5  12
ATOM     12  C   UNL     1      43.114  -4.835  11.678  0.00  0.00    +0.000 A 
ATOM     13  C   UNL     1      43.414  -5.699  12.735  0.00  0.00    +0.000 A 
ATOM     14  C   UNL     1      42.120  -5.205  10.762  0.00  0.00    +0.000 A 
ATOM     15  C   UNL     1      42.732  -6.903  12.861  0.00  0.00    +0.000 A 
ATOM     16  C   UNL     1      41.435  -6.414  10.888  0.00  0.00    +0.000 A 
ATOM     17  C   UNL     1      41.749  -7.258  11.945  0.00  0.00    +0.000 A 
BRANCH  15  18
ATOM     18  O   UNL     1      43.035  -7.738  13.898  0.00  0.00    +0.000 OA
ATOM     19  H   UNL     1      42.774  -8.630  13.593  0.00  0.00    +0.000 HD
ENDBRANCH  15  18
BRANCH  17  20
ATOM     20  O   UNL     1      41.106  -8.454  12.113  0.00  0.00    +0.000 OA
ATOM     21  H   UNL     1      40.868  -8.789  11.230  0.00  0.00    +0.000 HD
ENDBRANCH  17  20
ENDBRANCH   5  12
BRANCH   8  22
ATOM     22  O   UNL     1      45.673   1.263  11.595  0.00  0.00    +0.000 OA
ATOM     23  H   UNL     1      44.722   1.261  11.840  0.00  0.00    +0.000 HD
ENDBRANCH   8  22
BRANCH  10  24
ATOM     24  O   UNL     1      48.623  -1.211   8.812  0.00  0.00    +0.000 OA
ATOM     25  H   UNL     1      49.390  -0.929   9.341  0.00  0.00    +0.000 HD
ENDBRANCH  10  24
TORSDOF 5
ENDMDL
MODEL 5
REMARK VINA RESULT:      -6.9     31.960     33.404
REMARK  Name = 5280445_Luteolin.pdbqt.pdb
REMARK  5 active torsions:
REMARK  status: ('A' for Active; 'I' for Inactive)
REMARK    1  A    between atoms: C_5  and  C_12
REMARK    2  A    between atoms: C_8  and  O_22
REMARK    3  A    between atoms: C_10  and  O_24
REMARK    4  A    between atoms: C_15  and  O_18
REMARK    5  A    between atoms: C_17  and  O_20
REMARK                            x       y       z     vdW  Elec       q    Type
REMARK                         _______ _______ _______ _____ _____    ______ ____
ROOT
ATOM      1  O   UNL     1      14.791   4.754  27.562  0.00  0.00    +0.000 OA
ATOM      2  O   UNL     1      15.576   8.012  25.176  0.00  0.00    +0.000 OA
ATOM      3  C   UNL     1      14.451   7.182  27.129  0.00  0.00    +0.000 A 
ATOM      4  C   UNL     1      14.243   6.000  27.882  0.00  0.00    +0.000 A 
ATOM      5  C   UNL     1      15.602   4.644  26.425  0.00  0.00    +0.000 A 
ATOM      6  C   UNL     1      15.301   7.093  25.926  0.00  0.00    +0.000 A 
ATOM      7  C   UNL     1      15.750   5.755  25.785  0.00  0.00    +0.000 A 
ATOM      8  C   UNL     1      13.867   8.386  27.519  0.00  0.00    +0.000 A 
ATOM      9  C   UNL     1      13.448   6.044  29.022  0.00  0.00    +0.000 A 
ATOM     10  C   UNL     1      12.871   7.255  29.400  0.00  0.00    +0.000 A 
ATOM     11  C   UNL     1      13.073   8.422  28.661  0.00  0.00    +0.000 A 
ENDROOT
BRANCH   5  12
ATOM     12  C   UNL     1      16.172   3.344  26.094  0.00  0.00    +0.000 A 
ATOM     13  C   UNL     1      17.554   3.143  26.151  0.00  0.00    +0.000 A 
ATOM     14  C   UNL     1      15.347   2.277  25.714  0.00  0.00    +0.000 A 
ATOM     15  C   UNL     1      18.087   1.901  25.833  0.00  0.00    +0.000 A 
ATOM     16  C   UNL     1      15.882   1.029  25.394  0.00  0.00    +0.000 A 
ATOM     17  C   UNL     1      17.258   0.850  25.458  0.00  0.00    +0.000 A 
BRANCH  15  18
ATOM     18  O   UNL     1      19.439   1.718  25.893  0.00  0.00    +0.000 OA
ATOM     19  H   UNL     1      19.633   1.026  25.229  0.00  0.00    +0.000 HD
ENDBRANCH  15  18
BRANCH  17  20
ATOM     20  O   UNL     1      17.832  -0.354  25.154  0.00  0.00    +0.000 OA
ATOM     21  H   UNL     1      17.725  -0.937  25.928  0.00  0.00    +0.000 HD
ENDBRANCH  17  20
ENDBRANCH   5  12
BRANCH   8  22
ATOM     22  O   UNL     1      14.030   9.558  26.833  0.00  0.00    +0.000 OA
ATOM     23  H   UNL     1      14.778  10.063  27.220  0.00  0.00    +0.000 HD
ENDBRANCH   8  22
BRANCH  10  24
ATOM     24  O   UNL     1      12.094   7.275  30.522  0.00  0.00    +0.000 OA
ATOM     25  H   UNL     1      11.584   6.446  30.556  0.00  0.00    +0.000 HD
ENDBRANCH  10  24
TORSDOF 5
ENDMDL
MODEL 6
REMARK VINA RESULT:      -6.9     31.433     32.909
REMARK  Name = 5280445_Luteolin.pdbqt.pdb
REMARK  5 active torsions:
REMARK  status: ('A' for Active; 'I' for Inactive)
REMARK    1  A    between atoms: C_5  and  C_12
REMARK    2  A    between atoms: C_8  and  O_22
REMARK    3  A    between atoms: C_10  and  O_24
REMARK    4  A    between atoms: C_15  and  O_18
REMARK    5  A    between atoms: C_17  and  O_20
REMARK                            x       y       z     vdW  Elec       q    Type
REMARK                         _______ _______ _______ _____ _____    ______ ____
ROOT
ATOM      1  O   UNL     1      15.806   5.172  25.962  0.00  0.00    +0.000 OA
ATOM      2  O   UNL     1      13.640   4.544  29.403  0.00  0.00    +0.000 OA
ATOM      3  C   UNL     1      14.254   6.095  27.676  0.00  0.00    +0.000 A 
ATOM      4  C   UNL     1      15.035   6.207  26.499  0.00  0.00    +0.000 A 
ATOM      5  C   UNL     1      15.823   3.933  26.616  0.00  0.00    +0.000 A 
ATOM      6  C   UNL     1      14.255   4.801  28.383  0.00  0.00    +0.000 A 
ATOM      7  C   UNL     1      15.092   3.898  27.679  0.00  0.00    +0.000 A 
ATOM      8  C   UNL     1      13.512   7.179  28.143  0.00  0.00    +0.000 A 
ATOM      9  C   UNL     1      15.060   7.412  25.803  0.00  0.00    +0.000 A 
ATOM     10  C   UNL     1      14.313   8.486  26.283  0.00  0.00    +0.000 A 
ATOM     11  C   UNL     1      13.543   8.381  27.442  0.00  0.00    +0.000 A 
ENDROOT
BRANCH   5  12
ATOM     12  C   UNL     1      16.627   2.856  26.054  0.00  0.00    +0.000 A 
ATOM     13  C   UNL     1      17.899   3.117  25.538  0.00  0.00    +0.000 A 
ATOM     14  C   UNL     1      16.141   1.541  26.023  0.00  0.00    +0.000 A 
ATOM     15  C   UNL     1      18.657   2.083  25.004  0.00  0.00    +0.000 A 
ATOM     16  C   UNL     1      16.902   0.502  25.487  0.00  0.00    +0.000 A 
ATOM     17  C   UNL     1      18.163   0.783  24.979  0.00  0.00    +0.000 A 
BRANCH  15  18
ATOM     18  O   UNL     1      19.899   2.352  24.503  0.00  0.00    +0.000 OA
ATOM     19  H   UNL     1      20.319   2.939  25.164  0.00  0.00    +0.000 HD
ENDBRANCH  15  18
BRANCH  17  20
ATOM     20  O   UNL     1      18.949  -0.200  24.443  0.00  0.00    +0.000 OA
ATOM     21  H   UNL     1      19.287  -0.742  25.179  0.00  0.00    +0.000 HD
ENDBRANCH  17  20
ENDBRANCH   5  12
BRANCH   8  22
ATOM     22  O   UNL     1      12.742   7.132  29.271  0.00  0.00    +0.000 OA
ATOM     23  H   UNL     1      12.972   7.885  29.858  0.00  0.00    +0.000 HD
ENDBRANCH   8  22
BRANCH  10  24
ATOM     24  O   UNL     1      14.352   9.660  25.585  0.00  0.00    +0.000 OA
ATOM     25  H   UNL     1      14.445   9.449  24.639  0.00  0.00    +0.000 HD
ENDBRANCH  10  24
TORSDOF 5
ENDMDL
MODEL 7
REMARK VINA RESULT:      -6.8     16.139     18.187
REMARK  Name = 5280445_Luteolin.pdbqt.pdb
REMARK  5 active torsions:
REMARK  status: ('A' for Active; 'I' for Inactive)
REMARK    1  A    between atoms: C_5  and  C_12
REMARK    2  A    between atoms: C_8  and  O_22
REMARK    3  A    between atoms: C_10  and  O_24
REMARK    4  A    between atoms: C_15  and  O_18
REMARK    5  A    between atoms: C_17  and  O_20
REMARK                            x       y       z     vdW  Elec       q    Type
REMARK                         _______ _______ _______ _____ _____    ______ ____
ROOT
ATOM      1  O   UNL     1      27.217  -3.438  14.624  0.00  0.00    +0.000 OA
ATOM      2  O   UNL     1      23.560  -2.211  16.052  0.00  0.00    +0.000 OA
ATOM      3  C   UNL     1      25.187  -2.036  14.295  0.00  0.00    +0.000 A 
ATOM      4  C   UNL     1      26.457  -2.521  13.893  0.00  0.00    +0.000 A 
ATOM      5  C   UNL     1      26.712  -3.921  15.837  0.00  0.00    +0.000 A 
ATOM      6  C   UNL     1      24.632  -2.529  15.570  0.00  0.00    +0.000 A 
ATOM      7  C   UNL     1      25.554  -3.440  16.145  0.00  0.00    +0.000 A 
ATOM      8  C   UNL     1      24.493  -1.121  13.505  0.00  0.00    +0.000 A 
ATOM      9  C   UNL     1      27.013  -2.079  12.698  0.00  0.00    +0.000 A 
ATOM     10  C   UNL     1      26.307  -1.164  11.919  0.00  0.00    +0.000 A 
ATOM     11  C   UNL     1      25.057  -0.683  12.310  0.00  0.00    +0.000 A 
ENDROOT
BRANCH   5  12
ATOM     12  C   UNL     1      27.507  -4.877  16.597  0.00  0.00    +0.000 A 
ATOM     13  C   UNL     1      26.889  -5.938  17.266  0.00  0.00    +0.000 A 
ATOM     14  C   UNL     1      28.901  -4.751  16.670  0.00  0.00    +0.000 A 
ATOM     15  C   UNL     1      27.657  -6.843  17.988  0.00  0.00    +0.000 A 
ATOM     16  C   UNL     1      29.672  -5.660  17.395  0.00  0.00    +0.000 A 
ATOM     17  C   UNL     1      29.039  -6.706  18.052  0.00  0.00    +0.000 A 
BRANCH  15  18
ATOM     18  O   UNL     1      27.040  -7.875  18.636  0.00  0.00    +0.000 OA
ATOM     19  H   UNL     1      27.535  -8.676  18.369  0.00  0.00    +0.000 HD
ENDBRANCH  15  18
BRANCH  17  20
ATOM     20  O   UNL     1      29.749  -7.624  18.776  0.00  0.00    +0.000 OA
ATOM     21  H   UNL     1      30.434  -7.996  18.191  0.00  0.00    +0.000 HD
ENDBRANCH  17  20
ENDBRANCH   5  12
BRANCH   8  22
ATOM     22  O   UNL     1      23.267  -0.617  13.840  0.00  0.00    +0.000 OA
ATOM     23  H   UNL     1      22.658  -0.697  13.074  0.00  0.00    +0.000 HD
ENDBRANCH   8  22
BRANCH  10  24
ATOM     24  O   UNL     1      26.872  -0.743  10.749  0.00  0.00    +0.000 OA
ATOM     25  H   UNL     1      26.193  -0.778  10.052  0.00  0.00    +0.000 HD
ENDBRANCH  10  24
TORSDOF 5
ENDMDL
MODEL 8
REMARK VINA RESULT:      -6.7     33.034     34.571
REMARK  Name = 5280445_Luteolin.pdbqt.pdb
REMARK  5 active torsions:
REMARK  status: ('A' for Active; 'I' for Inactive)
REMARK    1  A    between atoms: C_5  and  C_12
REMARK    2  A    between atoms: C_8  and  O_22
REMARK    3  A    between atoms: C_10  and  O_24
REMARK    4  A    between atoms: C_15  and  O_18
REMARK    5  A    between atoms: C_17  and  O_20
REMARK                            x       y       z     vdW  Elec       q    Type
REMARK                         _______ _______ _______ _____ _____    ______ ____
ROOT
ATOM      1  O   UNL     1      21.876  21.845   3.785  0.00  0.00    +0.000 OA
ATOM      2  O   UNL     1      23.282  20.039   0.367  0.00  0.00    +0.000 OA
ATOM      3  C   UNL     1      21.717  19.944   2.186  0.00  0.00    +0.000 A 
ATOM      4  C   UNL     1      21.307  20.645   3.347  0.00  0.00    +0.000 A 
ATOM      5  C   UNL     1      22.921  22.409   3.043  0.00  0.00    +0.000 A 
ATOM      6  C   UNL     1      22.817  20.517   1.386  0.00  0.00    +0.000 A 
ATOM      7  C   UNL     1      23.245  21.722   1.999  0.00  0.00    +0.000 A 
ATOM      8  C   UNL     1      21.095  18.752   1.818  0.00  0.00    +0.000 A 
ATOM      9  C   UNL     1      20.274  20.137   4.126  0.00  0.00    +0.000 A 
ATOM     10  C   UNL     1      19.662  18.944   3.747  0.00  0.00    +0.000 A 
ATOM     11  C   UNL     1      20.062  18.250   2.604  0.00  0.00    +0.000 A 
ENDROOT
BRANCH   5  12
ATOM     12  C   UNL     1      23.511  23.659   3.502  0.00  0.00    +0.000 A 
ATOM     13  C   UNL     1      24.658  24.168   2.886  0.00  0.00    +0.000 A 
ATOM     14  C   UNL     1      22.941  24.373   4.565  0.00  0.00    +0.000 A 
ATOM     15  C   UNL     1      25.213  25.361   3.331  0.00  0.00    +0.000 A 
ATOM     16  C   UNL     1      23.498  25.571   5.013  0.00  0.00    +0.000 A 
ATOM     17  C   UNL     1      24.637  26.059   4.387  0.00  0.00    +0.000 A 
BRANCH  15  18
ATOM     18  O   UNL     1      26.333  25.847   2.720  0.00  0.00    +0.000 OA
ATOM     19  H   UNL     1      27.081  25.515   3.256  0.00  0.00    +0.000 HD
ENDBRANCH  15  18
BRANCH  17  20
ATOM     20  O   UNL     1      25.222  27.229   4.788  0.00  0.00    +0.000 OA
ATOM     21  H   UNL     1      26.149  27.033   5.015  0.00  0.00    +0.000 HD
ENDBRANCH  17  20
ENDBRANCH   5  12
BRANCH   8  22
ATOM     22  O   UNL     1      21.446  18.031   0.711  0.00  0.00    +0.000 OA
ATOM     23  H   UNL     1      20.724  17.406   0.483  0.00  0.00    +0.000 HD
ENDBRANCH   8  22
BRANCH  10  24
ATOM     24  O   UNL     1      18.650  18.463   4.527  0.00  0.00    +0.000 OA
ATOM     25  H   UNL     1      18.401  17.582   4.194  0.00  0.00    +0.000 HD
ENDBRANCH  10  24
TORSDOF 5
ENDMDL
MODEL 9
REMARK VINA RESULT:      -6.6     30.845     32.698
REMARK  Name = 5280445_Luteolin.pdbqt.pdb
REMARK  5 active torsions:
REMARK  status: ('A' for Active; 'I' for Inactive)
REMARK    1  A    between atoms: C_5  and  C_12
REMARK    2  A    between atoms: C_8  and  O_22
REMARK    3  A    between atoms: C_10  and  O_24
REMARK    4  A    between atoms: C_15  and  O_18
REMARK    5  A    between atoms: C_17  and  O_20
REMARK                            x       y       z     vdW  Elec       q    Type
REMARK                         _______ _______ _______ _____ _____    ______ ____
ROOT
ATOM      1  O   UNL     1      15.028   3.279  25.380  0.00  0.00    +0.000 OA
ATOM      2  O   UNL     1      19.036   2.630  26.037  0.00  0.00    +0.000 OA
ATOM      3  C   UNL     1      16.965   1.725  25.226  0.00  0.00    +0.000 A 
ATOM      4  C   UNL     1      15.598   2.049  25.042  0.00  0.00    +0.000 A 
ATOM      5  C   UNL     1      15.842   4.271  25.941  0.00  0.00    +0.000 A 
ATOM      6  C   UNL     1      17.845   2.752  25.815  0.00  0.00    +0.000 A 
ATOM      7  C   UNL     1      17.074   3.912  26.082  0.00  0.00    +0.000 A 
ATOM      8  C   UNL     1      17.455   0.472  24.859  0.00  0.00    +0.000 A 
ATOM      9  C   UNL     1      14.738   1.107  24.489  0.00  0.00    +0.000 A 
ATOM     10  C   UNL     1      15.242  -0.142  24.128  0.00  0.00    +0.000 A 
ATOM     11  C   UNL     1      16.587  -0.466  24.308  0.00  0.00    +0.000 A 
ENDROOT
BRANCH   5  12
ATOM     12  C   UNL     1      15.244   5.553  26.292  0.00  0.00    +0.000 A 
ATOM     13  C   UNL     1      15.441   6.672  25.478  0.00  0.00    +0.000 A 
ATOM     14  C   UNL     1      14.463   5.686  27.449  0.00  0.00    +0.000 A 
ATOM     15  C   UNL     1      14.867   7.889  25.823  0.00  0.00    +0.000 A 
ATOM     16  C   UNL     1      13.887   6.908  27.795  0.00  0.00    +0.000 A 
ATOM     17  C   UNL     1      14.095   8.007  26.973  0.00  0.00    +0.000 A 
BRANCH  15  18
ATOM     18  O   UNL     1      15.067   8.975  25.019  0.00  0.00    +0.000 OA
ATOM     19  H   UNL     1      15.954   8.842  24.628  0.00  0.00    +0.000 HD
ENDBRANCH  15  18
BRANCH  17  20
ATOM     20  O   UNL     1      13.552   9.228  27.268  0.00  0.00    +0.000 OA
ATOM     21  H   UNL     1      13.601   9.348  28.234  0.00  0.00    +0.000 HD
ENDBRANCH  17  20
ENDBRANCH   5  12
BRANCH   8  22
ATOM     22  O   UNL     1      18.762   0.101  25.014  0.00  0.00    +0.000 OA
ATOM     23  H   UNL     1      18.833  -0.558  25.738  0.00  0.00    +0.000 HD
ENDBRANCH   8  22
BRANCH  10  24
ATOM     24  O   UNL     1      14.379  -1.052  23.587  0.00  0.00    +0.000 OA
ATOM     25  H   UNL     1      13.471  -0.723  23.712  0.00  0.00    +0.000 HD
ENDBRANCH  10  24
TORSDOF 5
ENDMDL
