MODEL 1
REMARK VINA RESULT:      -6.0      0.000      0.000
REMARK  Name = 5281416_Esculetin.pdbqt.pdb
REMARK  2 active torsions:
REMARK  status: ('A' for Active; 'I' for Inactive)
REMARK    1  A    between atoms: C_7  and  O_12
REMARK    2  A    between atoms: C_8  and  O_14
REMARK                            x       y       z     vdW  Elec       q    Type
REMARK                         _______ _______ _______ _____ _____    ______ ____
ROOT
ATOM      1  O   UNL     1      43.911  -7.914   7.758  0.00  0.00    +0.000 OA
ATOM      2  O   UNL     1      45.495  -9.381   6.840  0.00  0.00    +0.000 OA
ATOM      3  C   UNL     1      44.597  -6.697   9.823  0.00  0.00    +0.000 A 
ATOM      4  C   UNL     1      43.627  -6.975   8.821  0.00  0.00    +0.000 A 
ATOM      5  C   UNL     1      44.332  -5.799  10.844  0.00  0.00    +0.000 A 
ATOM      6  C   UNL     1      42.383  -6.360   8.828  0.00  0.00    +0.000 A 
ATOM      7  C   UNL     1      43.083  -5.184  10.848  0.00  0.00    +0.000 A 
ATOM      8  C   UNL     1      42.128  -5.460   9.858  0.00  0.00    +0.000 A 
ATOM      9  C   UNL     1      45.811  -7.411   9.665  0.00  0.00    +0.000 A 
ATOM     10  C   UNL     1      46.025  -8.182   8.780  0.00  0.00    +0.000 A 
ATOM     11  C   UNL     1      45.168  -8.576   7.696  0.00  0.00    +0.000 A 
ENDROOT
BRANCH   7  12
ATOM     12  O   UNL     1      42.744  -4.283  11.824  0.00  0.00    +0.000 OA
ATOM     13  H   UNL     1      42.619  -4.777  12.655  0.00  0.00    +0.000 HD
ENDBRANCH   7  12
BRANCH   8  14
ATOM     14  O   UNL     1      40.913  -4.833   9.901  0.00  0.00    +0.000 OA
ATOM     15  H   UNL     1      41.106  -3.917  10.186  0.00  0.00    +0.000 HD
ENDBRANCH   8  14
TORSDOF 2
ENDMDL
MODEL 2
REMARK VINA RESULT:      -6.0      1.665      4.845
REMARK  Name = 5281416_Esculetin.pdbqt.pdb
REMARK  2 active torsions:
REMARK  status: ('A' for Active; 'I' for Inactive)
REMARK    1  A    between atoms: C_7  and  O_12
REMARK    2  A    between atoms: C_8  and  O_14
REMARK                            x       y       z     vdW  Elec       q    Type
REMARK                         _______ _______ _______ _____ _____    ______ ____
ROOT
ATOM      1  O   UNL     1      42.217  -4.862  12.186  0.00  0.00    +0.000 OA
ATOM      2  O   UNL     1      42.096  -3.897  14.322  0.00  0.00    +0.000 OA
ATOM      3  C   UNL     1      44.359  -5.999  11.607  0.00  0.00    +0.000 A 
ATOM      4  C   UNL     1      43.040  -5.602  11.255  0.00  0.00    +0.000 A 
ATOM      5  C   UNL     1      45.153  -6.708  10.720  0.00  0.00    +0.000 A 
ATOM      6  C   UNL     1      42.499  -5.909  10.014  0.00  0.00    +0.000 A 
ATOM      7  C   UNL     1      44.607  -7.014   9.476  0.00  0.00    +0.000 A 
ATOM      8  C   UNL     1      43.304  -6.621   9.132  0.00  0.00    +0.000 A 
ATOM      9  C   UNL     1      44.752  -5.604  12.910  0.00  0.00    +0.000 A 
ATOM     10  C   UNL     1      44.057  -4.993  13.664  0.00  0.00    +0.000 A 
ATOM     11  C   UNL     1      42.715  -4.517  13.473  0.00  0.00    +0.000 A 
ENDROOT
BRANCH   7  12
ATOM     12  O   UNL     1      45.328  -7.712   8.543  0.00  0.00    +0.000 OA
ATOM     13  H   UNL     1      46.270  -7.489   8.665  0.00  0.00    +0.000 HD
ENDBRANCH   7  12
BRANCH   8  14
ATOM     14  O   UNL     1      42.809  -6.943   7.898  0.00  0.00    +0.000 OA
ATOM     15  H   UNL     1      41.836  -6.902   7.992  0.00  0.00    +0.000 HD
ENDBRANCH   8  14
TORSDOF 2
ENDMDL
MODEL 3
REMARK VINA RESULT:      -5.8      1.784      4.968
REMARK  Name = 5281416_Esculetin.pdbqt.pdb
REMARK  2 active torsions:
REMARK  status: ('A' for Active; 'I' for Inactive)
REMARK    1  A    between atoms: C_7  and  O_12
REMARK    2  A    between atoms: C_8  and  O_14
REMARK                            x       y       z     vdW  Elec       q    Type
REMARK                         _______ _______ _______ _____ _____    ______ ____
ROOT
ATOM      1  O   UNL     1      43.634  -5.634  12.011  0.00  0.00    +0.000 OA
ATOM      2  O   UNL     1      41.697  -5.367  13.308  0.00  0.00    +0.000 OA
ATOM      3  C   UNL     1      43.316  -6.605   9.737  0.00  0.00    +0.000 A 
ATOM      4  C   UNL     1      44.172  -6.079  10.744  0.00  0.00    +0.000 A 
ATOM      5  C   UNL     1      43.823  -7.033   8.521  0.00  0.00    +0.000 A 
ATOM      6  C   UNL     1      45.541  -5.973  10.547  0.00  0.00    +0.000 A 
ATOM      7  C   UNL     1      45.198  -6.926   8.327  0.00  0.00    +0.000 A 
ATOM      8  C   UNL     1      46.040  -6.406   9.323  0.00  0.00    +0.000 A 
ATOM      9  C   UNL     1      41.948  -6.641  10.102  0.00  0.00    +0.000 A 
ATOM     10  C   UNL     1      41.525  -6.269  11.155  0.00  0.00    +0.000 A 
ATOM     11  C   UNL     1      42.239  -5.716  12.272  0.00  0.00    +0.000 A 
ENDROOT
BRANCH   7  12
ATOM     12  O   UNL     1      45.777  -7.327   7.152  0.00  0.00    +0.000 OA
ATOM     13  H   UNL     1      45.873  -8.297   7.182  0.00  0.00    +0.000 HD
ENDBRANCH   7  12
BRANCH   8  14
ATOM     14  O   UNL     1      47.384  -6.319   9.089  0.00  0.00    +0.000 OA
ATOM     15  H   UNL     1      47.615  -7.136   8.603  0.00  0.00    +0.000 HD
ENDBRANCH   8  14
TORSDOF 2
ENDMDL
MODEL 4
REMARK VINA RESULT:      -5.7      2.326      4.376
REMARK  Name = 5281416_Esculetin.pdbqt.pdb
REMARK  2 active torsions:
REMARK  status: ('A' for Active; 'I' for Inactive)
REMARK    1  A    between atoms: C_7  and  O_12
REMARK    2  A    between atoms: C_8  and  O_14
REMARK                            x       y       z     vdW  Elec       q    Type
REMARK                         _______ _______ _______ _____ _____    ______ ____
ROOT
ATOM      1  O   UNL     1      42.552  -7.344  10.656  0.00  0.00    +0.000 OA
ATOM      2  O   UNL     1      40.988  -7.394  12.405  0.00  0.00    +0.000 OA
ATOM      3  C   UNL     1      44.787  -6.381  11.198  0.00  0.00    +0.000 A 
ATOM      4  C   UNL     1      43.895  -6.976  10.264  0.00  0.00    +0.000 A 
ATOM      5  C   UNL     1      46.074  -6.026  10.830  0.00  0.00    +0.000 A 
ATOM      6  C   UNL     1      44.278  -7.222   8.953  0.00  0.00    +0.000 A 
ATOM      7  C   UNL     1      46.456  -6.275   9.514  0.00  0.00    +0.000 A 
ATOM      8  C   UNL     1      45.573  -6.861   8.594  0.00  0.00    +0.000 A 
ATOM      9  C   UNL     1      44.234  -6.201  12.491  0.00  0.00    +0.000 A 
ATOM     10  C   UNL     1      43.123  -6.512  12.794  0.00  0.00    +0.000 A 
ATOM     11  C   UNL     1      42.100  -7.117  11.985  0.00  0.00    +0.000 A 
ENDROOT
BRANCH   7  12
ATOM     12  O   UNL     1      47.712  -5.952   9.072  0.00  0.00    +0.000 OA
ATOM     13  H   UNL     1      47.617  -5.322   8.334  0.00  0.00    +0.000 HD
ENDBRANCH   7  12
BRANCH   8  14
ATOM     14  O   UNL     1      45.990  -7.087   7.312  0.00  0.00    +0.000 OA
ATOM     15  H   UNL     1      46.952  -7.253   7.378  0.00  0.00    +0.000 HD
ENDBRANCH   8  14
TORSDOF 2
ENDMDL
MODEL 5
REMARK VINA RESULT:      -5.7     20.955     22.615
REMARK  Name = 5281416_Esculetin.pdbqt.pdb
REMARK  2 active torsions:
REMARK  status: ('A' for Active; 'I' for Inactive)
REMARK    1  A    between atoms: C_7  and  O_12
REMARK    2  A    between atoms: C_8  and  O_14
REMARK                            x       y       z     vdW  Elec       q    Type
REMARK                         _______ _______ _______ _____ _____    ______ ____
ROOT
ATOM      1  O   UNL     1      26.743  -4.805  25.787  0.00  0.00    +0.000 OA
ATOM      2  O   UNL     1      25.113  -5.940  24.537  0.00  0.00    +0.000 OA
ATOM      3  C   UNL     1      28.815  -4.150  24.564  0.00  0.00    +0.000 A 
ATOM      4  C   UNL     1      28.049  -4.183  25.762  0.00  0.00    +0.000 A 
ATOM      5  C   UNL     1      30.067  -3.557  24.533  0.00  0.00    +0.000 A 
ATOM      6  C   UNL     1      28.524  -3.624  26.940  0.00  0.00    +0.000 A 
ATOM      7  C   UNL     1      30.540  -2.997  25.717  0.00  0.00    +0.000 A 
ATOM      8  C   UNL     1      29.781  -3.031  26.897  0.00  0.00    +0.000 A 
ATOM      9  C   UNL     1      28.182  -4.766  23.456  0.00  0.00    +0.000 A 
ATOM     10  C   UNL     1      27.103  -5.274  23.498  0.00  0.00    +0.000 A 
ATOM     11  C   UNL     1      26.202  -5.395  24.611  0.00  0.00    +0.000 A 
ENDROOT
BRANCH   7  12
ATOM     12  O   UNL     1      31.768  -2.391  25.768  0.00  0.00    +0.000 OA
ATOM     13  H   UNL     1      32.366  -2.972  26.275  0.00  0.00    +0.000 HD
ENDBRANCH   7  12
BRANCH   8  14
ATOM     14  O   UNL     1      30.285  -2.469  28.038  0.00  0.00    +0.000 OA
ATOM     15  H   UNL     1      31.244  -2.365  27.872  0.00  0.00    +0.000 HD
ENDBRANCH   8  14
TORSDOF 2
ENDMDL
MODEL 6
REMARK VINA RESULT:      -5.6      3.341      4.100
REMARK  Name = 5281416_Esculetin.pdbqt.pdb
REMARK  2 active torsions:
REMARK  status: ('A' for Active; 'I' for Inactive)
REMARK    1  A    between atoms: C_7  and  O_12
REMARK    2  A    between atoms: C_8  and  O_14
REMARK                            x       y       z     vdW  Elec       q    Type
REMARK                         _______ _______ _______ _____ _____    ______ ____
ROOT
ATOM      1  O   UNL     1      44.341  -3.960  10.590  0.00  0.00    +0.000 OA
ATOM      2  O   UNL     1      46.295  -2.729  11.008  0.00  0.00    +0.000 OA
ATOM      3  C   UNL     1      43.868  -5.846  12.152  0.00  0.00    +0.000 A 
ATOM      4  C   UNL     1      43.510  -5.064  11.019  0.00  0.00    +0.000 A 
ATOM      5  C   UNL     1      43.077  -6.904  12.568  0.00  0.00    +0.000 A 
ATOM      6  C   UNL     1      42.359  -5.329  10.292  0.00  0.00    +0.000 A 
ATOM      7  C   UNL     1      41.922  -7.167  11.836  0.00  0.00    +0.000 A 
ATOM      8  C   UNL     1      41.571  -6.393  10.719  0.00  0.00    +0.000 A 
ATOM      9  C   UNL     1      45.073  -5.438  12.777  0.00  0.00    +0.000 A 
ATOM     10  C   UNL     1      45.745  -4.524  12.407  0.00  0.00    +0.000 A 
ATOM     11  C   UNL     1      45.534  -3.638  11.295  0.00  0.00    +0.000 A 
ENDROOT
BRANCH   7  12
ATOM     12  O   UNL     1      41.087  -8.196  12.184  0.00  0.00    +0.000 OA
ATOM     13  H   UNL     1      40.947  -8.749  11.392  0.00  0.00    +0.000 HD
ENDBRANCH   7  12
BRANCH   8  14
ATOM     14  O   UNL     1      40.428  -6.688  10.029  0.00  0.00    +0.000 OA
ATOM     15  H   UNL     1      40.223  -5.882   9.513  0.00  0.00    +0.000 HD
ENDBRANCH   8  14
TORSDOF 2
ENDMDL
MODEL 7
REMARK VINA RESULT:      -5.6      2.784      3.723
REMARK  Name = 5281416_Esculetin.pdbqt.pdb
REMARK  2 active torsions:
REMARK  status: ('A' for Active; 'I' for Inactive)
REMARK    1  A    between atoms: C_7  and  O_12
REMARK    2  A    between atoms: C_8  and  O_14
REMARK                            x       y       z     vdW  Elec       q    Type
REMARK                         _______ _______ _______ _____ _____    ______ ____
ROOT
ATOM      1  O   UNL     1      46.114  -5.487  12.397  0.00  0.00    +0.000 OA
ATOM      2  O   UNL     1      48.401  -5.609  11.891  0.00  0.00    +0.000 OA
ATOM      3  C   UNL     1      44.571  -6.669  10.834  0.00  0.00    +0.000 A 
ATOM      4  C   UNL     1      44.779  -5.877  11.997  0.00  0.00    +0.000 A 
ATOM      5  C   UNL     1      43.296  -7.046  10.445  0.00  0.00    +0.000 A 
ATOM      6  C   UNL     1      43.717  -5.454  12.783  0.00  0.00    +0.000 A 
ATOM      7  C   UNL     1      42.233  -6.620  11.237  0.00  0.00    +0.000 A 
ATOM      8  C   UNL     1      42.441  -5.839  12.384  0.00  0.00    +0.000 A 
ATOM      9  C   UNL     1      45.763  -7.013  10.149  0.00  0.00    +0.000 A 
ATOM     10  C   UNL     1      46.856  -6.680  10.496  0.00  0.00    +0.000 A 
ATOM     11  C   UNL     1      47.243  -5.890  11.632  0.00  0.00    +0.000 A 
ENDROOT
BRANCH   7  12
ATOM     12  O   UNL     1      40.942  -6.952  10.919  0.00  0.00    +0.000 OA
ATOM     13  H   UNL     1      40.666  -6.393  10.169  0.00  0.00    +0.000 HD
ENDBRANCH   7  12
BRANCH   8  14
ATOM     14  O   UNL     1      41.367  -5.442  13.132  0.00  0.00    +0.000 OA
ATOM     15  H   UNL     1      41.026  -4.639  12.689  0.00  0.00    +0.000 HD
ENDBRANCH   8  14
TORSDOF 2
ENDMDL
MODEL 8
REMARK VINA RESULT:      -5.5      2.241      2.677
REMARK  Name = 5281416_Esculetin.pdbqt.pdb
REMARK  2 active torsions:
REMARK  status: ('A' for Active; 'I' for Inactive)
REMARK    1  A    between atoms: C_7  and  O_12
REMARK    2  A    between atoms: C_8  and  O_14
REMARK                            x       y       z     vdW  Elec       q    Type
REMARK                         _______ _______ _______ _____ _____    ______ ____
ROOT
ATOM      1  O   UNL     1      45.637  -7.171   9.880  0.00  0.00    +0.000 OA
ATOM      2  O   UNL     1      47.957  -7.190   9.526  0.00  0.00    +0.000 OA
ATOM      3  C   UNL     1      44.834  -5.910  11.876  0.00  0.00    +0.000 A 
ATOM      4  C   UNL     1      44.562  -6.705  10.728  0.00  0.00    +0.000 A 
ATOM      5  C   UNL     1      43.809  -5.460  12.692  0.00  0.00    +0.000 A 
ATOM      6  C   UNL     1      43.265  -7.058  10.383  0.00  0.00    +0.000 A 
ATOM      7  C   UNL     1      42.509  -5.816  12.343  0.00  0.00    +0.000 A 
ATOM      8  C   UNL     1      42.244  -6.600  11.210  0.00  0.00    +0.000 A 
ATOM      9  C   UNL     1      46.211  -5.644  12.080  0.00  0.00    +0.000 A 
ATOM     10  C   UNL     1      47.083  -6.039  11.368  0.00  0.00    +0.000 A 
ATOM     11  C   UNL     1      46.988  -6.843  10.181  0.00  0.00    +0.000 A 
ENDROOT
BRANCH   7  12
ATOM     12  O   UNL     1      41.441  -5.410  13.099  0.00  0.00    +0.000 OA
ATOM     13  H   UNL     1      41.779  -4.830  13.807  0.00  0.00    +0.000 HD
ENDBRANCH   7  12
BRANCH   8  14
ATOM     14  O   UNL     1      40.951  -6.926  10.905  0.00  0.00    +0.000 OA
ATOM     15  H   UNL     1      40.734  -7.687  11.481  0.00  0.00    +0.000 HD
ENDBRANCH   8  14
TORSDOF 2
ENDMDL
MODEL 9
REMARK VINA RESULT:      -5.5     34.409     35.664
REMARK  Name = 5281416_Esculetin.pdbqt.pdb
REMARK  2 active torsions:
REMARK  status: ('A' for Active; 'I' for Inactive)
REMARK    1  A    between atoms: C_7  and  O_12
REMARK    2  A    between atoms: C_8  and  O_14
REMARK                            x       y       z     vdW  Elec       q    Type
REMARK                         _______ _______ _______ _____ _____    ______ ____
ROOT
ATOM      1  O   UNL     1      22.774  19.482   2.669  0.00  0.00    +0.000 OA
ATOM      2  O   UNL     1      24.410  20.765   1.581  0.00  0.00    +0.000 OA
ATOM      3  C   UNL     1      20.743  20.705   3.441  0.00  0.00    +0.000 A 
ATOM      4  C   UNL     1      21.481  19.496   3.317  0.00  0.00    +0.000 A 
ATOM      5  C   UNL     1      19.505  20.726   4.061  0.00  0.00    +0.000 A 
ATOM      6  C   UNL     1      20.991  18.295   3.811  0.00  0.00    +0.000 A 
ATOM      7  C   UNL     1      19.015  19.520   4.555  0.00  0.00    +0.000 A 
ATOM      8  C   UNL     1      19.746  18.328   4.431  0.00  0.00    +0.000 A 
ATOM      9  C   UNL     1      21.390  21.836   2.883  0.00  0.00    +0.000 A 
ATOM     10  C   UNL     1      22.458  21.803   2.352  0.00  0.00    +0.000 A 
ATOM     11  C   UNL     1      23.330  20.680   2.143  0.00  0.00    +0.000 A 
ENDROOT
BRANCH   7  12
ATOM     12  O   UNL     1      17.798  19.457   5.181  0.00  0.00    +0.000 OA
ATOM     13  H   UNL     1      17.434  18.564   5.037  0.00  0.00    +0.000 HD
ENDBRANCH   7  12
BRANCH   8  14
ATOM     14  O   UNL     1      19.227  17.165   4.931  0.00  0.00    +0.000 OA
ATOM     15  H   UNL     1      18.355  17.410   5.301  0.00  0.00    +0.000 HD
ENDBRANCH   8  14
TORSDOF 2
ENDMDL
