MODEL 1
REMARK VINA RESULT:      -7.1      0.000      0.000
REMARK  Name = 5281224_Astaxanthin.pdbqt.pdb
REMARK  16 active torsions:
REMARK  status: ('A' for Active; 'I' for Inactive)
REMARK    1  A    between atoms: C_1  and  C_5
REMARK    2  A    between atoms: C_2  and  C_27
REMARK    3  A    between atoms: C_3  and  C_5
REMARK    4  A    between atoms: C_3  and  C_7
REMARK    5  A    between atoms: C_6  and  C_10
REMARK    6  A    between atoms: C_8  and  C_10
REMARK    7  A    between atoms: C_8  and  C_12
REMARK    8  A    between atoms: C_11  and  C_16
REMARK    9  A    between atoms: C_17  and  O_23
REMARK   10  A    between atoms: C_25  and  C_27
REMARK   11  A    between atoms: C_25  and  C_29
REMARK   12  A    between atoms: C_28  and  C_32
REMARK   13  A    between atoms: C_30  and  C_32
REMARK   14  A    between atoms: C_30  and  C_34
REMARK   15  A    between atoms: C_33  and  C_38
REMARK   16  A    between atoms: C_39  and  O_45
REMARK                            x       y       z     vdW  Elec       q    Type
REMARK                         _______ _______ _______ _____ _____    ______ ____
ROOT
ATOM      1  C   UNL     1      47.999  -9.121  18.856  0.00  0.00    +0.000 C 
ATOM      2  C   UNL     1      47.597 -10.205  19.179  0.00  0.00    +0.000 C 
ENDROOT
BRANCH   2   3
ATOM      3  C   UNL     1      47.080 -11.587  19.598  0.00  0.00    +0.000 C 
BRANCH   3   4
ATOM      4  C   UNL     1      46.648 -12.757  19.950  0.00  0.00    +0.000 C 
ATOM      5  C   UNL     1      47.589 -13.924  19.976  0.00  0.00    +0.000 C 
BRANCH   4   7
ATOM      6  C   UNL     1      44.109 -13.114  20.467  0.00  0.00    +0.000 C 
ATOM      7  C   UNL     1      45.275 -12.949  20.231  0.00  0.00    +0.000 C 
BRANCH   6   8
ATOM      8  C   UNL     1      42.621 -13.329  20.766  0.00  0.00    +0.000 C 
BRANCH   8   9
ATOM      9  C   UNL     1      41.359 -13.509  21.011  0.00  0.00    +0.000 C 
ATOM     10  C   UNL     1      40.867 -13.521  22.426  0.00  0.00    +0.000 C 
BRANCH   9  12
ATOM     11  C   UNL     1      39.660 -13.554  19.017  0.00  0.00    +0.000 C 
ATOM     12  C   UNL     1      40.433 -13.540  19.939  0.00  0.00    +0.000 C 
BRANCH  11  16
ATOM     13  O   UNL     1      38.695 -14.385  14.285  0.00  0.00    +0.000 OA
ATOM     14  C   UNL     1      37.282 -13.102  18.164  0.00  0.00    +0.000 C 
ATOM     15  C   UNL     1      36.606 -13.212  16.883  0.00  0.00    +0.000 C 
ATOM     16  C   UNL     1      38.739 -13.559  17.898  0.00  0.00    +0.000 C 
ATOM     17  C   UNL     1      36.914 -13.594  15.582  0.00  0.00    +0.000 C 
ATOM     18  C   UNL     1      36.633 -14.056  19.194  0.00  0.00    +0.000 C 
ATOM     19  C   UNL     1      37.283 -11.633  18.643  0.00  0.00    +0.000 C 
ATOM     20  C   UNL     1      39.173 -13.964  16.667  0.00  0.00    +0.000 C 
ATOM     21  C   UNL     1      38.317 -14.023  15.391  0.00  0.00    +0.000 C 
ATOM     22  C   UNL     1      40.632 -14.413  16.512  0.00  0.00    +0.000 C 
BRANCH  17  23
ATOM     23  O   UNL     1      35.999 -13.581  14.563  0.00  0.00    +0.000 OA
ATOM     24  H   UNL     1      36.379 -13.168  13.761  0.00  0.00    +0.000 HD
ENDBRANCH  17  23
ENDBRANCH  11  16
ENDBRANCH   9  12
ENDBRANCH   8   9
ENDBRANCH   6   8
ENDBRANCH   4   7
ENDBRANCH   3   4
ENDBRANCH   2   3
BRANCH   1  25
ATOM     25  C   UNL     1      48.508  -7.732  18.452  0.00  0.00    +0.000 C 
BRANCH  25  26
ATOM     26  C   UNL     1      48.941  -6.558  18.115  0.00  0.00    +0.000 C 
ATOM     27  C   UNL     1      50.135  -5.975  18.810  0.00  0.00    +0.000 C 
BRANCH  26  29
ATOM     28  C   UNL     1      47.638  -5.144  16.342  0.00  0.00    +0.000 C 
ATOM     29  C   UNL     1      48.238  -5.793  17.155  0.00  0.00    +0.000 C 
BRANCH  28  30
ATOM     30  C   UNL     1      46.869  -4.315  15.305  0.00  0.00    +0.000 C 
BRANCH  30  31
ATOM     31  C   UNL     1      46.222  -3.621  14.423  0.00  0.00    +0.000 C 
ATOM     32  C   UNL     1      46.191  -2.125  14.524  0.00  0.00    +0.000 C 
BRANCH  31  34
ATOM     33  C   UNL     1      45.203  -4.807  12.321  0.00  0.00    +0.000 C 
ATOM     34  C   UNL     1      45.682  -4.263  13.281  0.00  0.00    +0.000 C 
BRANCH  33  38
ATOM     35  O   UNL     1      45.539  -7.858   8.500  0.00  0.00    +0.000 OA
ATOM     36  C   UNL     1      43.122  -5.159  10.861  0.00  0.00    +0.000 C 
ATOM     37  C   UNL     1      42.810  -5.947   9.680  0.00  0.00    +0.000 C 
ATOM     38  C   UNL     1      44.609  -5.465  11.173  0.00  0.00    +0.000 C 
ATOM     39  C   UNL     1      43.460  -6.835   8.828  0.00  0.00    +0.000 C 
ATOM     40  C   UNL     1      42.250  -5.618  12.054  0.00  0.00    +0.000 C 
ATOM     41  C   UNL     1      42.959  -3.654  10.556  0.00  0.00    +0.000 C 
ATOM     42  C   UNL     1      45.362  -6.321  10.421  0.00  0.00    +0.000 C 
ATOM     43  C   UNL     1      44.874  -7.088   9.182  0.00  0.00    +0.000 C 
ATOM     44  C   UNL     1      46.822  -6.567  10.825  0.00  0.00    +0.000 C 
BRANCH  39  45
ATOM     45  O   UNL     1      42.846  -7.428   7.759  0.00  0.00    +0.000 OA
ATOM     46  H   UNL     1      42.830  -6.823   6.989  0.00  0.00    +0.000 HD
ENDBRANCH  39  45
ENDBRANCH  33  38
ENDBRANCH  31  34
ENDBRANCH  30  31
ENDBRANCH  28  30
ENDBRANCH  26  29
ENDBRANCH  25  26
ENDBRANCH   1  25
TORSDOF 16
ENDMDL
MODEL 2
REMARK VINA RESULT:      -7.1     12.052     17.719
REMARK  Name = 5281224_Astaxanthin.pdbqt.pdb
REMARK  16 active torsions:
REMARK  status: ('A' for Active; 'I' for Inactive)
REMARK    1  A    between atoms: C_1  and  C_5
REMARK    2  A    between atoms: C_2  and  C_27
REMARK    3  A    between atoms: C_3  and  C_5
REMARK    4  A    between atoms: C_3  and  C_7
REMARK    5  A    between atoms: C_6  and  C_10
REMARK    6  A    between atoms: C_8  and  C_10
REMARK    7  A    between atoms: C_8  and  C_12
REMARK    8  A    between atoms: C_11  and  C_16
REMARK    9  A    between atoms: C_17  and  O_23
REMARK   10  A    between atoms: C_25  and  C_27
REMARK   11  A    between atoms: C_25  and  C_29
REMARK   12  A    between atoms: C_28  and  C_32
REMARK   13  A    between atoms: C_30  and  C_32
REMARK   14  A    between atoms: C_30  and  C_34
REMARK   15  A    between atoms: C_33  and  C_38
REMARK   16  A    between atoms: C_39  and  O_45
REMARK                            x       y       z     vdW  Elec       q    Type
REMARK                         _______ _______ _______ _____ _____    ______ ____
ROOT
ATOM      1  C   UNL     1      44.737   3.659  16.400  0.00  0.00    +0.000 C 
ATOM      2  C   UNL     1      44.122   3.973  17.380  0.00  0.00    +0.000 C 
ENDROOT
BRANCH   2   3
ATOM      3  C   UNL     1      43.339   4.383  18.635  0.00  0.00    +0.000 C 
BRANCH   3   4
ATOM      4  C   UNL     1      42.682   4.724  19.698  0.00  0.00    +0.000 C 
ATOM      5  C   UNL     1      42.810   3.910  20.950  0.00  0.00    +0.000 C 
BRANCH   4   7
ATOM      6  C   UNL     1      41.023   6.746  19.616  0.00  0.00    +0.000 C 
ATOM      7  C   UNL     1      41.783   5.817  19.653  0.00  0.00    +0.000 C 
BRANCH   6   8
ATOM      8  C   UNL     1      40.056   7.934  19.568  0.00  0.00    +0.000 C 
BRANCH   8   9
ATOM      9  C   UNL     1      39.238   8.940  19.519  0.00  0.00    +0.000 C 
ATOM     10  C   UNL     1      38.080   8.916  18.568  0.00  0.00    +0.000 C 
BRANCH   9  12
ATOM     11  C   UNL     1      39.471  10.868  21.277  0.00  0.00    +0.000 C 
ATOM     12  C   UNL     1      39.352   9.985  20.468  0.00  0.00    +0.000 C 
BRANCH  11  16
ATOM     13  O   UNL     1      41.044  12.452  25.640  0.00  0.00    +0.000 OA
ATOM     14  C   UNL     1      39.086  13.332  21.886  0.00  0.00    +0.000 C 
ATOM     15  C   UNL     1      39.385  14.170  23.034  0.00  0.00    +0.000 C 
ATOM     16  C   UNL     1      39.631  11.927  22.254  0.00  0.00    +0.000 C 
ATOM     17  C   UNL     1      39.988  14.039  24.281  0.00  0.00    +0.000 C 
ATOM     18  C   UNL     1      39.834  13.853  20.636  0.00  0.00    +0.000 C 
ATOM     19  C   UNL     1      37.559  13.251  21.667  0.00  0.00    +0.000 C 
ATOM     20  C   UNL     1      40.249  11.663  23.443  0.00  0.00    +0.000 C 
ATOM     21  C   UNL     1      40.490  12.678  24.572  0.00  0.00    +0.000 C 
ATOM     22  C   UNL     1      40.766  10.241  23.703  0.00  0.00    +0.000 C 
BRANCH  17  23
ATOM     23  O   UNL     1      40.114  15.078  25.164  0.00  0.00    +0.000 OA
ATOM     24  H   UNL     1      39.316  15.154  25.726  0.00  0.00    +0.000 HD
ENDBRANCH  17  23
ENDBRANCH  11  16
ENDBRANCH   9  12
ENDBRANCH   8   9
ENDBRANCH   6   8
ENDBRANCH   4   7
ENDBRANCH   3   4
ENDBRANCH   2   3
BRANCH   1  25
ATOM     25  C   UNL     1      45.531   3.264  15.149  0.00  0.00    +0.000 C 
BRANCH  25  26
ATOM     26  C   UNL     1      46.203   2.926  14.093  0.00  0.00    +0.000 C 
ATOM     27  C   UNL     1      46.563   3.965  13.073  0.00  0.00    +0.000 C 
BRANCH  26  29
ATOM     28  C   UNL     1      46.792   0.414  13.668  0.00  0.00    +0.000 C 
ATOM     29  C   UNL     1      46.521   1.568  13.862  0.00  0.00    +0.000 C 
BRANCH  28  30
ATOM     30  C   UNL     1      47.142  -1.060  13.422  0.00  0.00    +0.000 C 
BRANCH  30  31
ATOM     31  C   UNL     1      47.430  -2.306  13.221  0.00  0.00    +0.000 C 
ATOM     32  C   UNL     1      48.851  -2.772  13.325  0.00  0.00    +0.000 C 
BRANCH  31  34
ATOM     33  C   UNL     1      45.509  -4.060  12.903  0.00  0.00    +0.000 C 
ATOM     34  C   UNL     1      46.387  -3.253  13.060  0.00  0.00    +0.000 C 
BRANCH  33  38
ATOM     35  O   UNL     1      43.221  -7.337  10.067  0.00  0.00    +0.000 OA
ATOM     36  C   UNL     1      43.473  -5.288  13.867  0.00  0.00    +0.000 C 
ATOM     37  C   UNL     1      42.546  -6.294  13.376  0.00  0.00    +0.000 C 
ATOM     38  C   UNL     1      44.456  -5.034  12.695  0.00  0.00    +0.000 C 
ATOM     39  C   UNL     1      42.337  -7.028  12.212  0.00  0.00    +0.000 C 
ATOM     40  C   UNL     1      44.261  -5.836  15.079  0.00  0.00    +0.000 C 
ATOM     41  C   UNL     1      42.716  -3.983  14.196  0.00  0.00    +0.000 C 
ATOM     42  C   UNL     1      44.367  -5.689  11.500  0.00  0.00    +0.000 C 
ATOM     43  C   UNL     1      43.310  -6.743  11.134  0.00  0.00    +0.000 C 
ATOM     44  C   UNL     1      45.401  -5.375  10.410  0.00  0.00    +0.000 C 
BRANCH  39  45
ATOM     45  O   UNL     1      41.324  -7.938  12.074  0.00  0.00    +0.000 OA
ATOM     46  H   UNL     1      40.468  -7.547  12.347  0.00  0.00    +0.000 HD
ENDBRANCH  39  45
ENDBRANCH  33  38
ENDBRANCH  31  34
ENDBRANCH  30  31
ENDBRANCH  28  30
ENDBRANCH  26  29
ENDBRANCH  25  26
ENDBRANCH   1  25
TORSDOF 16
ENDMDL
MODEL 3
REMARK VINA RESULT:      -6.8     12.130     17.808
REMARK  Name = 5281224_Astaxanthin.pdbqt.pdb
REMARK  16 active torsions:
REMARK  status: ('A' for Active; 'I' for Inactive)
REMARK    1  A    between atoms: C_1  and  C_5
REMARK    2  A    between atoms: C_2  and  C_27
REMARK    3  A    between atoms: C_3  and  C_5
REMARK    4  A    between atoms: C_3  and  C_7
REMARK    5  A    between atoms: C_6  and  C_10
REMARK    6  A    between atoms: C_8  and  C_10
REMARK    7  A    between atoms: C_8  and  C_12
REMARK    8  A    between atoms: C_11  and  C_16
REMARK    9  A    between atoms: C_17  and  O_23
REMARK   10  A    between atoms: C_25  and  C_27
REMARK   11  A    between atoms: C_25  and  C_29
REMARK   12  A    between atoms: C_28  and  C_32
REMARK   13  A    between atoms: C_30  and  C_32
REMARK   14  A    between atoms: C_30  and  C_34
REMARK   15  A    between atoms: C_33  and  C_38
REMARK   16  A    between atoms: C_39  and  O_45
REMARK                            x       y       z     vdW  Elec       q    Type
REMARK                         _______ _______ _______ _____ _____    ______ ____
ROOT
ATOM      1  C   UNL     1      44.731   3.291  16.997  0.00  0.00    +0.000 C 
ATOM      2  C   UNL     1      44.209   3.775  17.962  0.00  0.00    +0.000 C 
ENDROOT
BRANCH   2   3
ATOM      3  C   UNL     1      43.546   4.402  19.195  0.00  0.00    +0.000 C 
BRANCH   3   4
ATOM      4  C   UNL     1      42.990   4.928  20.241  0.00  0.00    +0.000 C 
ATOM      5  C   UNL     1      43.215   4.321  21.593  0.00  0.00    +0.000 C 
BRANCH   4   7
ATOM      6  C   UNL     1      41.362   6.958  19.973  0.00  0.00    +0.000 C 
ATOM      7  C   UNL     1      42.107   6.025  20.096  0.00  0.00    +0.000 C 
BRANCH   6   8
ATOM      8  C   UNL     1      40.412   8.151  19.815  0.00  0.00    +0.000 C 
BRANCH   8   9
ATOM      9  C   UNL     1      39.609   9.160  19.672  0.00  0.00    +0.000 C 
ATOM     10  C   UNL     1      38.563   9.136  18.601  0.00  0.00    +0.000 C 
BRANCH   9  12
ATOM     11  C   UNL     1      39.660  11.101  21.431  0.00  0.00    +0.000 C 
ATOM     12  C   UNL     1      39.625  10.210  20.623  0.00  0.00    +0.000 C 
BRANCH  11  16
ATOM     13  O   UNL     1      41.081  12.835  25.789  0.00  0.00    +0.000 OA
ATOM     14  C   UNL     1      39.046  13.519  22.036  0.00  0.00    +0.000 C 
ATOM     15  C   UNL     1      39.265  14.384  23.182  0.00  0.00    +0.000 C 
ATOM     16  C   UNL     1      39.721  12.172  22.406  0.00  0.00    +0.000 C 
ATOM     17  C   UNL     1      39.879  14.313  24.428  0.00  0.00    +0.000 C 
ATOM     18  C   UNL     1      39.740  14.105  20.784  0.00  0.00    +0.000 C 
ATOM     19  C   UNL     1      37.533  13.293  21.819  0.00  0.00    +0.000 C 
ATOM     20  C   UNL     1      40.362  11.970  23.594  0.00  0.00    +0.000 C 
ATOM     21  C   UNL     1      40.508  13.006  24.721  0.00  0.00    +0.000 C 
ATOM     22  C   UNL     1      41.012  10.604  23.857  0.00  0.00    +0.000 C 
BRANCH  17  23
ATOM     23  O   UNL     1      39.907  15.361  25.309  0.00  0.00    +0.000 OA
ATOM     24  H   UNL     1      40.126  15.051  26.211  0.00  0.00    +0.000 HD
ENDBRANCH  17  23
ENDBRANCH  11  16
ENDBRANCH   9  12
ENDBRANCH   8   9
ENDBRANCH   6   8
ENDBRANCH   4   7
ENDBRANCH   3   4
ENDBRANCH   2   3
BRANCH   1  25
ATOM     25  C   UNL     1      45.404   2.680  15.762  0.00  0.00    +0.000 C 
BRANCH  25  26
ATOM     26  C   UNL     1      45.973   2.160  14.720  0.00  0.00    +0.000 C 
ATOM     27  C   UNL     1      46.343   3.031  13.557  0.00  0.00    +0.000 C 
BRANCH  26  29
ATOM     28  C   UNL     1      46.332  -0.427  14.578  0.00  0.00    +0.000 C 
ATOM     29  C   UNL     1      46.166   0.760  14.644  0.00  0.00    +0.000 C 
BRANCH  28  30
ATOM     30  C   UNL     1      46.546  -1.944  14.491  0.00  0.00    +0.000 C 
BRANCH  30  31
ATOM     31  C   UNL     1      46.736  -3.224  14.420  0.00  0.00    +0.000 C 
ATOM     32  C   UNL     1      47.359  -3.953  15.571  0.00  0.00    +0.000 C 
BRANCH  31  34
ATOM     33  C   UNL     1      45.746  -4.565  12.398  0.00  0.00    +0.000 C 
ATOM     34  C   UNL     1      46.211  -3.952  13.323  0.00  0.00    +0.000 C 
BRANCH  33  38
ATOM     35  O   UNL     1      41.897  -6.681  10.224  0.00  0.00    +0.000 OA
ATOM     36  C   UNL     1      46.106  -5.693  10.122  0.00  0.00    +0.000 C 
ATOM     37  C   UNL     1      45.262  -6.409   9.179  0.00  0.00    +0.000 C 
ATOM     38  C   UNL     1      45.167  -5.303  11.292  0.00  0.00    +0.000 C 
ATOM     39  C   UNL     1      43.931  -6.799   9.072  0.00  0.00    +0.000 C 
ATOM     40  C   UNL     1      46.663  -4.407   9.469  0.00  0.00    +0.000 C 
ATOM     41  C   UNL     1      47.224  -6.621  10.646  0.00  0.00    +0.000 C 
ATOM     42  C   UNL     1      43.839  -5.619  11.312  0.00  0.00    +0.000 C 
ATOM     43  C   UNL     1      43.087  -6.393  10.217  0.00  0.00    +0.000 C 
ATOM     44  C   UNL     1      42.993  -5.171  12.512  0.00  0.00    +0.000 C 
BRANCH  39  45
ATOM     45  O   UNL     1      43.440  -7.494   8.000  0.00  0.00    +0.000 OA
ATOM     46  H   UNL     1      43.476  -8.458   8.166  0.00  0.00    +0.000 HD
ENDBRANCH  39  45
ENDBRANCH  33  38
ENDBRANCH  31  34
ENDBRANCH  30  31
ENDBRANCH  28  30
ENDBRANCH  26  29
ENDBRANCH  25  26
ENDBRANCH   1  25
TORSDOF 16
ENDMDL
MODEL 4
REMARK VINA RESULT:      -6.6     27.543     32.328
REMARK  Name = 5281224_Astaxanthin.pdbqt.pdb
REMARK  16 active torsions:
REMARK  status: ('A' for Active; 'I' for Inactive)
REMARK    1  A    between atoms: C_1  and  C_5
REMARK    2  A    between atoms: C_2  and  C_27
REMARK    3  A    between atoms: C_3  and  C_5
REMARK    4  A    between atoms: C_3  and  C_7
REMARK    5  A    between atoms: C_6  and  C_10
REMARK    6  A    between atoms: C_8  and  C_10
REMARK    7  A    between atoms: C_8  and  C_12
REMARK    8  A    between atoms: C_11  and  C_16
REMARK    9  A    between atoms: C_17  and  O_23
REMARK   10  A    between atoms: C_25  and  C_27
REMARK   11  A    between atoms: C_25  and  C_29
REMARK   12  A    between atoms: C_28  and  C_32
REMARK   13  A    between atoms: C_30  and  C_32
REMARK   14  A    between atoms: C_30  and  C_34
REMARK   15  A    between atoms: C_33  and  C_38
REMARK   16  A    between atoms: C_39  and  O_45
REMARK                            x       y       z     vdW  Elec       q    Type
REMARK                         _______ _______ _______ _____ _____    ______ ____
ROOT
ATOM      1  C   UNL     1      23.472   4.031  35.398  0.00  0.00    +0.000 C 
ATOM      2  C   UNL     1      23.573   5.174  35.749  0.00  0.00    +0.000 C 
ENDROOT
BRANCH   2   3
ATOM      3  C   UNL     1      23.698   6.633  36.203  0.00  0.00    +0.000 C 
BRANCH   3   4
ATOM      4  C   UNL     1      23.804   7.868  36.582  0.00  0.00    +0.000 C 
ATOM      5  C   UNL     1      24.973   8.296  37.416  0.00  0.00    +0.000 C 
BRANCH   4   7
ATOM      6  C   UNL     1      21.907   9.576  36.010  0.00  0.00    +0.000 C 
ATOM      7  C   UNL     1      22.778   8.793  36.275  0.00  0.00    +0.000 C 
BRANCH   6   8
ATOM      8  C   UNL     1      20.793  10.573  35.671  0.00  0.00    +0.000 C 
BRANCH   8   9
ATOM      9  C   UNL     1      19.846  11.411  35.379  0.00  0.00    +0.000 C 
ATOM     10  C   UNL     1      18.538  11.343  36.107  0.00  0.00    +0.000 C 
BRANCH   9  12
ATOM     11  C   UNL     1      20.333  13.399  33.744  0.00  0.00    +0.000 C 
ATOM     12  C   UNL     1      20.105  12.480  34.486  0.00  0.00    +0.000 C 
BRANCH  11  16
ATOM     13  O   UNL     1      22.675  15.313  29.887  0.00  0.00    +0.000 OA
ATOM     14  C   UNL     1      19.884  15.854  33.146  0.00  0.00    +0.000 C 
ATOM     15  C   UNL     1      20.355  16.770  32.121  0.00  0.00    +0.000 C 
ATOM     16  C   UNL     1      20.615  14.516  32.864  0.00  0.00    +0.000 C 
ATOM     17  C   UNL     1      21.227  16.749  31.037  0.00  0.00    +0.000 C 
ATOM     18  C   UNL     1      18.359  15.637  33.007  0.00  0.00    +0.000 C 
ATOM     19  C   UNL     1      20.281  16.371  34.546  0.00  0.00    +0.000 C 
ATOM     20  C   UNL     1      21.493  14.357  31.830  0.00  0.00    +0.000 C 
ATOM     21  C   UNL     1      21.890  15.444  30.817  0.00  0.00    +0.000 C 
ATOM     22  C   UNL     1      22.152  12.986  31.627  0.00  0.00    +0.000 C 
BRANCH  17  23
ATOM     23  O   UNL     1      21.452  17.837  30.237  0.00  0.00    +0.000 OA
ATOM     24  H   UNL     1      20.735  17.936  29.577  0.00  0.00    +0.000 HD
ENDBRANCH  17  23
ENDBRANCH  11  16
ENDBRANCH   9  12
ENDBRANCH   8   9
ENDBRANCH   6   8
ENDBRANCH   4   7
ENDBRANCH   3   4
ENDBRANCH   2   3
BRANCH   1  25
ATOM     25  C   UNL     1      23.336   2.568  34.958  0.00  0.00    +0.000 C 
BRANCH  25  26
ATOM     26  C   UNL     1      23.217   1.333  34.583  0.00  0.00    +0.000 C 
ATOM     27  C   UNL     1      22.563   0.336  35.493  0.00  0.00    +0.000 C 
BRANCH  26  29
ATOM     28  C   UNL     1      24.258   0.546  32.317  0.00  0.00    +0.000 C 
ATOM     29  C   UNL     1      23.780   0.909  33.357  0.00  0.00    +0.000 C 
BRANCH  28  30
ATOM     30  C   UNL     1      24.871   0.079  30.990  0.00  0.00    +0.000 C 
BRANCH  30  31
ATOM     31  C   UNL     1      25.396  -0.314  29.873  0.00  0.00    +0.000 C 
ATOM     32  C   UNL     1      26.406   0.547  29.176  0.00  0.00    +0.000 C 
BRANCH  31  34
ATOM     33  C   UNL     1      24.934  -2.735  28.984  0.00  0.00    +0.000 C 
ATOM     34  C   UNL     1      25.135  -1.623  29.396  0.00  0.00    +0.000 C 
BRANCH  33  38
ATOM     35  O   UNL     1      23.774  -5.780  25.323  0.00  0.00    +0.000 OA
ATOM     36  C   UNL     1      24.887  -5.255  29.469  0.00  0.00    +0.000 C 
ATOM     37  C   UNL     1      24.602  -6.451  28.693  0.00  0.00    +0.000 C 
ATOM     38  C   UNL     1      24.708  -4.076  28.478  0.00  0.00    +0.000 C 
ATOM     39  C   UNL     1      24.238  -6.776  27.390  0.00  0.00    +0.000 C 
ATOM     40  C   UNL     1      26.352  -5.280  29.967  0.00  0.00    +0.000 C 
ATOM     41  C   UNL     1      23.873  -5.115  30.625  0.00  0.00    +0.000 C 
ATOM     42  C   UNL     1      24.358  -4.254  27.171  0.00  0.00    +0.000 C 
ATOM     43  C   UNL     1      24.088  -5.608  26.494  0.00  0.00    +0.000 C 
ATOM     44  C   UNL     1      24.223  -3.020  26.269  0.00  0.00    +0.000 C 
BRANCH  39  45
ATOM     45  O   UNL     1      24.041  -8.063  26.969  0.00  0.00    +0.000 OA
ATOM     46  H   UNL     1      24.856  -8.594  27.084  0.00  0.00    +0.000 HD
ENDBRANCH  39  45
ENDBRANCH  33  38
ENDBRANCH  31  34
ENDBRANCH  30  31
ENDBRANCH  28  30
ENDBRANCH  26  29
ENDBRANCH  25  26
ENDBRANCH   1  25
TORSDOF 16
ENDMDL
MODEL 5
REMARK VINA RESULT:      -6.6     16.075     20.909
REMARK  Name = 5281224_Astaxanthin.pdbqt.pdb
REMARK  16 active torsions:
REMARK  status: ('A' for Active; 'I' for Inactive)
REMARK    1  A    between atoms: C_1  and  C_5
REMARK    2  A    between atoms: C_2  and  C_27
REMARK    3  A    between atoms: C_3  and  C_5
REMARK    4  A    between atoms: C_3  and  C_7
REMARK    5  A    between atoms: C_6  and  C_10
REMARK    6  A    between atoms: C_8  and  C_10
REMARK    7  A    between atoms: C_8  and  C_12
REMARK    8  A    between atoms: C_11  and  C_16
REMARK    9  A    between atoms: C_17  and  O_23
REMARK   10  A    between atoms: C_25  and  C_27
REMARK   11  A    between atoms: C_25  and  C_29
REMARK   12  A    between atoms: C_28  and  C_32
REMARK   13  A    between atoms: C_30  and  C_32
REMARK   14  A    between atoms: C_30  and  C_34
REMARK   15  A    between atoms: C_33  and  C_38
REMARK   16  A    between atoms: C_39  and  O_45
REMARK                            x       y       z     vdW  Elec       q    Type
REMARK                         _______ _______ _______ _____ _____    ______ ____
ROOT
ATOM      1  C   UNL     1      28.898  -5.516  16.897  0.00  0.00    +0.000 C 
ATOM      2  C   UNL     1      28.903  -6.165  17.906  0.00  0.00    +0.000 C 
ENDROOT
BRANCH   2   3
ATOM      3  C   UNL     1      28.913  -7.002  19.192  0.00  0.00    +0.000 C 
BRANCH   3   4
ATOM      4  C   UNL     1      28.919  -7.704  20.281  0.00  0.00    +0.000 C 
ATOM      5  C   UNL     1      29.650  -9.012  20.323  0.00  0.00    +0.000 C 
BRANCH   4   7
ATOM      6  C   UNL     1      27.537  -6.911  22.355  0.00  0.00    +0.000 C 
ATOM      7  C   UNL     1      28.169  -7.276  21.402  0.00  0.00    +0.000 C 
BRANCH   6   8
ATOM      8  C   UNL     1      26.731  -6.443  23.573  0.00  0.00    +0.000 C 
BRANCH   8   9
ATOM      9  C   UNL     1      26.043  -6.047  24.599  0.00  0.00    +0.000 C 
ATOM     10  C   UNL     1      24.546  -6.084  24.554  0.00  0.00    +0.000 C 
BRANCH   9  12
ATOM     11  C   UNL     1      27.263  -5.432  26.834  0.00  0.00    +0.000 C 
ATOM     12  C   UNL     1      26.707  -5.725  25.808  0.00  0.00    +0.000 C 
BRANCH  11  16
ATOM     13  O   UNL     1      29.158  -6.629  31.192  0.00  0.00    +0.000 OA
ATOM     14  C   UNL     1      28.302  -3.568  28.261  0.00  0.00    +0.000 C 
ATOM     15  C   UNL     1      28.945  -3.500  29.562  0.00  0.00    +0.000 C 
ATOM     16  C   UNL     1      27.928  -5.060  28.067  0.00  0.00    +0.000 C 
ATOM     17  C   UNL     1      29.282  -4.369  30.595  0.00  0.00    +0.000 C 
ATOM     18  C   UNL     1      29.295  -3.148  27.152  0.00  0.00    +0.000 C 
ATOM     19  C   UNL     1      27.017  -2.711  28.256  0.00  0.00    +0.000 C 
ATOM     20  C   UNL     1      28.206  -6.018  29.001  0.00  0.00    +0.000 C 
ATOM     21  C   UNL     1      28.904  -5.779  30.350  0.00  0.00    +0.000 C 
ATOM     22  C   UNL     1      27.808  -7.471  28.705  0.00  0.00    +0.000 C 
BRANCH  17  23
ATOM     23  O   UNL     1      29.915  -3.961  31.738  0.00  0.00    +0.000 OA
ATOM     24  H   UNL     1      30.483  -4.675  32.094  0.00  0.00    +0.000 HD
ENDBRANCH  17  23
ENDBRANCH  11  16
ENDBRANCH   9  12
ENDBRANCH   8   9
ENDBRANCH   6   8
ENDBRANCH   4   7
ENDBRANCH   3   4
ENDBRANCH   2   3
BRANCH   1  25
ATOM     25  C   UNL     1      28.893  -4.694  15.603  0.00  0.00    +0.000 C 
BRANCH  25  26
ATOM     26  C   UNL     1      28.888  -3.996  14.511  0.00  0.00    +0.000 C 
ATOM     27  C   UNL     1      30.130  -3.906  13.676  0.00  0.00    +0.000 C 
BRANCH  26  29
ATOM     28  C   UNL     1      26.765  -2.619  13.849  0.00  0.00    +0.000 C 
ATOM     29  C   UNL     1      27.740  -3.250  14.154  0.00  0.00    +0.000 C 
BRANCH  28  30
ATOM     30  C   UNL     1      25.519  -1.814  13.456  0.00  0.00    +0.000 C 
BRANCH  30  31
ATOM     31  C   UNL     1      24.464  -1.137  13.132  0.00  0.00    +0.000 C 
ATOM     32  C   UNL     1      24.606   0.190  12.449  0.00  0.00    +0.000 C 
BRANCH  31  34
ATOM     33  C   UNL     1      22.099  -2.228  13.421  0.00  0.00    +0.000 C 
ATOM     34  C   UNL     1      23.181  -1.720  13.279  0.00  0.00    +0.000 C 
BRANCH  33  38
ATOM     35  O   UNL     1      18.681  -4.205  16.324  0.00  0.00    +0.000 OA
ATOM     36  C   UNL     1      19.933  -3.080  12.340  0.00  0.00    +0.000 C 
ATOM     37  C   UNL     1      18.716  -3.711  12.824  0.00  0.00    +0.000 C 
ATOM     38  C   UNL     1      20.804  -2.854  13.603  0.00  0.00    +0.000 C 
ATOM     39  C   UNL     1      18.180  -4.128  14.039  0.00  0.00    +0.000 C 
ATOM     40  C   UNL     1      19.605  -1.711  11.699  0.00  0.00    +0.000 C 
ATOM     41  C   UNL     1      20.672  -4.025  11.367  0.00  0.00    +0.000 C 
ATOM     42  C   UNL     1      20.397  -3.212  14.856  0.00  0.00    +0.000 C 
ATOM     43  C   UNL     1      19.057  -3.880  15.204  0.00  0.00    +0.000 C 
ATOM     44  C   UNL     1      21.329  -2.929  16.042  0.00  0.00    +0.000 C 
BRANCH  39  45
ATOM     45  O   UNL     1      16.948  -4.712  14.149  0.00  0.00    +0.000 OA
ATOM     46  H   UNL     1      16.266  -4.044  14.372  0.00  0.00    +0.000 HD
ENDBRANCH  39  45
ENDBRANCH  33  38
ENDBRANCH  31  34
ENDBRANCH  30  31
ENDBRANCH  28  30
ENDBRANCH  26  29
ENDBRANCH  25  26
ENDBRANCH   1  25
TORSDOF 16
ENDMDL
MODEL 6
REMARK VINA RESULT:      -6.6     22.131     25.305
REMARK  Name = 5281224_Astaxanthin.pdbqt.pdb
REMARK  16 active torsions:
REMARK  status: ('A' for Active; 'I' for Inactive)
REMARK    1  A    between atoms: C_1  and  C_5
REMARK    2  A    between atoms: C_2  and  C_27
REMARK    3  A    between atoms: C_3  and  C_5
REMARK    4  A    between atoms: C_3  and  C_7
REMARK    5  A    between atoms: C_6  and  C_10
REMARK    6  A    between atoms: C_8  and  C_10
REMARK    7  A    between atoms: C_8  and  C_12
REMARK    8  A    between atoms: C_11  and  C_16
REMARK    9  A    between atoms: C_17  and  O_23
REMARK   10  A    between atoms: C_25  and  C_27
REMARK   11  A    between atoms: C_25  and  C_29
REMARK   12  A    between atoms: C_28  and  C_32
REMARK   13  A    between atoms: C_30  and  C_32
REMARK   14  A    between atoms: C_30  and  C_34
REMARK   15  A    between atoms: C_33  and  C_38
REMARK   16  A    between atoms: C_39  and  O_45
REMARK                            x       y       z     vdW  Elec       q    Type
REMARK                         _______ _______ _______ _____ _____    ______ ____
ROOT
ATOM      1  C   UNL     1      30.682   0.267  36.160  0.00  0.00    +0.000 C 
ATOM      2  C   UNL     1      29.896  -0.456  35.613  0.00  0.00    +0.000 C 
ENDROOT
BRANCH   2   3
ATOM      3  C   UNL     1      28.886  -1.372  34.911  0.00  0.00    +0.000 C 
BRANCH   3   4
ATOM      4  C   UNL     1      28.028  -2.142  34.320  0.00  0.00    +0.000 C 
ATOM      5  C   UNL     1      27.574  -3.406  34.986  0.00  0.00    +0.000 C 
BRANCH   4   7
ATOM      6  C   UNL     1      27.199  -1.570  31.905  0.00  0.00    +0.000 C 
ATOM      7  C   UNL     1      27.581  -1.832  33.013  0.00  0.00    +0.000 C 
BRANCH   6   8
ATOM      8  C   UNL     1      26.708  -1.238  30.492  0.00  0.00    +0.000 C 
BRANCH   8   9
ATOM      9  C   UNL     1      26.287  -0.951  29.298  0.00  0.00    +0.000 C 
ATOM     10  C   UNL     1      26.000   0.472  28.929  0.00  0.00    +0.000 C 
BRANCH   9  12
ATOM     11  C   UNL     1      26.190  -2.825  27.470  0.00  0.00    +0.000 C 
ATOM     12  C   UNL     1      26.246  -1.961  28.306  0.00  0.00    +0.000 C 
BRANCH  11  16
ATOM     13  O   UNL     1      23.674  -5.285  24.059  0.00  0.00    +0.000 OA
ATOM     14  C   UNL     1      27.370  -4.741  26.235  0.00  0.00    +0.000 C 
ATOM     15  C   UNL     1      26.997  -5.685  25.196  0.00  0.00    +0.000 C 
ATOM     16  C   UNL     1      26.108  -3.871  26.470  0.00  0.00    +0.000 C 
ATOM     17  C   UNL     1      25.879  -5.981  24.422  0.00  0.00    +0.000 C 
ATOM     18  C   UNL     1      28.524  -3.835  25.743  0.00  0.00    +0.000 C 
ATOM     19  C   UNL     1      27.726  -5.493  27.537  0.00  0.00    +0.000 C 
ATOM     20  C   UNL     1      24.947  -4.052  25.775  0.00  0.00    +0.000 C 
ATOM     21  C   UNL     1      24.709  -5.115  24.689  0.00  0.00    +0.000 C 
ATOM     22  C   UNL     1      23.759  -3.127  26.072  0.00  0.00    +0.000 C 
BRANCH  17  23
ATOM     23  O   UNL     1      25.861  -6.981  23.487  0.00  0.00    +0.000 OA
ATOM     24  H   UNL     1      25.601  -6.633  22.611  0.00  0.00    +0.000 HD
ENDBRANCH  17  23
ENDBRANCH  11  16
ENDBRANCH   9  12
ENDBRANCH   8   9
ENDBRANCH   6   8
ENDBRANCH   4   7
ENDBRANCH   3   4
ENDBRANCH   2   3
BRANCH   1  25
ATOM     25  C   UNL     1      31.682   1.198  36.856  0.00  0.00    +0.000 C 
BRANCH  25  26
ATOM     26  C   UNL     1      32.524   1.985  37.449  0.00  0.00    +0.000 C 
ATOM     27  C   UNL     1      33.624   1.405  38.288  0.00  0.00    +0.000 C 
BRANCH  26  29
ATOM     28  C   UNL     1      32.207   4.577  37.315  0.00  0.00    +0.000 C 
ATOM     29  C   UNL     1      32.354   3.387  37.377  0.00  0.00    +0.000 C 
BRANCH  28  30
ATOM     30  C   UNL     1      32.016   6.097  37.235  0.00  0.00    +0.000 C 
BRANCH  30  31
ATOM     31  C   UNL     1      31.855   7.382  37.176  0.00  0.00    +0.000 C 
ATOM     32  C   UNL     1      30.887   8.057  38.099  0.00  0.00    +0.000 C 
BRANCH  31  34
ATOM     33  C   UNL     1      33.424   8.809  35.637  0.00  0.00    +0.000 C 
ATOM     34  C   UNL     1      32.707   8.160  36.353  0.00  0.00    +0.000 C 
BRANCH  33  38
ATOM     35  O   UNL     1      36.471   9.082  31.809  0.00  0.00    +0.000 OA
ATOM     36  C   UNL     1      34.414  11.098  35.034  0.00  0.00    +0.000 C 
ATOM     37  C   UNL     1      35.324  11.594  34.015  0.00  0.00    +0.000 C 
ATOM     38  C   UNL     1      34.285   9.578  34.760  0.00  0.00    +0.000 C 
ATOM     39  C   UNL     1      36.049  11.086  32.941  0.00  0.00    +0.000 C 
ATOM     40  C   UNL     1      33.025  11.760  34.876  0.00  0.00    +0.000 C 
ATOM     41  C   UNL     1      35.016  11.319  36.439  0.00  0.00    +0.000 C 
ATOM     42  C   UNL     1      34.938   8.952  33.737  0.00  0.00    +0.000 C 
ATOM     43  C   UNL     1      35.881   9.632  32.730  0.00  0.00    +0.000 C 
ATOM     44  C   UNL     1      34.730   7.444  33.542  0.00  0.00    +0.000 C 
BRANCH  39  45
ATOM     45  O   UNL     1      36.846  11.863  32.145  0.00  0.00    +0.000 OA
ATOM     46  H   UNL     1      36.694  11.660  31.199  0.00  0.00    +0.000 HD
ENDBRANCH  39  45
ENDBRANCH  33  38
ENDBRANCH  31  34
ENDBRANCH  30  31
ENDBRANCH  28  30
ENDBRANCH  26  29
ENDBRANCH  25  26
ENDBRANCH   1  25
TORSDOF 16
ENDMDL
MODEL 7
REMARK VINA RESULT:      -6.5      6.161      9.326
REMARK  Name = 5281224_Astaxanthin.pdbqt.pdb
REMARK  16 active torsions:
REMARK  status: ('A' for Active; 'I' for Inactive)
REMARK    1  A    between atoms: C_1  and  C_5
REMARK    2  A    between atoms: C_2  and  C_27
REMARK    3  A    between atoms: C_3  and  C_5
REMARK    4  A    between atoms: C_3  and  C_7
REMARK    5  A    between atoms: C_6  and  C_10
REMARK    6  A    between atoms: C_8  and  C_10
REMARK    7  A    between atoms: C_8  and  C_12
REMARK    8  A    between atoms: C_11  and  C_16
REMARK    9  A    between atoms: C_17  and  O_23
REMARK   10  A    between atoms: C_25  and  C_27
REMARK   11  A    between atoms: C_25  and  C_29
REMARK   12  A    between atoms: C_28  and  C_32
REMARK   13  A    between atoms: C_30  and  C_32
REMARK   14  A    between atoms: C_30  and  C_34
REMARK   15  A    between atoms: C_33  and  C_38
REMARK   16  A    between atoms: C_39  and  O_45
REMARK                            x       y       z     vdW  Elec       q    Type
REMARK                         _______ _______ _______ _____ _____    ______ ____
ROOT
ATOM      1  C   UNL     1      46.160 -11.759   8.737  0.00  0.00    +0.000 C 
ATOM      2  C   UNL     1      46.265 -12.846   9.236  0.00  0.00    +0.000 C 
ENDROOT
BRANCH   2   3
ATOM      3  C   UNL     1      46.392 -14.236   9.871  0.00  0.00    +0.000 C 
BRANCH   3   4
ATOM      4  C   UNL     1      46.500 -15.408  10.413  0.00  0.00    +0.000 C 
ATOM      5  C   UNL     1      46.071 -16.626   9.652  0.00  0.00    +0.000 C 
BRANCH   4   7
ATOM      6  C   UNL     1      47.326 -15.638  12.885  0.00  0.00    +0.000 C 
ATOM      7  C   UNL     1      46.948 -15.531  11.750  0.00  0.00    +0.000 C 
BRANCH   6   8
ATOM      8  C   UNL     1      47.807 -15.778  14.333  0.00  0.00    +0.000 C 
BRANCH   8   9
ATOM      9  C   UNL     1      48.208 -15.892  15.562  0.00  0.00    +0.000 C 
ATOM     10  C   UNL     1      48.719 -17.208  16.062  0.00  0.00    +0.000 C 
BRANCH   9  12
ATOM     11  C   UNL     1      48.402 -13.769  17.084  0.00  0.00    +0.000 C 
ATOM     12  C   UNL     1      48.303 -14.739  16.380  0.00  0.00    +0.000 C 
BRANCH  11  16
ATOM     13  O   UNL     1      49.245  -8.978  17.688  0.00  0.00    +0.000 OA
ATOM     14  C   UNL     1      48.335 -12.813  19.466  0.00  0.00    +0.000 C 
ATOM     15  C   UNL     1      48.523 -11.500  20.057  0.00  0.00    +0.000 C 
ATOM     16  C   UNL     1      48.535 -12.607  17.942  0.00  0.00    +0.000 C 
ATOM     17  C   UNL     1      48.815 -10.207  19.633  0.00  0.00    +0.000 C 
ATOM     18  C   UNL     1      46.894 -13.313  19.724  0.00  0.00    +0.000 C 
ATOM     19  C   UNL     1      49.403 -13.796  19.996  0.00  0.00    +0.000 C 
ATOM     20  C   UNL     1      48.820 -11.390  17.393  0.00  0.00    +0.000 C 
ATOM     21  C   UNL     1      48.990 -10.074  18.170  0.00  0.00    +0.000 C 
ATOM     22  C   UNL     1      48.984 -11.290  15.870  0.00  0.00    +0.000 C 
BRANCH  17  23
ATOM     23  O   UNL     1      48.925  -9.146  20.491  0.00  0.00    +0.000 OA
ATOM     24  H   UNL     1      48.067  -8.960  20.924  0.00  0.00    +0.000 HD
ENDBRANCH  17  23
ENDBRANCH  11  16
ENDBRANCH   9  12
ENDBRANCH   8   9
ENDBRANCH   6   8
ENDBRANCH   4   7
ENDBRANCH   3   4
ENDBRANCH   2   3
BRANCH   1  25
ATOM     25  C   UNL     1      46.015 -10.374   8.096  0.00  0.00    +0.000 C 
BRANCH  25  26
ATOM     26  C   UNL     1      45.895  -9.205   7.551  0.00  0.00    +0.000 C 
ATOM     27  C   UNL     1      46.668  -8.878   6.308  0.00  0.00    +0.000 C 
BRANCH  26  29
ATOM     28  C   UNL     1      44.432  -7.368   8.702  0.00  0.00    +0.000 C 
ATOM     29  C   UNL     1      45.105  -8.210   8.174  0.00  0.00    +0.000 C 
BRANCH  28  30
ATOM     30  C   UNL     1      43.569  -6.293   9.376  0.00  0.00    +0.000 C 
BRANCH  30  31
ATOM     31  C   UNL     1      42.848  -5.382   9.948  0.00  0.00    +0.000 C 
ATOM     32  C   UNL     1      41.353  -5.440   9.850  0.00  0.00    +0.000 C 
BRANCH  31  34
ATOM     33  C   UNL     1      43.979  -3.627  11.531  0.00  0.00    +0.000 C 
ATOM     34  C   UNL     1      43.464  -4.427  10.795  0.00  0.00    +0.000 C 
BRANCH  33  38
ATOM     35  O   UNL     1      47.957  -1.438  13.378  0.00  0.00    +0.000 OA
ATOM     36  C   UNL     1      43.651  -1.835  13.339  0.00  0.00    +0.000 C 
ATOM     37  C   UNL     1      44.531  -0.980  14.118  0.00  0.00    +0.000 C 
ATOM     38  C   UNL     1      44.592  -2.671  12.434  0.00  0.00    +0.000 C 
ATOM     39  C   UNL     1      45.897  -0.743  14.244  0.00  0.00    +0.000 C 
ATOM     40  C   UNL     1      42.724  -0.974  12.447  0.00  0.00    +0.000 C 
ATOM     41  C   UNL     1      42.861  -2.779  14.272  0.00  0.00    +0.000 C 
ATOM     42  C   UNL     1      45.950  -2.536  12.454  0.00  0.00    +0.000 C 
ATOM     43  C   UNL     1      46.739  -1.569  13.352  0.00  0.00    +0.000 C 
ATOM     44  C   UNL     1      46.791  -3.401  11.506  0.00  0.00    +0.000 C 
BRANCH  39  45
ATOM     45  O   UNL     1      46.417   0.175  15.114  0.00  0.00    +0.000 OA
ATOM     46  H   UNL     1      45.883   0.996  15.112  0.00  0.00    +0.000 HD
ENDBRANCH  39  45
ENDBRANCH  33  38
ENDBRANCH  31  34
ENDBRANCH  30  31
ENDBRANCH  28  30
ENDBRANCH  26  29
ENDBRANCH  25  26
ENDBRANCH   1  25
TORSDOF 16
ENDMDL
MODEL 8
REMARK VINA RESULT:      -6.5      4.185      6.608
REMARK  Name = 5281224_Astaxanthin.pdbqt.pdb
REMARK  16 active torsions:
REMARK  status: ('A' for Active; 'I' for Inactive)
REMARK    1  A    between atoms: C_1  and  C_5
REMARK    2  A    between atoms: C_2  and  C_27
REMARK    3  A    between atoms: C_3  and  C_5
REMARK    4  A    between atoms: C_3  and  C_7
REMARK    5  A    between atoms: C_6  and  C_10
REMARK    6  A    between atoms: C_8  and  C_10
REMARK    7  A    between atoms: C_8  and  C_12
REMARK    8  A    between atoms: C_11  and  C_16
REMARK    9  A    between atoms: C_17  and  O_23
REMARK   10  A    between atoms: C_25  and  C_27
REMARK   11  A    between atoms: C_25  and  C_29
REMARK   12  A    between atoms: C_28  and  C_32
REMARK   13  A    between atoms: C_30  and  C_32
REMARK   14  A    between atoms: C_30  and  C_34
REMARK   15  A    between atoms: C_33  and  C_38
REMARK   16  A    between atoms: C_39  and  O_45
REMARK                            x       y       z     vdW  Elec       q    Type
REMARK                         _______ _______ _______ _____ _____    ______ ____
ROOT
ATOM      1  C   UNL     1      47.342 -13.624   9.542  0.00  0.00    +0.000 C 
ATOM      2  C   UNL     1      47.133 -14.584  10.231  0.00  0.00    +0.000 C 
ENDROOT
BRANCH   2   3
ATOM      3  C   UNL     1      46.868 -15.807  11.118  0.00  0.00    +0.000 C 
BRANCH   3   4
ATOM      4  C   UNL     1      46.638 -16.839  11.866  0.00  0.00    +0.000 C 
ATOM      5  C   UNL     1      47.197 -18.178  11.486  0.00  0.00    +0.000 C 
BRANCH   4   7
ATOM      6  C   UNL     1      45.075 -16.621  13.953  0.00  0.00    +0.000 C 
ATOM      7  C   UNL     1      45.794 -16.720  12.996  0.00  0.00    +0.000 C 
BRANCH   6   8
ATOM      8  C   UNL     1      44.156 -16.497  15.173  0.00  0.00    +0.000 C 
BRANCH   8   9
ATOM      9  C   UNL     1      43.379 -16.400  16.208  0.00  0.00    +0.000 C 
ATOM     10  C   UNL     1      43.899 -16.751  17.568  0.00  0.00    +0.000 C 
BRANCH   9  12
ATOM     11  C   UNL     1      40.993 -15.348  15.954  0.00  0.00    +0.000 C 
ATOM     12  C   UNL     1      42.094 -15.820  16.069  0.00  0.00    +0.000 C 
BRANCH  11  16
ATOM     13  O   UNL     1      37.440 -12.329  17.464  0.00  0.00    +0.000 OA
ATOM     14  C   UNL     1      38.788 -15.313  14.640  0.00  0.00    +0.000 C 
ATOM     15  C   UNL     1      37.531 -14.592  14.751  0.00  0.00    +0.000 C 
ATOM     16  C   UNL     1      39.660 -14.796  15.813  0.00  0.00    +0.000 C 
ATOM     17  C   UNL     1      36.960 -13.632  15.580  0.00  0.00    +0.000 C 
ATOM     18  C   UNL     1      39.485 -14.968  13.302  0.00  0.00    +0.000 C 
ATOM     19  C   UNL     1      38.550 -16.830  14.805  0.00  0.00    +0.000 C 
ATOM     20  C   UNL     1      39.223 -13.852  16.698  0.00  0.00    +0.000 C 
ATOM     21  C   UNL     1      37.842 -13.176  16.677  0.00  0.00    +0.000 C 
ATOM     22  C   UNL     1      40.171 -13.396  17.816  0.00  0.00    +0.000 C 
BRANCH  17  23
ATOM     23  O   UNL     1      35.694 -13.144  15.396  0.00  0.00    +0.000 OA
ATOM     24  H   UNL     1      35.721 -12.258  14.981  0.00  0.00    +0.000 HD
ENDBRANCH  17  23
ENDBRANCH  11  16
ENDBRANCH   9  12
ENDBRANCH   8   9
ENDBRANCH   6   8
ENDBRANCH   4   7
ENDBRANCH   3   4
ENDBRANCH   2   3
BRANCH   1  25
ATOM     25  C   UNL     1      47.613 -12.392   8.671  0.00  0.00    +0.000 C 
BRANCH  25  26
ATOM     26  C   UNL     1      47.848 -11.352   7.934  0.00  0.00    +0.000 C 
ATOM     27  C   UNL     1      48.062 -11.515   6.459  0.00  0.00    +0.000 C 
BRANCH  26  29
ATOM     28  C   UNL     1      48.104  -8.997   9.041  0.00  0.00    +0.000 C 
ATOM     29  C   UNL     1      47.986 -10.077   8.531  0.00  0.00    +0.000 C 
BRANCH  28  30
ATOM     30  C   UNL     1      48.254  -7.617   9.696  0.00  0.00    +0.000 C 
BRANCH  30  31
ATOM     31  C   UNL     1      48.386  -6.450  10.243  0.00  0.00    +0.000 C 
ATOM     32  C   UNL     1      49.499  -5.543   9.811  0.00  0.00    +0.000 C 
BRANCH  31  34
ATOM     33  C   UNL     1      46.535  -5.559  11.868  0.00  0.00    +0.000 C 
ATOM     34  C   UNL     1      47.391  -5.972  11.131  0.00  0.00    +0.000 C 
BRANCH  33  38
ATOM     35  O   UNL     1      41.852  -5.424  13.309  0.00  0.00    +0.000 OA
ATOM     36  C   UNL     1      45.910  -4.022  13.827  0.00  0.00    +0.000 C 
ATOM     37  C   UNL     1      44.683  -3.699  14.535  0.00  0.00    +0.000 C 
ATOM     38  C   UNL     1      45.495  -5.049  12.742  0.00  0.00    +0.000 C 
ATOM     39  C   UNL     1      43.338  -4.053  14.488  0.00  0.00    +0.000 C 
ATOM     40  C   UNL     1      46.924  -4.684  14.790  0.00  0.00    +0.000 C 
ATOM     41  C   UNL     1      46.481  -2.758  13.147  0.00  0.00    +0.000 C 
ATOM     42  C   UNL     1      44.211  -5.486  12.589  0.00  0.00    +0.000 C 
ATOM     43  C   UNL     1      43.008  -5.039  13.436  0.00  0.00    +0.000 C 
ATOM     44  C   UNL     1      43.909  -6.517  11.493  0.00  0.00    +0.000 C 
BRANCH  39  45
ATOM     45  O   UNL     1      42.400  -3.540  15.342  0.00  0.00    +0.000 OA
ATOM     46  H   UNL     1      42.820  -3.232  16.172  0.00  0.00    +0.000 HD
ENDBRANCH  39  45
ENDBRANCH  33  38
ENDBRANCH  31  34
ENDBRANCH  30  31
ENDBRANCH  28  30
ENDBRANCH  26  29
ENDBRANCH  25  26
ENDBRANCH   1  25
TORSDOF 16
ENDMDL
MODEL 9
REMARK VINA RESULT:      -6.5     10.319     17.356
REMARK  Name = 5281224_Astaxanthin.pdbqt.pdb
REMARK  16 active torsions:
REMARK  status: ('A' for Active; 'I' for Inactive)
REMARK    1  A    between atoms: C_1  and  C_5
REMARK    2  A    between atoms: C_2  and  C_27
REMARK    3  A    between atoms: C_3  and  C_5
REMARK    4  A    between atoms: C_3  and  C_7
REMARK    5  A    between atoms: C_6  and  C_10
REMARK    6  A    between atoms: C_8  and  C_10
REMARK    7  A    between atoms: C_8  and  C_12
REMARK    8  A    between atoms: C_11  and  C_16
REMARK    9  A    between atoms: C_17  and  O_23
REMARK   10  A    between atoms: C_25  and  C_27
REMARK   11  A    between atoms: C_25  and  C_29
REMARK   12  A    between atoms: C_28  and  C_32
REMARK   13  A    between atoms: C_30  and  C_32
REMARK   14  A    between atoms: C_30  and  C_34
REMARK   15  A    between atoms: C_33  and  C_38
REMARK   16  A    between atoms: C_39  and  O_45
REMARK                            x       y       z     vdW  Elec       q    Type
REMARK                         _______ _______ _______ _____ _____    ______ ____
ROOT
ATOM      1  C   UNL     1      28.778 -10.038  19.035  0.00  0.00    +0.000 C 
ATOM      2  C   UNL     1      29.564 -10.918  19.255  0.00  0.00    +0.000 C 
ENDROOT
BRANCH   2   3
ATOM      3  C   UNL     1      30.566 -12.046  19.530  0.00  0.00    +0.000 C 
BRANCH   3   4
ATOM      4  C   UNL     1      31.410 -13.003  19.757  0.00  0.00    +0.000 C 
ATOM      5  C   UNL     1      30.965 -14.234  20.487  0.00  0.00    +0.000 C 
BRANCH   4   7
ATOM      6  C   UNL     1      33.919 -12.719  19.076  0.00  0.00    +0.000 C 
ATOM      7  C   UNL     1      32.767 -12.851  19.387  0.00  0.00    +0.000 C 
BRANCH   6   8
ATOM      8  C   UNL     1      35.391 -12.548  18.680  0.00  0.00    +0.000 C 
BRANCH   8   9
ATOM      9  C   UNL     1      36.634 -12.395  18.344  0.00  0.00    +0.000 C 
ATOM     10  C   UNL     1      37.584 -11.713  19.281  0.00  0.00    +0.000 C 
BRANCH   9  12
ATOM     11  C   UNL     1      37.541 -13.544  16.171  0.00  0.00    +0.000 C 
ATOM     12  C   UNL     1      37.122 -13.006  17.162  0.00  0.00    +0.000 C 
BRANCH  11  16
ATOM     13  O   UNL     1      36.830 -16.271  12.162  0.00  0.00    +0.000 OA
ATOM     14  C   UNL     1      39.569 -14.082  14.692  0.00  0.00    +0.000 C 
ATOM     15  C   UNL     1      39.783 -14.831  13.465  0.00  0.00    +0.000 C 
ATOM     16  C   UNL     1      38.051 -14.205  14.986  0.00  0.00    +0.000 C 
ATOM     17  C   UNL     1      39.028 -15.571  12.561  0.00  0.00    +0.000 C 
ATOM     18  C   UNL     1      39.923 -12.592  14.477  0.00  0.00    +0.000 C 
ATOM     19  C   UNL     1      40.370 -14.716  15.850  0.00  0.00    +0.000 C 
ATOM     20  C   UNL     1      37.196 -14.899  14.178  0.00  0.00    +0.000 C 
ATOM     21  C   UNL     1      37.587 -15.648  12.894  0.00  0.00    +0.000 C 
ATOM     22  C   UNL     1      35.708 -14.947  14.550  0.00  0.00    +0.000 C 
BRANCH  17  23
ATOM     23  O   UNL     1      39.565 -16.172  11.455  0.00  0.00    +0.000 OA
ATOM     24  H   UNL     1      38.872 -16.353  10.788  0.00  0.00    +0.000 HD
ENDBRANCH  17  23
ENDBRANCH  11  16
ENDBRANCH   9  12
ENDBRANCH   8   9
ENDBRANCH   6   8
ENDBRANCH   4   7
ENDBRANCH   3   4
ENDBRANCH   2   3
BRANCH   1  25
ATOM     25  C   UNL     1      27.771  -8.919  18.744  0.00  0.00    +0.000 C 
BRANCH  25  26
ATOM     26  C   UNL     1      26.919  -7.972  18.504  0.00  0.00    +0.000 C 
ATOM     27  C   UNL     1      26.592  -7.604  17.087  0.00  0.00    +0.000 C 
BRANCH  26  29
ATOM     28  C   UNL     1      25.897  -6.598  20.481  0.00  0.00    +0.000 C 
ATOM     29  C   UNL     1      26.366  -7.230  19.573  0.00  0.00    +0.000 C 
BRANCH  28  30
ATOM     30  C   UNL     1      25.302  -5.789  21.640  0.00  0.00    +0.000 C 
BRANCH  30  31
ATOM     31  C   UNL     1      24.800  -5.098  22.615  0.00  0.00    +0.000 C 
ATOM     32  C   UNL     1      23.318  -4.882  22.692  0.00  0.00    +0.000 C 
BRANCH  31  34
ATOM     33  C   UNL     1      26.350  -4.350  24.590  0.00  0.00    +0.000 C 
ATOM     34  C   UNL     1      25.631  -4.685  23.686  0.00  0.00    +0.000 C 
BRANCH  33  38
ATOM     35  O   UNL     1      30.819  -3.290  26.301  0.00  0.00    +0.000 OA
ATOM     36  C   UNL     1      26.584  -3.717  27.066  0.00  0.00    +0.000 C 
ATOM     37  C   UNL     1      27.687  -3.349  27.938  0.00  0.00    +0.000 C 
ATOM     38  C   UNL     1      27.228  -3.962  25.677  0.00  0.00    +0.000 C 
ATOM     39  C   UNL     1      29.064  -3.175  27.846  0.00  0.00    +0.000 C 
ATOM     40  C   UNL     1      25.577  -2.548  26.957  0.00  0.00    +0.000 C 
ATOM     41  C   UNL     1      25.923  -5.021  27.564  0.00  0.00    +0.000 C 
ATOM     42  C   UNL     1      28.566  -3.823  25.447  0.00  0.00    +0.000 C 
ATOM     43  C   UNL     1      29.617  -3.419  26.495  0.00  0.00    +0.000 C 
ATOM     44  C   UNL     1      29.101  -4.074  24.031  0.00  0.00    +0.000 C 
BRANCH  39  45
ATOM     45  O   UNL     1      29.843  -2.805  28.909  0.00  0.00    +0.000 OA
ATOM     46  H   UNL     1      30.569  -2.216  28.618  0.00  0.00    +0.000 HD
ENDBRANCH  39  45
ENDBRANCH  33  38
ENDBRANCH  31  34
ENDBRANCH  30  31
ENDBRANCH  28  30
ENDBRANCH  26  29
ENDBRANCH  25  26
ENDBRANCH   1  25
TORSDOF 16
ENDMDL
