MODEL 1
REMARK VINA RESULT:      -6.5      0.000      0.000
REMARK  Name = 5281698_sexangularetin.pdbqt.pdb
REMARK  6 active torsions:
REMARK  status: ('A' for Active; 'I' for Inactive)
REMARK    1  A    between atoms: C_5  and  C_12
REMARK    2  A    between atoms: C_6  and  O_20
REMARK    3  A    between atoms: C_8  and  O_22
REMARK    4  A    between atoms: C_9  and  O_24
REMARK    5  A    between atoms: C_10  and  O_26
REMARK    6  A    between atoms: C_17  and  O_18
REMARK                            x       y       z     vdW  Elec       q    Type
REMARK                         _______ _______ _______ _____ _____    ______ ____
ROOT
ATOM      1  O   UNL     1      26.076  -4.094  15.290  0.00  0.00    +0.000 OA
ATOM      2  O   UNL     1      28.318  -1.987  12.654  0.00  0.00    +0.000 OA
ATOM      3  C   UNL     1      26.181  -2.422  13.541  0.00  0.00    +0.000 A 
ATOM      4  C   UNL     1      25.466  -3.187  14.461  0.00  0.00    +0.000 A 
ATOM      5  C   UNL     1      27.445  -4.313  15.184  0.00  0.00    +0.000 A 
ATOM      6  C   UNL     1      24.078  -3.019  14.567  0.00  0.00    +0.000 A 
ATOM      7  C   UNL     1      27.627  -2.629  13.441  0.00  0.00    +0.000 A 
ATOM      8  C   UNL     1      28.240  -3.642  14.330  0.00  0.00    +0.000 A 
ATOM      9  C   UNL     1      25.526  -1.476  12.745  0.00  0.00    +0.000 A 
ATOM     10  C   UNL     1      23.437  -2.042  13.796  0.00  0.00    +0.000 A 
ATOM     11  C   UNL     1      24.155  -1.280  12.878  0.00  0.00    +0.000 A 
ENDROOT
BRANCH   5  12
ATOM     12  C   UNL     1      27.935  -5.345  16.121  0.00  0.00    +0.000 A 
ATOM     13  C   UNL     1      27.415  -6.644  16.055  0.00  0.00    +0.000 A 
ATOM     14  C   UNL     1      28.960  -5.088  17.037  0.00  0.00    +0.000 A 
ATOM     15  C   UNL     1      27.885  -7.651  16.894  0.00  0.00    +0.000 A 
ATOM     16  C   UNL     1      29.438  -6.087  17.884  0.00  0.00    +0.000 A 
ATOM     17  C   UNL     1      28.895  -7.363  17.804  0.00  0.00    +0.000 A 
BRANCH  17  18
ATOM     18  O   UNL     1      29.378  -8.328  18.640  0.00  0.00    +0.000 OA
ATOM     19  H   UNL     1      30.075  -8.816  18.168  0.00  0.00    +0.000 HD
ENDBRANCH  17  18
ENDBRANCH   5  12
BRANCH   6  20
ATOM     20  O   UNL     1      23.341  -3.730  15.483  0.00  0.00    +0.000 OA
ATOM     21  C   UNL     1      22.867  -4.935  14.927  0.00  0.00    +0.000 C 
ENDBRANCH   6  20
BRANCH   8  22
ATOM     22  O   UNL     1      29.607  -3.814  14.234  0.00  0.00    +0.000 OA
ATOM     23  H   UNL     1      29.742  -4.481  13.527  0.00  0.00    +0.000 HD
ENDBRANCH   8  22
BRANCH   9  24
ATOM     24  O   UNL     1      26.169  -0.693  11.826  0.00  0.00    +0.000 OA
ATOM     25  H   UNL     1      26.954  -0.281  12.253  0.00  0.00    +0.000 HD
ENDBRANCH   9  24
BRANCH  10  26
ATOM     26  O   UNL     1      22.099  -1.820  13.955  0.00  0.00    +0.000 OA
ATOM     27  H   UNL     1      21.613  -2.608  13.647  0.00  0.00    +0.000 HD
ENDBRANCH  10  26
TORSDOF 6
ENDMDL
MODEL 2
REMARK VINA RESULT:      -6.1     13.127     15.610
REMARK  Name = 5281698_sexangularetin.pdbqt.pdb
REMARK  6 active torsions:
REMARK  status: ('A' for Active; 'I' for Inactive)
REMARK    1  A    between atoms: C_5  and  C_12
REMARK    2  A    between atoms: C_6  and  O_20
REMARK    3  A    between atoms: C_8  and  O_22
REMARK    4  A    between atoms: C_9  and  O_24
REMARK    5  A    between atoms: C_10  and  O_26
REMARK    6  A    between atoms: C_17  and  O_18
REMARK                            x       y       z     vdW  Elec       q    Type
REMARK                         _______ _______ _______ _____ _____    ______ ____
ROOT
ATOM      1  O   UNL     1      26.891  -1.836  29.305  0.00  0.00    +0.000 OA
ATOM      2  O   UNL     1      27.227  -4.189  32.587  0.00  0.00    +0.000 OA
ATOM      3  C   UNL     1      26.303  -2.252  31.618  0.00  0.00    +0.000 A 
ATOM      4  C   UNL     1      26.238  -1.481  30.458  0.00  0.00    +0.000 A 
ATOM      5  C   UNL     1      27.696  -2.970  29.290  0.00  0.00    +0.000 A 
ATOM      6  C   UNL     1      25.467  -0.310  30.450  0.00  0.00    +0.000 A 
ATOM      7  C   UNL     1      27.128  -3.462  31.601  0.00  0.00    +0.000 A 
ATOM      8  C   UNL     1      27.843  -3.790  30.348  0.00  0.00    +0.000 A 
ATOM      9  C   UNL     1      25.585  -1.877  32.759  0.00  0.00    +0.000 A 
ATOM     10  C   UNL     1      24.721   0.035  31.583  0.00  0.00    +0.000 A 
ATOM     11  C   UNL     1      24.788  -0.737  32.739  0.00  0.00    +0.000 A 
ENDROOT
BRANCH   5  12
ATOM     12  C   UNL     1      28.355  -3.189  27.986  0.00  0.00    +0.000 A 
ATOM     13  C   UNL     1      27.633  -3.765  26.933  0.00  0.00    +0.000 A 
ATOM     14  C   UNL     1      29.667  -2.775  27.739  0.00  0.00    +0.000 A 
ATOM     15  C   UNL     1      28.210  -3.947  25.678  0.00  0.00    +0.000 A 
ATOM     16  C   UNL     1      30.257  -2.953  26.488  0.00  0.00    +0.000 A 
ATOM     17  C   UNL     1      29.521  -3.538  25.466  0.00  0.00    +0.000 A 
BRANCH  17  18
ATOM     18  O   UNL     1      30.115  -3.701  24.249  0.00  0.00    +0.000 OA
ATOM     19  H   UNL     1      30.915  -3.147  24.225  0.00  0.00    +0.000 HD
ENDBRANCH  17  18
ENDBRANCH   5  12
BRANCH   6  20
ATOM     20  O   UNL     1      25.352   0.461  29.319  0.00  0.00    +0.000 OA
ATOM     21  C   UNL     1      26.300   1.503  29.317  0.00  0.00    +0.000 C 
ENDBRANCH   6  20
BRANCH   8  22
ATOM     22  O   UNL     1      28.605  -4.942  30.344  0.00  0.00    +0.000 OA
ATOM     23  H   UNL     1      28.005  -5.659  30.641  0.00  0.00    +0.000 HD
ENDBRANCH   8  22
BRANCH   9  24
ATOM     24  O   UNL     1      25.604  -2.591  33.925  0.00  0.00    +0.000 OA
ATOM     25  H   UNL     1      24.804  -2.364  34.451  0.00  0.00    +0.000 HD
ENDBRANCH   9  24
BRANCH  10  26
ATOM     26  O   UNL     1      23.905   1.131  31.553  0.00  0.00    +0.000 OA
ATOM     27  H   UNL     1      24.190   1.751  32.250  0.00  0.00    +0.000 HD
ENDBRANCH  10  26
TORSDOF 6
ENDMDL
MODEL 3
REMARK VINA RESULT:      -6.1     19.099     21.074
REMARK  Name = 5281698_sexangularetin.pdbqt.pdb
REMARK  6 active torsions:
REMARK  status: ('A' for Active; 'I' for Inactive)
REMARK    1  A    between atoms: C_5  and  C_12
REMARK    2  A    between atoms: C_6  and  O_20
REMARK    3  A    between atoms: C_8  and  O_22
REMARK    4  A    between atoms: C_9  and  O_24
REMARK    5  A    between atoms: C_10  and  O_26
REMARK    6  A    between atoms: C_17  and  O_18
REMARK                            x       y       z     vdW  Elec       q    Type
REMARK                         _______ _______ _______ _____ _____    ______ ____
ROOT
ATOM      1  O   UNL     1      39.292  10.668  21.519  0.00  0.00    +0.000 OA
ATOM      2  O   UNL     1      39.788   7.827  24.364  0.00  0.00    +0.000 OA
ATOM      3  C   UNL     1      40.089  10.073  23.727  0.00  0.00    +0.000 A 
ATOM      4  C   UNL     1      39.899  11.000  22.704  0.00  0.00    +0.000 A 
ATOM      5  C   UNL     1      38.898   9.354  21.290  0.00  0.00    +0.000 A 
ATOM      6  C   UNL     1      40.320  12.325  22.886  0.00  0.00    +0.000 A 
ATOM      7  C   UNL     1      39.653   8.693  23.503  0.00  0.00    +0.000 A 
ATOM      8  C   UNL     1      39.035   8.370  22.198  0.00  0.00    +0.000 A 
ATOM      9  C   UNL     1      40.672  10.464  24.938  0.00  0.00    +0.000 A 
ATOM     10  C   UNL     1      40.865  12.716  24.114  0.00  0.00    +0.000 A 
ATOM     11  C   UNL     1      41.053  11.787  25.134  0.00  0.00    +0.000 A 
ENDROOT
BRANCH   5  12
ATOM     12  C   UNL     1      38.297   9.160  19.954  0.00  0.00    +0.000 A 
ATOM     13  C   UNL     1      36.913   9.290  19.792  0.00  0.00    +0.000 A 
ATOM     14  C   UNL     1      39.076   8.914  18.819  0.00  0.00    +0.000 A 
ATOM     15  C   UNL     1      36.318   9.155  18.540  0.00  0.00    +0.000 A 
ATOM     16  C   UNL     1      38.494   8.775  17.561  0.00  0.00    +0.000 A 
ATOM     17  C   UNL     1      37.116   8.898  17.432  0.00  0.00    +0.000 A 
BRANCH  17  18
ATOM     18  O   UNL     1      36.565   8.760  16.191  0.00  0.00    +0.000 OA
ATOM     19  H   UNL     1      35.655   9.106  16.224  0.00  0.00    +0.000 HD
ENDBRANCH  17  18
ENDBRANCH   5  12
BRANCH   6  20
ATOM     20  O   UNL     1      40.123  13.276  21.914  0.00  0.00    +0.000 OA
ATOM     21  C   UNL     1      38.858  13.881  22.045  0.00  0.00    +0.000 C 
ENDBRANCH   6  20
BRANCH   8  22
ATOM     22  O   UNL     1      38.616   7.067  22.009  0.00  0.00    +0.000 OA
ATOM     23  H   UNL     1      37.727   7.011  22.419  0.00  0.00    +0.000 HD
ENDBRANCH   8  22
BRANCH   9  24
ATOM     24  O   UNL     1      40.883   9.604  25.981  0.00  0.00    +0.000 OA
ATOM     25  H   UNL     1      41.668   9.909  26.491  0.00  0.00    +0.000 HD
ENDBRANCH   9  24
BRANCH  10  26
ATOM     26  O   UNL     1      41.202  14.023  24.324  0.00  0.00    +0.000 OA
ATOM     27  H   UNL     1      41.150  14.209  25.280  0.00  0.00    +0.000 HD
ENDBRANCH  10  26
TORSDOF 6
ENDMDL
MODEL 4
REMARK VINA RESULT:      -6.0     20.333     22.060
REMARK  Name = 5281698_sexangularetin.pdbqt.pdb
REMARK  6 active torsions:
REMARK  status: ('A' for Active; 'I' for Inactive)
REMARK    1  A    between atoms: C_5  and  C_12
REMARK    2  A    between atoms: C_6  and  O_20
REMARK    3  A    between atoms: C_8  and  O_22
REMARK    4  A    between atoms: C_9  and  O_24
REMARK    5  A    between atoms: C_10  and  O_26
REMARK    6  A    between atoms: C_17  and  O_18
REMARK                            x       y       z     vdW  Elec       q    Type
REMARK                         _______ _______ _______ _____ _____    ______ ____
ROOT
ATOM      1  O   UNL     1      39.533  12.284  19.291  0.00  0.00    +0.000 OA
ATOM      2  O   UNL     1      39.169  15.332  21.935  0.00  0.00    +0.000 OA
ATOM      3  C   UNL     1      40.343  14.413  20.113  0.00  0.00    +0.000 A 
ATOM      4  C   UNL     1      40.421  13.329  19.241  0.00  0.00    +0.000 A 
ATOM      5  C   UNL     1      38.552  12.259  20.275  0.00  0.00    +0.000 A 
ATOM      6  C   UNL     1      41.422  13.303  18.260  0.00  0.00    +0.000 A 
ATOM      7  C   UNL     1      39.296  14.407  21.136  0.00  0.00    +0.000 A 
ATOM      8  C   UNL     1      38.381  13.244  21.178  0.00  0.00    +0.000 A 
ATOM      9  C   UNL     1      41.241  15.480  19.999  0.00  0.00    +0.000 A 
ATOM     10  C   UNL     1      42.291  14.392  18.127  0.00  0.00    +0.000 A 
ATOM     11  C   UNL     1      42.210  15.474  19.000  0.00  0.00    +0.000 A 
ENDROOT
BRANCH   5  12
ATOM     12  C   UNL     1      37.706  11.050  20.213  0.00  0.00    +0.000 A 
ATOM     13  C   UNL     1      38.051   9.923  20.969  0.00  0.00    +0.000 A 
ATOM     14  C   UNL     1      36.521  11.011  19.470  0.00  0.00    +0.000 A 
ATOM     15  C   UNL     1      37.252   8.781  20.966  0.00  0.00    +0.000 A 
ATOM     16  C   UNL     1      35.715   9.875  19.457  0.00  0.00    +0.000 A 
ATOM     17  C   UNL     1      36.088   8.767  20.208  0.00  0.00    +0.000 A 
BRANCH  17  18
ATOM     18  O   UNL     1      35.284   7.665  20.184  0.00  0.00    +0.000 OA
ATOM     19  H   UNL     1      35.603   7.042  20.861  0.00  0.00    +0.000 HD
ENDBRANCH  17  18
ENDBRANCH   5  12
BRANCH   6  20
ATOM     20  O   UNL     1      41.514  12.267  17.361  0.00  0.00    +0.000 OA
ATOM     21  C   UNL     1      42.360  11.250  17.844  0.00  0.00    +0.000 C 
ENDBRANCH   6  20
BRANCH   8  22
ATOM     22  O   UNL     1      37.390  13.260  22.140  0.00  0.00    +0.000 OA
ATOM     23  H   UNL     1      36.628  12.786  21.744  0.00  0.00    +0.000 HD
ENDBRANCH   8  22
BRANCH   9  24
ATOM     24  O   UNL     1      41.216  16.573  20.821  0.00  0.00    +0.000 OA
ATOM     25  H   UNL     1      41.194  16.268  21.756  0.00  0.00    +0.000 HD
ENDBRANCH   9  24
BRANCH  10  26
ATOM     26  O   UNL     1      43.216  14.406  17.122  0.00  0.00    +0.000 OA
ATOM     27  H   UNL     1      43.676  13.546  17.109  0.00  0.00    +0.000 HD
ENDBRANCH  10  26
TORSDOF 6
ENDMDL
MODEL 5
REMARK VINA RESULT:      -5.9     21.685     24.173
REMARK  Name = 5281698_sexangularetin.pdbqt.pdb
REMARK  6 active torsions:
REMARK  status: ('A' for Active; 'I' for Inactive)
REMARK    1  A    between atoms: C_5  and  C_12
REMARK    2  A    between atoms: C_6  and  O_20
REMARK    3  A    between atoms: C_8  and  O_22
REMARK    4  A    between atoms: C_9  and  O_24
REMARK    5  A    between atoms: C_10  and  O_26
REMARK    6  A    between atoms: C_17  and  O_18
REMARK                            x       y       z     vdW  Elec       q    Type
REMARK                         _______ _______ _______ _____ _____    ______ ____
ROOT
ATOM      1  O   UNL     1      13.936   6.797  30.691  0.00  0.00    +0.000 OA
ATOM      2  O   UNL     1      10.620   8.236  32.520  0.00  0.00    +0.000 OA
ATOM      3  C   UNL     1      12.517   6.850  32.653  0.00  0.00    +0.000 A 
ATOM      4  C   UNL     1      13.636   6.384  31.964  0.00  0.00    +0.000 A 
ATOM      5  C   UNL     1      13.077   7.666  30.027  0.00  0.00    +0.000 A 
ATOM      6  C   UNL     1      14.503   5.477  32.589  0.00  0.00    +0.000 A 
ATOM      7  C   UNL     1      11.621   7.784  31.969  0.00  0.00    +0.000 A 
ATOM      8  C   UNL     1      11.963   8.178  30.585  0.00  0.00    +0.000 A 
ATOM      9  C   UNL     1      12.272   6.436  33.967  0.00  0.00    +0.000 A 
ATOM     10  C   UNL     1      14.272   5.100  33.917  0.00  0.00    +0.000 A 
ATOM     11  C   UNL     1      13.153   5.567  34.603  0.00  0.00    +0.000 A 
ENDROOT
BRANCH   5  12
ATOM     12  C   UNL     1      13.526   7.981  28.656  0.00  0.00    +0.000 A 
ATOM     13  C   UNL     1      13.986   9.269  28.356  0.00  0.00    +0.000 A 
ATOM     14  C   UNL     1      13.573   7.011  27.649  0.00  0.00    +0.000 A 
ATOM     15  C   UNL     1      14.457   9.589  27.085  0.00  0.00    +0.000 A 
ATOM     16  C   UNL     1      14.040   7.318  26.372  0.00  0.00    +0.000 A 
ATOM     17  C   UNL     1      14.479   8.608  26.101  0.00  0.00    +0.000 A 
BRANCH  17  18
ATOM     18  O   UNL     1      14.935   8.888  24.846  0.00  0.00    +0.000 OA
ATOM     19  H   UNL     1      14.462   8.316  24.217  0.00  0.00    +0.000 HD
ENDBRANCH  17  18
ENDBRANCH   5  12
BRANCH   6  20
ATOM     20  O   UNL     1      15.633   5.018  31.957  0.00  0.00    +0.000 OA
ATOM     21  C   UNL     1      15.363   3.845  31.225  0.00  0.00    +0.000 C 
ENDBRANCH   6  20
BRANCH   8  22
ATOM     22  O   UNL     1      11.116   9.072  29.960  0.00  0.00    +0.000 OA
ATOM     23  H   UNL     1      10.655   8.559  29.263  0.00  0.00    +0.000 HD
ENDBRANCH   8  22
BRANCH   9  24
ATOM     24  O   UNL     1      11.195   6.858  34.698  0.00  0.00    +0.000 OA
ATOM     25  H   UNL     1      11.455   7.650  35.220  0.00  0.00    +0.000 HD
ENDBRANCH   9  24
BRANCH  10  26
ATOM     26  O   UNL     1      15.158   4.280  34.557  0.00  0.00    +0.000 OA
ATOM     27  H   UNL     1      14.693   3.466  34.824  0.00  0.00    +0.000 HD
ENDBRANCH  10  26
TORSDOF 6
ENDMDL
MODEL 6
REMARK VINA RESULT:      -5.7     13.148     15.611
REMARK  Name = 5281698_sexangularetin.pdbqt.pdb
REMARK  6 active torsions:
REMARK  status: ('A' for Active; 'I' for Inactive)
REMARK    1  A    between atoms: C_5  and  C_12
REMARK    2  A    between atoms: C_6  and  O_20
REMARK    3  A    between atoms: C_8  and  O_22
REMARK    4  A    between atoms: C_9  and  O_24
REMARK    5  A    between atoms: C_10  and  O_26
REMARK    6  A    between atoms: C_17  and  O_18
REMARK                            x       y       z     vdW  Elec       q    Type
REMARK                         _______ _______ _______ _____ _____    ______ ____
ROOT
ATOM      1  O   UNL     1      15.373   2.277   6.515  0.00  0.00    +0.000 OA
ATOM      2  O   UNL     1      16.840   6.054   6.529  0.00  0.00    +0.000 OA
ATOM      3  C   UNL     1      16.180   4.185   5.259  0.00  0.00    +0.000 A 
ATOM      4  C   UNL     1      15.683   2.884   5.324  0.00  0.00    +0.000 A 
ATOM      5  C   UNL     1      15.610   2.945   7.711  0.00  0.00    +0.000 A 
ATOM      6  C   UNL     1      15.469   2.167   4.138  0.00  0.00    +0.000 A 
ATOM      7  C   UNL     1      16.408   4.903   6.514  0.00  0.00    +0.000 A 
ATOM      8  C   UNL     1      16.093   4.200   7.777  0.00  0.00    +0.000 A 
ATOM      9  C   UNL     1      16.441   4.782   4.021  0.00  0.00    +0.000 A 
ATOM     10  C   UNL     1      15.695   2.786   2.904  0.00  0.00    +0.000 A 
ATOM     11  C   UNL     1      16.191   4.086   2.843  0.00  0.00    +0.000 A 
ENDROOT
BRANCH   5  12
ATOM     12  C   UNL     1      15.257   2.139   8.898  0.00  0.00    +0.000 A 
ATOM     13  C   UNL     1      13.924   1.768   9.112  0.00  0.00    +0.000 A 
ATOM     14  C   UNL     1      16.226   1.670   9.791  0.00  0.00    +0.000 A 
ATOM     15  C   UNL     1      13.562   0.973  10.197  0.00  0.00    +0.000 A 
ATOM     16  C   UNL     1      15.877   0.875  10.882  0.00  0.00    +0.000 A 
ATOM     17  C   UNL     1      14.545   0.533  11.075  0.00  0.00    +0.000 A 
BRANCH  17  18
ATOM     18  O   UNL     1      14.224  -0.247  12.148  0.00  0.00    +0.000 OA
ATOM     19  H   UNL     1      13.254  -0.303  12.203  0.00  0.00    +0.000 HD
ENDBRANCH  17  18
ENDBRANCH   5  12
BRANCH   6  20
ATOM     20  O   UNL     1      14.952   0.894   4.158  0.00  0.00    +0.000 OA
ATOM     21  C   UNL     1      15.978  -0.071   4.172  0.00  0.00    +0.000 C 
ENDBRANCH   6  20
BRANCH   8  22
ATOM     22  O   UNL     1      16.299   4.898   8.952  0.00  0.00    +0.000 OA
ATOM     23  H   UNL     1      15.645   5.629   8.945  0.00  0.00    +0.000 HD
ENDBRANCH   8  22
BRANCH   9  24
ATOM     24  O   UNL     1      16.926   6.054   3.889  0.00  0.00    +0.000 OA
ATOM     25  H   UNL     1      16.405   6.524   3.199  0.00  0.00    +0.000 HD
ENDBRANCH   9  24
BRANCH  10  26
ATOM     26  O   UNL     1      15.411   2.119   1.746  0.00  0.00    +0.000 OA
ATOM     27  H   UNL     1      14.550   1.672   1.846  0.00  0.00    +0.000 HD
ENDBRANCH  10  26
TORSDOF 6
ENDMDL
MODEL 7
REMARK VINA RESULT:      -5.6     24.714     27.121
REMARK  Name = 5281698_sexangularetin.pdbqt.pdb
REMARK  6 active torsions:
REMARK  status: ('A' for Active; 'I' for Inactive)
REMARK    1  A    between atoms: C_5  and  C_12
REMARK    2  A    between atoms: C_6  and  O_20
REMARK    3  A    between atoms: C_8  and  O_22
REMARK    4  A    between atoms: C_9  and  O_24
REMARK    5  A    between atoms: C_10  and  O_26
REMARK    6  A    between atoms: C_17  and  O_18
REMARK                            x       y       z     vdW  Elec       q    Type
REMARK                         _______ _______ _______ _____ _____    ______ ____
ROOT
ATOM      1  O   UNL     1      31.480  10.249  -7.344  0.00  0.00    +0.000 OA
ATOM      2  O   UNL     1      33.297   7.203  -5.385  0.00  0.00    +0.000 OA
ATOM      3  C   UNL     1      33.535   9.208  -6.595  0.00  0.00    +0.000 A 
ATOM      4  C   UNL     1      32.850  10.220  -7.264  0.00  0.00    +0.000 A 
ATOM      5  C   UNL     1      30.736   9.210  -6.796  0.00  0.00    +0.000 A 
ATOM      6  C   UNL     1      33.571  11.263  -7.863  0.00  0.00    +0.000 A 
ATOM      7  C   UNL     1      32.756   8.124  -5.992  0.00  0.00    +0.000 A 
ATOM      8  C   UNL     1      31.284   8.175  -6.132  0.00  0.00    +0.000 A 
ATOM      9  C   UNL     1      34.931   9.241  -6.499  0.00  0.00    +0.000 A 
ATOM     10  C   UNL     1      34.963  11.309  -7.727  0.00  0.00    +0.000 A 
ATOM     11  C   UNL     1      35.645  10.296  -7.058  0.00  0.00    +0.000 A 
ENDROOT
BRANCH   5  12
ATOM     12  C   UNL     1      29.282   9.375  -7.001  0.00  0.00    +0.000 A 
ATOM     13  C   UNL     1      28.696   8.929  -8.192  0.00  0.00    +0.000 A 
ATOM     14  C   UNL     1      28.448   9.904  -6.011  0.00  0.00    +0.000 A 
ATOM     15  C   UNL     1      27.323   9.029  -8.401  0.00  0.00    +0.000 A 
ATOM     16  C   UNL     1      27.073  10.012  -6.208  0.00  0.00    +0.000 A 
ATOM     17  C   UNL     1      26.521   9.572  -7.404  0.00  0.00    +0.000 A 
BRANCH  17  18
ATOM     18  O   UNL     1      25.172   9.684  -7.578  0.00  0.00    +0.000 OA
ATOM     19  H   UNL     1      24.907   9.081  -8.294  0.00  0.00    +0.000 HD
ENDBRANCH  17  18
ENDBRANCH   5  12
BRANCH   6  20
ATOM     20  O   UNL     1      32.932  12.296  -8.505  0.00  0.00    +0.000 OA
ATOM     21  C   UNL     1      32.787  12.027  -9.880  0.00  0.00    +0.000 C 
ENDBRANCH   6  20
BRANCH   8  22
ATOM     22  O   UNL     1      30.563   7.153  -5.545  0.00  0.00    +0.000 OA
ATOM     23  H   UNL     1      29.630   7.453  -5.543  0.00  0.00    +0.000 HD
ENDBRANCH   8  22
BRANCH   9  24
ATOM     24  O   UNL     1      35.661   8.281  -5.854  0.00  0.00    +0.000 OA
ATOM     25  H   UNL     1      36.612   8.400  -6.078  0.00  0.00    +0.000 HD
ENDBRANCH   9  24
BRANCH  10  26
ATOM     26  O   UNL     1      35.662  12.366  -8.239  0.00  0.00    +0.000 OA
ATOM     27  H   UNL     1      35.258  12.625  -9.088  0.00  0.00    +0.000 HD
ENDBRANCH  10  26
TORSDOF 6
ENDMDL
MODEL 8
REMARK VINA RESULT:      -5.4     34.753     37.116
REMARK  Name = 5281698_sexangularetin.pdbqt.pdb
REMARK  6 active torsions:
REMARK  status: ('A' for Active; 'I' for Inactive)
REMARK    1  A    between atoms: C_5  and  C_12
REMARK    2  A    between atoms: C_6  and  O_20
REMARK    3  A    between atoms: C_8  and  O_22
REMARK    4  A    between atoms: C_9  and  O_24
REMARK    5  A    between atoms: C_10  and  O_26
REMARK    6  A    between atoms: C_17  and  O_18
REMARK                            x       y       z     vdW  Elec       q    Type
REMARK                         _______ _______ _______ _____ _____    ______ ____
ROOT
ATOM      1  O   UNL     1      23.477  31.154  24.255  0.00  0.00    +0.000 OA
ATOM      2  O   UNL     1      25.842  30.592  27.496  0.00  0.00    +0.000 OA
ATOM      3  C   UNL     1      23.908  29.956  26.315  0.00  0.00    +0.000 A 
ATOM      4  C   UNL     1      23.131  30.206  25.185  0.00  0.00    +0.000 A 
ATOM      5  C   UNL     1      24.605  31.941  24.458  0.00  0.00    +0.000 A 
ATOM      6  C   UNL     1      21.966  29.458  24.968  0.00  0.00    +0.000 A 
ATOM      7  C   UNL     1      25.111  30.763  26.523  0.00  0.00    +0.000 A 
ATOM      8  C   UNL     1      25.429  31.798  25.514  0.00  0.00    +0.000 A 
ATOM      9  C   UNL     1      23.543  28.949  27.216  0.00  0.00    +0.000 A 
ATOM     10  C   UNL     1      21.631  28.426  25.852  0.00  0.00    +0.000 A 
ATOM     11  C   UNL     1      22.408  28.179  26.980  0.00  0.00    +0.000 A 
ENDROOT
BRANCH   5  12
ATOM     12  C   UNL     1      24.813  32.935  23.385  0.00  0.00    +0.000 A 
ATOM     13  C   UNL     1      25.918  32.813  22.533  0.00  0.00    +0.000 A 
ATOM     14  C   UNL     1      23.902  33.967  23.143  0.00  0.00    +0.000 A 
ATOM     15  C   UNL     1      26.121  33.706  21.484  0.00  0.00    +0.000 A 
ATOM     16  C   UNL     1      24.094  34.869  22.098  0.00  0.00    +0.000 A 
ATOM     17  C   UNL     1      25.205  34.730  21.276  0.00  0.00    +0.000 A 
BRANCH  17  18
ATOM     18  O   UNL     1      25.375  35.623  20.258  0.00  0.00    +0.000 OA
ATOM     19  H   UNL     1      26.329  35.789  20.156  0.00  0.00    +0.000 HD
ENDBRANCH  17  18
ENDBRANCH   5  12
BRANCH   6  20
ATOM     20  O   UNL     1      21.190  29.652  23.851  0.00  0.00    +0.000 OA
ATOM     21  C   UNL     1      20.163  30.583  24.102  0.00  0.00    +0.000 C 
ENDBRANCH   6  20
BRANCH   8  22
ATOM     22  O   UNL     1      26.576  32.541  25.717  0.00  0.00    +0.000 OA
ATOM     23  H   UNL     1      27.219  31.928  26.132  0.00  0.00    +0.000 HD
ENDBRANCH   8  22
BRANCH   9  24
ATOM     24  O   UNL     1      24.262  28.652  28.341  0.00  0.00    +0.000 OA
ATOM     25  H   UNL     1      25.218  28.631  28.111  0.00  0.00    +0.000 HD
ENDBRANCH   9  24
BRANCH  10  26
ATOM     26  O   UNL     1      20.541  27.642  25.601  0.00  0.00    +0.000 OA
ATOM     27  H   UNL     1      20.839  26.720  25.488  0.00  0.00    +0.000 HD
ENDBRANCH  10  26
TORSDOF 6
ENDMDL
MODEL 9
REMARK VINA RESULT:      -5.3     31.883     33.484
REMARK  Name = 5281698_sexangularetin.pdbqt.pdb
REMARK  6 active torsions:
REMARK  status: ('A' for Active; 'I' for Inactive)
REMARK    1  A    between atoms: C_5  and  C_12
REMARK    2  A    between atoms: C_6  and  O_20
REMARK    3  A    between atoms: C_8  and  O_22
REMARK    4  A    between atoms: C_9  and  O_24
REMARK    5  A    between atoms: C_10  and  O_26
REMARK    6  A    between atoms: C_17  and  O_18
REMARK                            x       y       z     vdW  Elec       q    Type
REMARK                         _______ _______ _______ _____ _____    ______ ____
ROOT
ATOM      1  O   UNL     1      32.744  21.877  -4.860  0.00  0.00    +0.000 OA
ATOM      2  O   UNL     1      31.593  18.733  -7.142  0.00  0.00    +0.000 OA
ATOM      3  C   UNL     1      33.311  20.224  -6.537  0.00  0.00    +0.000 A 
ATOM      4  C   UNL     1      33.640  21.314  -5.733  0.00  0.00    +0.000 A 
ATOM      5  C   UNL     1      31.441  21.395  -4.803  0.00  0.00    +0.000 A 
ATOM      6  C   UNL     1      34.934  21.851  -5.794  0.00  0.00    +0.000 A 
ATOM      7  C   UNL     1      31.948  19.694  -6.463  0.00  0.00    +0.000 A 
ATOM      8  C   UNL     1      31.003  20.352  -5.534  0.00  0.00    +0.000 A 
ATOM      9  C   UNL     1      34.269  19.652  -7.381  0.00  0.00    +0.000 A 
ATOM     10  C   UNL     1      35.896  21.248  -6.611  0.00  0.00    +0.000 A 
ATOM     11  C   UNL     1      35.565  20.159  -7.413  0.00  0.00    +0.000 A 
ENDROOT
BRANCH   5  12
ATOM     12  C   UNL     1      30.597  22.133  -3.842  0.00  0.00    +0.000 A 
ATOM     13  C   UNL     1      29.388  22.696  -4.270  0.00  0.00    +0.000 A 
ATOM     14  C   UNL     1      30.930  22.235  -2.487  0.00  0.00    +0.000 A 
ATOM     15  C   UNL     1      28.548  23.362  -3.381  0.00  0.00    +0.000 A 
ATOM     16  C   UNL     1      30.099  22.900  -1.588  0.00  0.00    +0.000 A 
ATOM     17  C   UNL     1      28.912  23.459  -2.044  0.00  0.00    +0.000 A 
BRANCH  17  18
ATOM     18  O   UNL     1      28.111  24.104  -1.147  0.00  0.00    +0.000 OA
ATOM     19  H   UNL     1      28.599  24.872  -0.802  0.00  0.00    +0.000 HD
ENDBRANCH  17  18
ENDBRANCH   5  12
BRANCH   6  20
ATOM     20  O   UNL     1      35.307  22.905  -4.996  0.00  0.00    +0.000 OA
ATOM     21  C   UNL     1      35.080  24.136  -5.642  0.00  0.00    +0.000 C 
ENDBRANCH   6  20
BRANCH   8  22
ATOM     22  O   UNL     1      29.726  19.830  -5.466  0.00  0.00    +0.000 OA
ATOM     23  H   UNL     1      29.123  20.604  -5.452  0.00  0.00    +0.000 HD
ENDBRANCH   8  22
BRANCH   9  24
ATOM     24  O   UNL     1      34.011  18.581  -8.192  0.00  0.00    +0.000 OA
ATOM     25  H   UNL     1      33.050  18.564  -8.401  0.00  0.00    +0.000 HD
ENDBRANCH   9  24
BRANCH  10  26
ATOM     26  O   UNL     1      37.179  21.718  -6.612  0.00  0.00    +0.000 OA
ATOM     27  H   UNL     1      37.504  21.735  -7.532  0.00  0.00    +0.000 HD
ENDBRANCH  10  26
TORSDOF 6
ENDMDL
