MODEL 1
REMARK VINA RESULT:      -6.9      0.000      0.000
REMARK  Name = 5281239_Fucoxanthin.pdbqt.pdb
REMARK  19 active torsions:
REMARK  status: ('A' for Active; 'I' for Inactive)
REMARK    1  A    between atoms: C_1  and  C_5
REMARK    2  A    between atoms: C_2  and  C_26
REMARK    3  A    between atoms: C_3  and  C_5
REMARK    4  A    between atoms: C_3  and  C_7
REMARK    5  A    between atoms: C_6  and  C_10
REMARK    6  A    between atoms: C_8  and  C_10
REMARK    7  A    between atoms: C_8  and  C_12
REMARK    8  A    between atoms: C_12  and  C_13
REMARK    9  A    between atoms: C_13  and  C_15
REMARK   10  A    between atoms: C_20  and  O_24
REMARK   11  A    between atoms: C_26  and  C_27
REMARK   12  A    between atoms: C_27  and  C_30
REMARK   13  A    between atoms: C_29  and  C_33
REMARK   14  A    between atoms: C_31  and  C_33
REMARK   15  A    between atoms: C_31  and  C_44
REMARK   16  A    between atoms: C_35  and  O_45
REMARK   17  A    between atoms: C_37  and  O_47
REMARK   18  A    between atoms: C_39  and  C_43
REMARK   19  A    between atoms: O_47  and  C_49
REMARK                            x       y       z     vdW  Elec       q    Type
REMARK                         _______ _______ _______ _____ _____    ______ ____
ROOT
ATOM      1  C   UNL     1      27.446  -6.273  22.646  0.00  0.00    +0.000 C 
ATOM      2  C   UNL     1      28.173  -6.382  21.698  0.00  0.00    +0.000 C 
ENDROOT
BRANCH   2   3
ATOM      3  C   UNL     1      29.109  -6.516  20.491  0.00  0.00    +0.000 C 
BRANCH   3   4
ATOM      4  C   UNL     1      29.902  -6.627  19.471  0.00  0.00    +0.000 C 
ATOM      5  C   UNL     1      31.144  -7.457  19.577  0.00  0.00    +0.000 C 
BRANCH   4   7
ATOM      6  C   UNL     1      29.283  -5.474  17.205  0.00  0.00    +0.000 C 
ATOM      7  C   UNL     1      29.566  -6.004  18.245  0.00  0.00    +0.000 C 
BRANCH   6   8
ATOM      8  C   UNL     1      28.927  -4.797  15.877  0.00  0.00    +0.000 C 
BRANCH   8   9
ATOM      9  C   UNL     1      28.621  -4.216  14.759  0.00  0.00    +0.000 C 
ATOM     10  C   UNL     1      29.701  -3.754  13.829  0.00  0.00    +0.000 C 
BRANCH   9  12
ATOM     11  C   UNL     1      26.118  -3.662  14.219  0.00  0.00    +0.000 C 
ATOM     12  C   UNL     1      27.267  -3.915  14.469  0.00  0.00    +0.000 C 
BRANCH  11  18
ATOM     13  C   UNL     1      24.341  -1.938  13.833  0.00  0.00    +0.000 C 
ATOM     14  C   UNL     1      23.830  -4.488  13.765  0.00  0.00    +0.000 C 
ATOM     15  C   UNL     1      23.003  -1.897  13.228  0.00  0.00    +0.000 C 
ATOM     16  C   UNL     1      21.999  -2.784  12.796  0.00  0.00    +0.000 C 
ATOM     17  C   UNL     1      22.601  -4.012  13.141  0.00  0.00    +0.000 C 
ATOM     18  C   UNL     1      24.860  -3.383  13.941  0.00  0.00    +0.000 C 
ATOM     19  C   UNL     1      24.299  -1.321  15.257  0.00  0.00    +0.000 C 
ATOM     20  C   UNL     1      25.308  -1.115  12.928  0.00  0.00    +0.000 C 
ATOM     21  C   UNL     1      23.545  -5.185  15.099  0.00  0.00    +0.000 C 
BRANCH  14  22
ATOM     22  O   UNL     1      24.369  -5.494  12.937  0.00  0.00    +0.000 OA
ATOM     23  H   UNL     1      23.639  -5.637  12.307  0.00  0.00    +0.000 HD
ENDBRANCH  14  22
BRANCH  16  24
ATOM     24  O   UNL     1      20.677  -2.529  13.138  0.00  0.00    +0.000 OA
BRANCH  24  26
ATOM     25  O   UNL     1      19.815  -3.893  11.435  0.00  0.00    +0.000 OA
ATOM     26  C   UNL     1      19.858  -2.887  12.119  0.00  0.00    +0.000 C 
ATOM     27  C   UNL     1      18.837  -1.862  11.769  0.00  0.00    +0.000 C 
ENDBRANCH  24  26
ENDBRANCH  16  24
ENDBRANCH  11  18
ENDBRANCH   9  12
ENDBRANCH   8   9
ENDBRANCH   6   8
ENDBRANCH   4   7
ENDBRANCH   3   4
ENDBRANCH   2   3
BRANCH   1  28
ATOM     28  C   UNL     1      26.523  -6.129  23.861  0.00  0.00    +0.000 C 
BRANCH  28  29
ATOM     29  C   UNL     1      25.735  -6.002  24.882  0.00  0.00    +0.000 C 
ATOM     30  C   UNL     1      24.284  -5.692  24.675  0.00  0.00    +0.000 C 
BRANCH  29  32
ATOM     31  C   UNL     1      26.709  -6.227  27.300  0.00  0.00    +0.000 C 
ATOM     32  C   UNL     1      26.257  -6.118  26.193  0.00  0.00    +0.000 C 
BRANCH  31  33
ATOM     33  C   UNL     1      27.298  -6.376  28.708  0.00  0.00    +0.000 C 
BRANCH  33  34
ATOM     34  C   UNL     1      27.803  -6.508  29.898  0.00  0.00    +0.000 C 
ATOM     35  C   UNL     1      28.162  -7.914  30.336  0.00  0.00    +0.000 C 
BRANCH  34  37
ATOM     36  O   UNL     1      28.742  -5.308  31.739  0.00  0.00    +0.000 OA
ATOM     37  C   UNL     1      27.967  -5.317  30.787  0.00  0.00    +0.000 C 
BRANCH  37  38
ATOM     38  C   UNL     1      27.212  -4.109  30.556  0.00  0.00    +0.000 C 
BRANCH  38  40
ATOM     39  O   UNL     1      25.598  -2.654  31.517  0.00  0.00    +0.000 OA
ATOM     40  C   UNL     1      26.443  -2.895  30.358  0.00  0.00    +0.000 C 
ATOM     41  C   UNL     1      26.647  -1.707  31.323  0.00  0.00    +0.000 C 
ATOM     42  C   UNL     1      25.806  -2.604  28.953  0.00  0.00    +0.000 C 
ATOM     43  C   UNL     1      26.154  -0.435  30.905  0.00  0.00    +0.000 C 
ATOM     44  C   UNL     1      25.362  -1.208  28.966  0.00  0.00    +0.000 C 
ATOM     45  C   UNL     1      25.454  -0.043  29.751  0.00  0.00    +0.000 C 
ATOM     46  C   UNL     1      27.688  -1.716  32.446  0.00  0.00    +0.000 C 
ATOM     47  C   UNL     1      26.947  -2.817  27.929  0.00  0.00    +0.000 C 
ATOM     48  C   UNL     1      24.662  -3.628  28.785  0.00  0.00    +0.000 C 
BRANCH  45  49
ATOM     49  O   UNL     1      25.597   1.187  29.184  0.00  0.00    +0.000 OA
ATOM     50  H   UNL     1      26.419   1.264  28.666  0.00  0.00    +0.000 HD
ENDBRANCH  45  49
ENDBRANCH  38  40
ENDBRANCH  37  38
ENDBRANCH  34  37
ENDBRANCH  33  34
ENDBRANCH  31  33
ENDBRANCH  29  32
ENDBRANCH  28  29
ENDBRANCH   1  28
TORSDOF 19
ENDMDL
MODEL 2
REMARK VINA RESULT:      -6.9     15.566     22.049
REMARK  Name = 5281239_Fucoxanthin.pdbqt.pdb
REMARK  19 active torsions:
REMARK  status: ('A' for Active; 'I' for Inactive)
REMARK    1  A    between atoms: C_1  and  C_5
REMARK    2  A    between atoms: C_2  and  C_26
REMARK    3  A    between atoms: C_3  and  C_5
REMARK    4  A    between atoms: C_3  and  C_7
REMARK    5  A    between atoms: C_6  and  C_10
REMARK    6  A    between atoms: C_8  and  C_10
REMARK    7  A    between atoms: C_8  and  C_12
REMARK    8  A    between atoms: C_12  and  C_13
REMARK    9  A    between atoms: C_13  and  C_15
REMARK   10  A    between atoms: C_20  and  O_24
REMARK   11  A    between atoms: C_26  and  C_27
REMARK   12  A    between atoms: C_27  and  C_30
REMARK   13  A    between atoms: C_29  and  C_33
REMARK   14  A    between atoms: C_31  and  C_33
REMARK   15  A    between atoms: C_31  and  C_44
REMARK   16  A    between atoms: C_35  and  O_45
REMARK   17  A    between atoms: C_37  and  O_47
REMARK   18  A    between atoms: C_39  and  C_43
REMARK   19  A    between atoms: O_47  and  C_49
REMARK                            x       y       z     vdW  Elec       q    Type
REMARK                         _______ _______ _______ _____ _____    ______ ____
ROOT
ATOM      1  C   UNL     1      47.710  -8.280  18.056  0.00  0.00    +0.000 C 
ATOM      2  C   UNL     1      47.522  -9.362  18.539  0.00  0.00    +0.000 C 
ENDROOT
BRANCH   2   3
ATOM      3  C   UNL     1      47.287 -10.743  19.163  0.00  0.00    +0.000 C 
BRANCH   3   4
ATOM      4  C   UNL     1      47.090 -11.913  19.686  0.00  0.00    +0.000 C 
ATOM      5  C   UNL     1      48.234 -12.869  19.832  0.00  0.00    +0.000 C 
BRANCH   4   7
ATOM      6  C   UNL     1      44.716 -12.565  20.573  0.00  0.00    +0.000 C 
ATOM      7  C   UNL     1      45.805 -12.264  20.165  0.00  0.00    +0.000 C 
BRANCH   6   8
ATOM      8  C   UNL     1      43.328 -12.949  21.098  0.00  0.00    +0.000 C 
BRANCH   8   9
ATOM      9  C   UNL     1      42.157 -13.285  21.541  0.00  0.00    +0.000 C 
ATOM     10  C   UNL     1      42.014 -13.915  22.893  0.00  0.00    +0.000 C 
BRANCH   9  12
ATOM     11  C   UNL     1      40.062 -13.063  19.984  0.00  0.00    +0.000 C 
ATOM     12  C   UNL     1      41.024 -13.162  20.699  0.00  0.00    +0.000 C 
BRANCH  11  18
ATOM     13  C   UNL     1      37.583 -12.789  19.746  0.00  0.00    +0.000 C 
ATOM     14  C   UNL     1      39.148 -13.054  17.685  0.00  0.00    +0.000 C 
ATOM     15  C   UNL     1      36.646 -12.397  18.684  0.00  0.00    +0.000 C 
ATOM     16  C   UNL     1      36.630 -12.216  17.287  0.00  0.00    +0.000 C 
ATOM     17  C   UNL     1      37.958 -12.583  16.985  0.00  0.00    +0.000 C 
ATOM     18  C   UNL     1      39.010 -12.957  19.196  0.00  0.00    +0.000 C 
ATOM     19  C   UNL     1      37.135 -14.134  20.378  0.00  0.00    +0.000 C 
ATOM     20  C   UNL     1      37.582 -11.668  20.829  0.00  0.00    +0.000 C 
ATOM     21  C   UNL     1      39.519 -14.478  17.260  0.00  0.00    +0.000 C 
BRANCH  14  22
ATOM     22  O   UNL     1      40.233 -12.256  17.267  0.00  0.00    +0.000 OA
ATOM     23  H   UNL     1      40.819 -12.304  18.045  0.00  0.00    +0.000 HD
ENDBRANCH  14  22
BRANCH  16  24
ATOM     24  O   UNL     1      35.573 -12.732  16.550  0.00  0.00    +0.000 OA
BRANCH  24  26
ATOM     25  O   UNL     1      36.502 -14.138  14.918  0.00  0.00    +0.000 OA
ATOM     26  C   UNL     1      35.938 -13.902  15.971  0.00  0.00    +0.000 C 
ATOM     27  C   UNL     1      35.575 -15.111  16.758  0.00  0.00    +0.000 C 
ENDBRANCH  24  26
ENDBRANCH  16  24
ENDBRANCH  11  18
ENDBRANCH   9  12
ENDBRANCH   8   9
ENDBRANCH   6   8
ENDBRANCH   4   7
ENDBRANCH   3   4
ENDBRANCH   2   3
BRANCH   1  28
ATOM     28  C   UNL     1      47.957  -6.896  17.446  0.00  0.00    +0.000 C 
BRANCH  28  29
ATOM     29  C   UNL     1      48.168  -5.722  16.940  0.00  0.00    +0.000 C 
ATOM     30  C   UNL     1      49.450  -5.001  17.227  0.00  0.00    +0.000 C 
BRANCH  29  32
ATOM     31  C   UNL     1      46.310  -4.588  15.489  0.00  0.00    +0.000 C 
ATOM     32  C   UNL     1      47.168  -5.106  16.150  0.00  0.00    +0.000 C 
BRANCH  31  33
ATOM     33  C   UNL     1      45.203  -3.929  14.656  0.00  0.00    +0.000 C 
BRANCH  33  34
ATOM     34  C   UNL     1      44.271  -3.368  13.945  0.00  0.00    +0.000 C 
ATOM     35  C   UNL     1      44.289  -1.855  13.868  0.00  0.00    +0.000 C 
BRANCH  34  37
ATOM     36  O   UNL     1      42.127  -4.415  13.803  0.00  0.00    +0.000 OA
ATOM     37  C   UNL     1      43.218  -4.200  13.284  0.00  0.00    +0.000 C 
BRANCH  37  38
ATOM     38  C   UNL     1      43.445  -4.792  11.987  0.00  0.00    +0.000 C 
BRANCH  38  40
ATOM     39  O   UNL     1      44.694  -4.702   9.969  0.00  0.00    +0.000 OA
ATOM     40  C   UNL     1      43.643  -5.404  10.687  0.00  0.00    +0.000 C 
ATOM     41  C   UNL     1      45.009  -6.039  10.352  0.00  0.00    +0.000 C 
ATOM     42  C   UNL     1      42.394  -5.849   9.844  0.00  0.00    +0.000 C 
ATOM     43  C   UNL     1      45.061  -6.923   9.233  0.00  0.00    +0.000 C 
ATOM     44  C   UNL     1      42.894  -6.683   8.749  0.00  0.00    +0.000 C 
ATOM     45  C   UNL     1      44.075  -7.315   8.311  0.00  0.00    +0.000 C 
ATOM     46  C   UNL     1      46.156  -6.127  11.363  0.00  0.00    +0.000 C 
ATOM     47  C   UNL     1      41.512  -6.671  10.814  0.00  0.00    +0.000 C 
ATOM     48  C   UNL     1      41.708  -4.545   9.381  0.00  0.00    +0.000 C 
BRANCH  45  49
ATOM     49  O   UNL     1      44.050  -8.550   7.739  0.00  0.00    +0.000 OA
ATOM     50  H   UNL     1      44.193  -9.263   8.387  0.00  0.00    +0.000 HD
ENDBRANCH  45  49
ENDBRANCH  38  40
ENDBRANCH  37  38
ENDBRANCH  34  37
ENDBRANCH  33  34
ENDBRANCH  31  33
ENDBRANCH  29  32
ENDBRANCH  28  29
ENDBRANCH   1  28
TORSDOF 19
ENDMDL
MODEL 3
REMARK VINA RESULT:      -6.7     14.929     18.226
REMARK  Name = 5281239_Fucoxanthin.pdbqt.pdb
REMARK  19 active torsions:
REMARK  status: ('A' for Active; 'I' for Inactive)
REMARK    1  A    between atoms: C_1  and  C_5
REMARK    2  A    between atoms: C_2  and  C_26
REMARK    3  A    between atoms: C_3  and  C_5
REMARK    4  A    between atoms: C_3  and  C_7
REMARK    5  A    between atoms: C_6  and  C_10
REMARK    6  A    between atoms: C_8  and  C_10
REMARK    7  A    between atoms: C_8  and  C_12
REMARK    8  A    between atoms: C_12  and  C_13
REMARK    9  A    between atoms: C_13  and  C_15
REMARK   10  A    between atoms: C_20  and  O_24
REMARK   11  A    between atoms: C_26  and  C_27
REMARK   12  A    between atoms: C_27  and  C_30
REMARK   13  A    between atoms: C_29  and  C_33
REMARK   14  A    between atoms: C_31  and  C_33
REMARK   15  A    between atoms: C_31  and  C_44
REMARK   16  A    between atoms: C_35  and  O_45
REMARK   17  A    between atoms: C_37  and  O_47
REMARK   18  A    between atoms: C_39  and  C_43
REMARK   19  A    between atoms: O_47  and  C_49
REMARK                            x       y       z     vdW  Elec       q    Type
REMARK                         _______ _______ _______ _____ _____    ______ ____
ROOT
ATOM      1  C   UNL     1      45.214  -2.473  23.091  0.00  0.00    +0.000 C 
ATOM      2  C   UNL     1      46.160  -2.892  22.484  0.00  0.00    +0.000 C 
ENDROOT
BRANCH   2   3
ATOM      3  C   UNL     1      47.373  -3.426  21.712  0.00  0.00    +0.000 C 
BRANCH   3   4
ATOM      4  C   UNL     1      48.399  -3.873  21.059  0.00  0.00    +0.000 C 
ATOM      5  C   UNL     1      49.565  -4.452  21.802  0.00  0.00    +0.000 C 
BRANCH   4   7
ATOM      6  C   UNL     1      48.394  -3.850  18.442  0.00  0.00    +0.000 C 
ATOM      7  C   UNL     1      48.395  -3.860  19.644  0.00  0.00    +0.000 C 
BRANCH   6   8
ATOM      8  C   UNL     1      48.396  -3.842  16.910  0.00  0.00    +0.000 C 
BRANCH   8   9
ATOM      9  C   UNL     1      48.389  -3.828  15.613  0.00  0.00    +0.000 C 
ATOM     10  C   UNL     1      49.527  -3.212  14.860  0.00  0.00    +0.000 C 
BRANCH   9  12
ATOM     11  C   UNL     1      46.283  -4.692  14.314  0.00  0.00    +0.000 C 
ATOM     12  C   UNL     1      47.249  -4.292  14.910  0.00  0.00    +0.000 C 
BRANCH  11  18
ATOM     13  C   UNL     1      45.181  -5.197  12.122  0.00  0.00    +0.000 C 
ATOM     14  C   UNL     1      43.964  -5.550  14.394  0.00  0.00    +0.000 C 
ATOM     15  C   UNL     1      44.035  -5.991  11.657  0.00  0.00    +0.000 C 
ATOM     16  C   UNL     1      42.902  -6.639  12.185  0.00  0.00    +0.000 C 
ATOM     17  C   UNL     1      43.052  -6.310  13.547  0.00  0.00    +0.000 C 
ATOM     18  C   UNL     1      45.228  -5.131  13.659  0.00  0.00    +0.000 C 
ATOM     19  C   UNL     1      45.083  -3.750  11.568  0.00  0.00    +0.000 C 
ATOM     20  C   UNL     1      46.484  -5.876  11.600  0.00  0.00    +0.000 C 
ATOM     21  C   UNL     1      43.268  -4.336  15.016  0.00  0.00    +0.000 C 
BRANCH  14  22
ATOM     22  O   UNL     1      44.315  -6.367  15.488  0.00  0.00    +0.000 OA
ATOM     23  H   UNL     1      45.279  -6.230  15.531  0.00  0.00    +0.000 HD
ENDBRANCH  14  22
BRANCH  16  24
ATOM     24  O   UNL     1      41.676  -6.480  11.553  0.00  0.00    +0.000 OA
BRANCH  24  26
ATOM     25  O   UNL     1      42.522  -7.083   9.450  0.00  0.00    +0.000 OA
ATOM     26  C   UNL     1      41.852  -6.410  10.210  0.00  0.00    +0.000 C 
ATOM     27  C   UNL     1      41.100  -5.305   9.555  0.00  0.00    +0.000 C 
ENDBRANCH  24  26
ENDBRANCH  16  24
ENDBRANCH  11  18
ENDBRANCH   9  12
ENDBRANCH   8   9
ENDBRANCH   6   8
ENDBRANCH   4   7
ENDBRANCH   3   4
ENDBRANCH   2   3
BRANCH   1  28
ATOM     28  C   UNL     1      44.012  -1.932  23.874  0.00  0.00    +0.000 C 
BRANCH  28  29
ATOM     29  C   UNL     1      42.991  -1.485  24.534  0.00  0.00    +0.000 C 
ATOM     30  C   UNL     1      41.955  -0.655  23.839  0.00  0.00    +0.000 C 
BRANCH  29  32
ATOM     31  C   UNL     1      42.787  -1.964  27.098  0.00  0.00    +0.000 C 
ATOM     32  C   UNL     1      42.877  -1.751  25.919  0.00  0.00    +0.000 C 
BRANCH  31  33
ATOM     33  C   UNL     1      42.682  -2.224  28.605  0.00  0.00    +0.000 C 
BRANCH  33  34
ATOM     34  C   UNL     1      42.588  -2.436  29.884  0.00  0.00    +0.000 C 
ATOM     35  C   UNL     1      43.857  -2.284  30.698  0.00  0.00    +0.000 C 
BRANCH  34  37
ATOM     36  O   UNL     1      40.663  -2.144  31.271  0.00  0.00    +0.000 OA
ATOM     37  C   UNL     1      41.285  -2.855  30.488  0.00  0.00    +0.000 C 
BRANCH  37  38
ATOM     38  C   UNL     1      40.695  -4.133  30.166  0.00  0.00    +0.000 C 
BRANCH  38  40
ATOM     39  O   UNL     1      39.591  -6.061  31.009  0.00  0.00    +0.000 OA
ATOM     40  C   UNL     1      40.124  -5.420  29.817  0.00  0.00    +0.000 C 
ATOM     41  C   UNL     1      38.617  -5.663  30.045  0.00  0.00    +0.000 C 
ATOM     42  C   UNL     1      40.877  -6.349  28.798  0.00  0.00    +0.000 C 
ATOM     43  C   UNL     1      38.029  -6.781  29.381  0.00  0.00    +0.000 C 
ATOM     44  C   UNL     1      39.943  -7.411  28.419  0.00  0.00    +0.000 C 
ATOM     45  C   UNL     1      38.587  -7.770  28.553  0.00  0.00    +0.000 C 
ATOM     46  C   UNL     1      37.666  -4.577  30.556  0.00  0.00    +0.000 C 
ATOM     47  C   UNL     1      41.216  -5.445  27.588  0.00  0.00    +0.000 C 
ATOM     48  C   UNL     1      42.139  -6.851  29.534  0.00  0.00    +0.000 C 
BRANCH  45  49
ATOM     49  O   UNL     1      37.900  -8.349  27.530  0.00  0.00    +0.000 OA
ATOM     50  H   UNL     1      38.487  -8.663  26.819  0.00  0.00    +0.000 HD
ENDBRANCH  45  49
ENDBRANCH  38  40
ENDBRANCH  37  38
ENDBRANCH  34  37
ENDBRANCH  33  34
ENDBRANCH  31  33
ENDBRANCH  29  32
ENDBRANCH  28  29
ENDBRANCH   1  28
TORSDOF 19
ENDMDL
MODEL 4
REMARK VINA RESULT:      -6.3     17.544     22.671
REMARK  Name = 5281239_Fucoxanthin.pdbqt.pdb
REMARK  19 active torsions:
REMARK  status: ('A' for Active; 'I' for Inactive)
REMARK    1  A    between atoms: C_1  and  C_5
REMARK    2  A    between atoms: C_2  and  C_26
REMARK    3  A    between atoms: C_3  and  C_5
REMARK    4  A    between atoms: C_3  and  C_7
REMARK    5  A    between atoms: C_6  and  C_10
REMARK    6  A    between atoms: C_8  and  C_10
REMARK    7  A    between atoms: C_8  and  C_12
REMARK    8  A    between atoms: C_12  and  C_13
REMARK    9  A    between atoms: C_13  and  C_15
REMARK   10  A    between atoms: C_20  and  O_24
REMARK   11  A    between atoms: C_26  and  C_27
REMARK   12  A    between atoms: C_27  and  C_30
REMARK   13  A    between atoms: C_29  and  C_33
REMARK   14  A    between atoms: C_31  and  C_33
REMARK   15  A    between atoms: C_31  and  C_44
REMARK   16  A    between atoms: C_35  and  O_45
REMARK   17  A    between atoms: C_37  and  O_47
REMARK   18  A    between atoms: C_39  and  C_43
REMARK   19  A    between atoms: O_47  and  C_49
REMARK                            x       y       z     vdW  Elec       q    Type
REMARK                         _______ _______ _______ _____ _____    ______ ____
ROOT
ATOM      1  C   UNL     1      48.077  -9.010  18.749  0.00  0.00    +0.000 C 
ATOM      2  C   UNL     1      47.877 -10.136  19.112  0.00  0.00    +0.000 C 
ENDROOT
BRANCH   2   3
ATOM      3  C   UNL     1      47.626 -11.574  19.581  0.00  0.00    +0.000 C 
BRANCH   3   4
ATOM      4  C   UNL     1      47.418 -12.791  19.975  0.00  0.00    +0.000 C 
ATOM      5  C   UNL     1      48.578 -13.673  20.325  0.00  0.00    +0.000 C 
BRANCH   4   7
ATOM      6  C   UNL     1      44.968 -13.670  20.246  0.00  0.00    +0.000 C 
ATOM      7  C   UNL     1      46.094 -13.268  20.122  0.00  0.00    +0.000 C 
BRANCH   6   8
ATOM      8  C   UNL     1      43.531 -14.180  20.402  0.00  0.00    +0.000 C 
BRANCH   8   9
ATOM      9  C   UNL     1      42.318 -14.620  20.528  0.00  0.00    +0.000 C 
ATOM     10  C   UNL     1      41.847 -15.167  21.840  0.00  0.00    +0.000 C 
BRANCH   9  12
ATOM     11  C   UNL     1      40.758 -14.744  18.426  0.00  0.00    +0.000 C 
ATOM     12  C   UNL     1      41.473 -14.690  19.392  0.00  0.00    +0.000 C 
BRANCH  11  18
ATOM     13  C   UNL     1      40.243 -15.753  16.191  0.00  0.00    +0.000 C 
ATOM     14  C   UNL     1      38.773 -13.875  17.232  0.00  0.00    +0.000 C 
ATOM     15  C   UNL     1      39.079 -15.838  15.298  0.00  0.00    +0.000 C 
ATOM     16  C   UNL     1      37.814 -15.242  15.132  0.00  0.00    +0.000 C 
ATOM     17  C   UNL     1      37.852 -14.307  16.187  0.00  0.00    +0.000 C 
ATOM     18  C   UNL     1      39.972 -14.800  17.369  0.00  0.00    +0.000 C 
ATOM     19  C   UNL     1      41.476 -15.230  15.407  0.00  0.00    +0.000 C 
ATOM     20  C   UNL     1      40.533 -17.180  16.746  0.00  0.00    +0.000 C 
ATOM     21  C   UNL     1      39.223 -12.427  17.016  0.00  0.00    +0.000 C 
BRANCH  14  22
ATOM     22  O   UNL     1      38.061 -13.857  18.449  0.00  0.00    +0.000 OA
ATOM     23  H   UNL     1      37.997 -12.899  18.621  0.00  0.00    +0.000 HD
ENDBRANCH  14  22
BRANCH  16  24
ATOM     24  O   UNL     1      37.410 -14.853  13.862  0.00  0.00    +0.000 OA
BRANCH  24  26
ATOM     25  O   UNL     1      35.999 -16.695  13.517  0.00  0.00    +0.000 OA
ATOM     26  C   UNL     1      36.275 -15.510  13.515  0.00  0.00    +0.000 C 
ATOM     27  C   UNL     1      35.180 -14.622  13.038  0.00  0.00    +0.000 C 
ENDBRANCH  24  26
ENDBRANCH  16  24
ENDBRANCH  11  18
ENDBRANCH   9  12
ENDBRANCH   8   9
ENDBRANCH   6   8
ENDBRANCH   4   7
ENDBRANCH   3   4
ENDBRANCH   2   3
BRANCH   1  28
ATOM     28  C   UNL     1      48.339  -7.570  18.293  0.00  0.00    +0.000 C 
BRANCH  28  29
ATOM     29  C   UNL     1      48.562  -6.350  17.918  0.00  0.00    +0.000 C 
ATOM     30  C   UNL     1      49.662  -5.559  18.557  0.00  0.00    +0.000 C 
BRANCH  29  32
ATOM     31  C   UNL     1      47.027  -5.253  16.105  0.00  0.00    +0.000 C 
ATOM     32  C   UNL     1      47.738  -5.755  16.933  0.00  0.00    +0.000 C 
BRANCH  31  33
ATOM     33  C   UNL     1      46.107  -4.615  15.058  0.00  0.00    +0.000 C 
BRANCH  33  34
ATOM     34  C   UNL     1      45.334  -4.074  14.163  0.00  0.00    +0.000 C 
ATOM     35  C   UNL     1      45.625  -2.636  13.789  0.00  0.00    +0.000 C 
BRANCH  34  37
ATOM     36  O   UNL     1      43.196  -5.139  14.240  0.00  0.00    +0.000 OA
ATOM     37  C   UNL     1      44.191  -4.846  13.585  0.00  0.00    +0.000 C 
BRANCH  37  38
ATOM     38  C   UNL     1      44.210  -5.282  12.209  0.00  0.00    +0.000 C 
BRANCH  38  40
ATOM     39  O   UNL     1      45.127  -4.944  10.044  0.00  0.00    +0.000 OA
ATOM     40  C   UNL     1      44.203  -5.742  10.833  0.00  0.00    +0.000 C 
ATOM     41  C   UNL     1      45.501  -6.309  10.221  0.00  0.00    +0.000 C 
ATOM     42  C   UNL     1      42.839  -6.116  10.150  0.00  0.00    +0.000 C 
ATOM     43  C   UNL     1      45.380  -7.062   9.015  0.00  0.00    +0.000 C 
ATOM     44  C   UNL     1      43.163  -6.815   8.903  0.00  0.00    +0.000 C 
ATOM     45  C   UNL     1      44.262  -7.369   8.220  0.00  0.00    +0.000 C 
ATOM     46  C   UNL     1      46.793  -6.484  11.024  0.00  0.00    +0.000 C 
ATOM     47  C   UNL     1      42.122  -7.059  11.147  0.00  0.00    +0.000 C 
ATOM     48  C   UNL     1      42.085  -4.784   9.948  0.00  0.00    +0.000 C 
BRANCH  45  49
ATOM     49  O   UNL     1      44.152  -8.534   7.523  0.00  0.00    +0.000 OA
ATOM     50  H   UNL     1      43.257  -8.668   7.163  0.00  0.00    +0.000 HD
ENDBRANCH  45  49
ENDBRANCH  38  40
ENDBRANCH  37  38
ENDBRANCH  34  37
ENDBRANCH  33  34
ENDBRANCH  31  33
ENDBRANCH  29  32
ENDBRANCH  28  29
ENDBRANCH   1  28
TORSDOF 19
ENDMDL
MODEL 5
REMARK VINA RESULT:      -6.2     21.839     26.092
REMARK  Name = 5281239_Fucoxanthin.pdbqt.pdb
REMARK  19 active torsions:
REMARK  status: ('A' for Active; 'I' for Inactive)
REMARK    1  A    between atoms: C_1  and  C_5
REMARK    2  A    between atoms: C_2  and  C_26
REMARK    3  A    between atoms: C_3  and  C_5
REMARK    4  A    between atoms: C_3  and  C_7
REMARK    5  A    between atoms: C_6  and  C_10
REMARK    6  A    between atoms: C_8  and  C_10
REMARK    7  A    between atoms: C_8  and  C_12
REMARK    8  A    between atoms: C_12  and  C_13
REMARK    9  A    between atoms: C_13  and  C_15
REMARK   10  A    between atoms: C_20  and  O_24
REMARK   11  A    between atoms: C_26  and  C_27
REMARK   12  A    between atoms: C_27  and  C_30
REMARK   13  A    between atoms: C_29  and  C_33
REMARK   14  A    between atoms: C_31  and  C_33
REMARK   15  A    between atoms: C_31  and  C_44
REMARK   16  A    between atoms: C_35  and  O_45
REMARK   17  A    between atoms: C_37  and  O_47
REMARK   18  A    between atoms: C_39  and  C_43
REMARK   19  A    between atoms: O_47  and  C_49
REMARK                            x       y       z     vdW  Elec       q    Type
REMARK                         _______ _______ _______ _____ _____    ______ ____
ROOT
ATOM      1  C   UNL     1      48.433 -12.387  14.920  0.00  0.00    +0.000 C 
ATOM      2  C   UNL     1      48.424 -11.654  15.870  0.00  0.00    +0.000 C 
ENDROOT
BRANCH   2   3
ATOM      3  C   UNL     1      48.405 -10.720  17.086  0.00  0.00    +0.000 C 
BRANCH   3   4
ATOM      4  C   UNL     1      48.385  -9.932  18.115  0.00  0.00    +0.000 C 
ATOM      5  C   UNL     1      48.480 -10.504  19.497  0.00  0.00    +0.000 C 
BRANCH   4   7
ATOM      6  C   UNL     1      48.278  -7.340  17.774  0.00  0.00    +0.000 C 
ATOM      7  C   UNL     1      48.326  -8.531  17.929  0.00  0.00    +0.000 C 
BRANCH   6   8
ATOM      8  C   UNL     1      48.222  -5.821  17.576  0.00  0.00    +0.000 C 
BRANCH   8   9
ATOM      9  C   UNL     1      48.165  -4.537  17.410  0.00  0.00    +0.000 C 
ATOM     10  C   UNL     1      48.434  -3.616  18.560  0.00  0.00    +0.000 C 
BRANCH   9  12
ATOM     11  C   UNL     1      47.367  -3.549  15.118  0.00  0.00    +0.000 C 
ATOM     12  C   UNL     1      47.733  -4.005  16.169  0.00  0.00    +0.000 C 
BRANCH  11  18
ATOM     13  C   UNL     1      45.672  -3.520  13.273  0.00  0.00    +0.000 C 
ATOM     14  C   UNL     1      47.785  -2.003  13.232  0.00  0.00    +0.000 C 
ATOM     15  C   UNL     1      45.292  -2.612  12.183  0.00  0.00    +0.000 C 
ATOM     16  C   UNL     1      45.796  -1.482  11.510  0.00  0.00    +0.000 C 
ATOM     17  C   UNL     1      47.028  -1.336  12.179  0.00  0.00    +0.000 C 
ATOM     18  C   UNL     1      46.961  -3.048  13.969  0.00  0.00    +0.000 C 
ATOM     19  C   UNL     1      45.908  -4.949  12.714  0.00  0.00    +0.000 C 
ATOM     20  C   UNL     1      44.510  -3.543  14.312  0.00  0.00    +0.000 C 
ATOM     21  C   UNL     1      49.080  -2.612  12.689  0.00  0.00    +0.000 C 
BRANCH  14  22
ATOM     22  O   UNL     1      48.204  -1.016  14.148  0.00  0.00    +0.000 OA
ATOM     23  H   UNL     1      48.860  -0.526  13.618  0.00  0.00    +0.000 HD
ENDBRANCH  14  22
BRANCH  16  24
ATOM     24  O   UNL     1      45.739  -1.440  10.123  0.00  0.00    +0.000 OA
BRANCH  24  26
ATOM     25  O   UNL     1      47.542  -2.794   9.473  0.00  0.00    +0.000 OA
ATOM     26  C   UNL     1      46.955  -1.734   9.600  0.00  0.00    +0.000 C 
ATOM     27  C   UNL     1      47.709  -0.550   9.106  0.00  0.00    +0.000 C 
ENDBRANCH  24  26
ENDBRANCH  16  24
ENDBRANCH  11  18
ENDBRANCH   9  12
ENDBRANCH   8   9
ENDBRANCH   6   8
ENDBRANCH   4   7
ENDBRANCH   3   4
ENDBRANCH   2   3
BRANCH   1  28
ATOM     28  C   UNL     1      48.435 -13.326  13.708  0.00  0.00    +0.000 C 
BRANCH  28  29
ATOM     29  C   UNL     1      48.448 -14.119  12.684  0.00  0.00    +0.000 C 
ATOM     30  C   UNL     1      49.217 -15.404  12.741  0.00  0.00    +0.000 C 
BRANCH  29  32
ATOM     31  C   UNL     1      47.198 -13.431  10.491  0.00  0.00    +0.000 C 
ATOM     32  C   UNL     1      47.766 -13.751  11.500  0.00  0.00    +0.000 C 
BRANCH  31  33
ATOM     33  C   UNL     1      46.487 -13.012   9.199  0.00  0.00    +0.000 C 
BRANCH  33  34
ATOM     34  C   UNL     1      45.876 -12.663   8.106  0.00  0.00    +0.000 C 
ATOM     35  C   UNL     1      45.690 -13.737   7.054  0.00  0.00    +0.000 C 
BRANCH  34  37
ATOM     36  O   UNL     1      44.307 -10.962   7.508  0.00  0.00    +0.000 OA
ATOM     37  C   UNL     1      45.432 -11.248   7.906  0.00  0.00    +0.000 C 
BRANCH  37  38
ATOM     38  C   UNL     1      46.322 -10.145   8.179  0.00  0.00    +0.000 C 
BRANCH  38  40
ATOM     39  O   UNL     1      46.768  -7.843   7.803  0.00  0.00    +0.000 OA
ATOM     40  C   UNL     1      47.215  -9.045   8.488  0.00  0.00    +0.000 C 
ATOM     41  C   UNL     1      46.660  -7.807   9.224  0.00  0.00    +0.000 C 
ATOM     42  C   UNL     1      48.765  -9.295   8.528  0.00  0.00    +0.000 C 
ATOM     43  C   UNL     1      47.609  -6.919   9.815  0.00  0.00    +0.000 C 
ATOM     44  C   UNL     1      49.373  -8.113   9.145  0.00  0.00    +0.000 C 
ATOM     45  C   UNL     1      49.014  -6.933   9.825  0.00  0.00    +0.000 C 
ATOM     46  C   UNL     1      45.214  -7.712   9.721  0.00  0.00    +0.000 C 
ATOM     47  C   UNL     1      48.959 -10.549   9.414  0.00  0.00    +0.000 C 
ATOM     48  C   UNL     1      49.194  -9.533   7.063  0.00  0.00    +0.000 C 
BRANCH  45  49
ATOM     49  O   UNL     1      49.749  -6.465  10.871  0.00  0.00    +0.000 OA
ATOM     50  H   UNL     1      49.427  -6.796  11.728  0.00  0.00    +0.000 HD
ENDBRANCH  45  49
ENDBRANCH  38  40
ENDBRANCH  37  38
ENDBRANCH  34  37
ENDBRANCH  33  34
ENDBRANCH  31  33
ENDBRANCH  29  32
ENDBRANCH  28  29
ENDBRANCH   1  28
TORSDOF 19
ENDMDL
MODEL 6
REMARK VINA RESULT:      -6.2     15.293     22.671
REMARK  Name = 5281239_Fucoxanthin.pdbqt.pdb
REMARK  19 active torsions:
REMARK  status: ('A' for Active; 'I' for Inactive)
REMARK    1  A    between atoms: C_1  and  C_5
REMARK    2  A    between atoms: C_2  and  C_26
REMARK    3  A    between atoms: C_3  and  C_5
REMARK    4  A    between atoms: C_3  and  C_7
REMARK    5  A    between atoms: C_6  and  C_10
REMARK    6  A    between atoms: C_8  and  C_10
REMARK    7  A    between atoms: C_8  and  C_12
REMARK    8  A    between atoms: C_12  and  C_13
REMARK    9  A    between atoms: C_13  and  C_15
REMARK   10  A    between atoms: C_20  and  O_24
REMARK   11  A    between atoms: C_26  and  C_27
REMARK   12  A    between atoms: C_27  and  C_30
REMARK   13  A    between atoms: C_29  and  C_33
REMARK   14  A    between atoms: C_31  and  C_33
REMARK   15  A    between atoms: C_31  and  C_44
REMARK   16  A    between atoms: C_35  and  O_45
REMARK   17  A    between atoms: C_37  and  O_47
REMARK   18  A    between atoms: C_39  and  C_43
REMARK   19  A    between atoms: O_47  and  C_49
REMARK                            x       y       z     vdW  Elec       q    Type
REMARK                         _______ _______ _______ _____ _____    ______ ____
ROOT
ATOM      1  C   UNL     1      48.086  -9.761  19.074  0.00  0.00    +0.000 C 
ATOM      2  C   UNL     1      48.075 -10.954  19.202  0.00  0.00    +0.000 C 
ENDROOT
BRANCH   2   3
ATOM      3  C   UNL     1      48.068 -12.479  19.369  0.00  0.00    +0.000 C 
BRANCH   3   4
ATOM      4  C   UNL     1      48.061 -13.767  19.506  0.00  0.00    +0.000 C 
ATOM      5  C   UNL     1      49.280 -14.472  20.018  0.00  0.00    +0.000 C 
BRANCH   4   7
ATOM      6  C   UNL     1      45.884 -15.120  18.980  0.00  0.00    +0.000 C 
ATOM      7  C   UNL     1      46.884 -14.501  19.222  0.00  0.00    +0.000 C 
BRANCH   6   8
ATOM      8  C   UNL     1      44.606 -15.907  18.668  0.00  0.00    +0.000 C 
BRANCH   8   9
ATOM      9  C   UNL     1      43.528 -16.581  18.410  0.00  0.00    +0.000 C 
ATOM     10  C   UNL     1      43.594 -18.065  18.220  0.00  0.00    +0.000 C 
BRANCH   9  12
ATOM     11  C   UNL     1      41.268 -15.319  18.004  0.00  0.00    +0.000 C 
ATOM     12  C   UNL     1      42.306 -15.897  18.194  0.00  0.00    +0.000 C 
BRANCH  11  18
ATOM     13  C   UNL     1      39.386 -14.753  16.451  0.00  0.00    +0.000 C 
ATOM     14  C   UNL     1      39.525 -13.786  18.862  0.00  0.00    +0.000 C 
ATOM     15  C   UNL     1      38.024 -14.214  16.570  0.00  0.00    +0.000 C 
ATOM     16  C   UNL     1      37.214 -13.561  17.519  0.00  0.00    +0.000 C 
ATOM     17  C   UNL     1      38.135 -13.448  18.581  0.00  0.00    +0.000 C 
ATOM     18  C   UNL     1      40.134 -14.682  17.794  0.00  0.00    +0.000 C 
ATOM     19  C   UNL     1      40.186 -13.944  15.396  0.00  0.00    +0.000 C 
ATOM     20  C   UNL     1      39.279 -16.244  16.005  0.00  0.00    +0.000 C 
ATOM     21  C   UNL     1      40.375 -12.529  19.068  0.00  0.00    +0.000 C 
BRANCH  14  22
ATOM     22  O   UNL     1      39.561 -14.456  20.102  0.00  0.00    +0.000 OA
ATOM     23  H   UNL     1      39.876 -13.749  20.695  0.00  0.00    +0.000 HD
ENDBRANCH  14  22
BRANCH  16  24
ATOM     24  O   UNL     1      36.459 -12.465  17.124  0.00  0.00    +0.000 OA
BRANCH  24  26
ATOM     25  O   UNL     1      34.563 -13.457  16.161  0.00  0.00    +0.000 OA
ATOM     26  C   UNL     1      35.154 -12.817  17.012  0.00  0.00    +0.000 C 
ATOM     27  C   UNL     1      34.293 -12.323  18.120  0.00  0.00    +0.000 C 
ENDBRANCH  24  26
ENDBRANCH  16  24
ENDBRANCH  11  18
ENDBRANCH   9  12
ENDBRANCH   8   9
ENDBRANCH   6   8
ENDBRANCH   4   7
ENDBRANCH   3   4
ENDBRANCH   2   3
BRANCH   1  28
ATOM     28  C   UNL     1      48.108  -8.237  18.917  0.00  0.00    +0.000 C 
BRANCH  28  29
ATOM     29  C   UNL     1      48.122  -6.947  18.795  0.00  0.00    +0.000 C 
ATOM     30  C   UNL     1      48.686  -6.096  19.892  0.00  0.00    +0.000 C 
BRANCH  29  32
ATOM     31  C   UNL     1      47.088  -5.840  16.661  0.00  0.00    +0.000 C 
ATOM     32  C   UNL     1      47.569  -6.344  17.640  0.00  0.00    +0.000 C 
BRANCH  31  33
ATOM     33  C   UNL     1      46.461  -5.207  15.414  0.00  0.00    +0.000 C 
BRANCH  33  34
ATOM     34  C   UNL     1      45.931  -4.662  14.359  0.00  0.00    +0.000 C 
ATOM     35  C   UNL     1      46.639  -3.450  13.788  0.00  0.00    +0.000 C 
BRANCH  34  37
ATOM     36  O   UNL     1      43.654  -5.378  14.470  0.00  0.00    +0.000 OA
ATOM     37  C   UNL     1      44.658  -5.200  13.787  0.00  0.00    +0.000 C 
BRANCH  37  38
ATOM     38  C   UNL     1      44.555  -5.532  12.387  0.00  0.00    +0.000 C 
BRANCH  38  40
ATOM     39  O   UNL     1      45.260  -5.009  10.180  0.00  0.00    +0.000 OA
ATOM     40  C   UNL     1      44.443  -5.900  10.988  0.00  0.00    +0.000 C 
ATOM     41  C   UNL     1      45.703  -6.364  10.228  0.00  0.00    +0.000 C 
ATOM     42  C   UNL     1      43.040  -6.290  10.400  0.00  0.00    +0.000 C 
ATOM     43  C   UNL     1      45.505  -7.040   8.986  0.00  0.00    +0.000 C 
ATOM     44  C   UNL     1      43.279  -6.888   9.085  0.00  0.00    +0.000 C 
ATOM     45  C   UNL     1      44.334  -7.345   8.271  0.00  0.00    +0.000 C 
ATOM     46  C   UNL     1      47.068  -6.533  10.902  0.00  0.00    +0.000 C 
ATOM     47  C   UNL     1      42.453  -7.329  11.387  0.00  0.00    +0.000 C 
ATOM     48  C   UNL     1      42.218  -4.983  10.359  0.00  0.00    +0.000 C 
BRANCH  45  49
ATOM     49  O   UNL     1      44.208  -8.465   7.507  0.00  0.00    +0.000 OA
ATOM     50  H   UNL     1      44.533  -9.263   7.960  0.00  0.00    +0.000 HD
ENDBRANCH  45  49
ENDBRANCH  38  40
ENDBRANCH  37  38
ENDBRANCH  34  37
ENDBRANCH  33  34
ENDBRANCH  31  33
ENDBRANCH  29  32
ENDBRANCH  28  29
ENDBRANCH   1  28
TORSDOF 19
ENDMDL
MODEL 7
REMARK VINA RESULT:      -5.8     16.831     19.631
REMARK  Name = 5281239_Fucoxanthin.pdbqt.pdb
REMARK  19 active torsions:
REMARK  status: ('A' for Active; 'I' for Inactive)
REMARK    1  A    between atoms: C_1  and  C_5
REMARK    2  A    between atoms: C_2  and  C_26
REMARK    3  A    between atoms: C_3  and  C_5
REMARK    4  A    between atoms: C_3  and  C_7
REMARK    5  A    between atoms: C_6  and  C_10
REMARK    6  A    between atoms: C_8  and  C_10
REMARK    7  A    between atoms: C_8  and  C_12
REMARK    8  A    between atoms: C_12  and  C_13
REMARK    9  A    between atoms: C_13  and  C_15
REMARK   10  A    between atoms: C_20  and  O_24
REMARK   11  A    between atoms: C_26  and  C_27
REMARK   12  A    between atoms: C_27  and  C_30
REMARK   13  A    between atoms: C_29  and  C_33
REMARK   14  A    between atoms: C_31  and  C_33
REMARK   15  A    between atoms: C_31  and  C_44
REMARK   16  A    between atoms: C_35  and  O_45
REMARK   17  A    between atoms: C_37  and  O_47
REMARK   18  A    between atoms: C_39  and  C_43
REMARK   19  A    between atoms: O_47  and  C_49
REMARK                            x       y       z     vdW  Elec       q    Type
REMARK                         _______ _______ _______ _____ _____    ______ ____
ROOT
ATOM      1  C   UNL     1      45.145  -2.476  22.921  0.00  0.00    +0.000 C 
ATOM      2  C   UNL     1      46.123  -2.820  22.317  0.00  0.00    +0.000 C 
ENDROOT
BRANCH   2   3
ATOM      3  C   UNL     1      47.377  -3.258  21.551  0.00  0.00    +0.000 C 
BRANCH   3   4
ATOM      4  C   UNL     1      48.437  -3.624  20.901  0.00  0.00    +0.000 C 
ATOM      5  C   UNL     1      49.661  -4.057  21.649  0.00  0.00    +0.000 C 
BRANCH   4   7
ATOM      6  C   UNL     1      48.407  -3.697  18.286  0.00  0.00    +0.000 C 
ATOM      7  C   UNL     1      48.419  -3.663  19.486  0.00  0.00    +0.000 C 
BRANCH   6   8
ATOM      8  C   UNL     1      48.395  -3.744  16.753  0.00  0.00    +0.000 C 
BRANCH   8   9
ATOM      9  C   UNL     1      48.376  -3.778  15.457  0.00  0.00    +0.000 C 
ATOM     10  C   UNL     1      49.503  -3.181  14.671  0.00  0.00    +0.000 C 
BRANCH   9  12
ATOM     11  C   UNL     1      46.265  -4.703  14.211  0.00  0.00    +0.000 C 
ATOM     12  C   UNL     1      47.234  -4.275  14.782  0.00  0.00    +0.000 C 
BRANCH  11  18
ATOM     13  C   UNL     1      45.138  -5.274  12.047  0.00  0.00    +0.000 C 
ATOM     14  C   UNL     1      43.962  -5.597  14.346  0.00  0.00    +0.000 C 
ATOM     15  C   UNL     1      43.998  -6.096  11.618  0.00  0.00    +0.000 C 
ATOM     16  C   UNL     1      42.884  -6.752  12.178  0.00  0.00    +0.000 C 
ATOM     17  C   UNL     1      43.050  -6.390  13.530  0.00  0.00    +0.000 C 
ATOM     18  C   UNL     1      45.207  -5.174  13.582  0.00  0.00    +0.000 C 
ATOM     19  C   UNL     1      45.007  -3.841  11.465  0.00  0.00    +0.000 C 
ATOM     20  C   UNL     1      46.443  -5.943  11.520  0.00  0.00    +0.000 C 
ATOM     21  C   UNL     1      43.255  -4.381  14.953  0.00  0.00    +0.000 C 
BRANCH  14  22
ATOM     22  O   UNL     1      44.343  -6.385  15.451  0.00  0.00    +0.000 OA
ATOM     23  H   UNL     1      43.490  -6.778  15.712  0.00  0.00    +0.000 HD
ENDBRANCH  14  22
BRANCH  16  24
ATOM     24  O   UNL     1      41.646  -6.626  11.562  0.00  0.00    +0.000 OA
BRANCH  24  26
ATOM     25  O   UNL     1      41.560  -4.612  10.361  0.00  0.00    +0.000 OA
ATOM     26  C   UNL     1      41.745  -5.809  10.484  0.00  0.00    +0.000 C 
ATOM     27  C   UNL     1      42.138  -6.503   9.228  0.00  0.00    +0.000 C 
ENDBRANCH  24  26
ENDBRANCH  16  24
ENDBRANCH  11  18
ENDBRANCH   9  12
ENDBRANCH   8   9
ENDBRANCH   6   8
ENDBRANCH   4   7
ENDBRANCH   3   4
ENDBRANCH   2   3
BRANCH   1  28
ATOM     28  C   UNL     1      43.902  -2.036  23.702  0.00  0.00    +0.000 C 
BRANCH  28  29
ATOM     29  C   UNL     1      42.845  -1.670  24.356  0.00  0.00    +0.000 C 
ATOM     30  C   UNL     1      41.495  -1.770  23.713  0.00  0.00    +0.000 C 
BRANCH  29  32
ATOM     31  C   UNL     1      43.074  -0.681  26.767  0.00  0.00    +0.000 C 
ATOM     32  C   UNL     1      42.973  -1.141  25.662  0.00  0.00    +0.000 C 
BRANCH  31  33
ATOM     33  C   UNL     1      43.195  -0.080  28.172  0.00  0.00    +0.000 C 
BRANCH  33  34
ATOM     34  C   UNL     1      43.292   0.424  29.367  0.00  0.00    +0.000 C 
ATOM     35  C   UNL     1      43.595   1.905  29.461  0.00  0.00    +0.000 C 
BRANCH  34  37
ATOM     36  O   UNL     1      42.304  -0.250  31.436  0.00  0.00    +0.000 OA
ATOM     37  C   UNL     1      43.151  -0.452  30.571  0.00  0.00    +0.000 C 
BRANCH  37  38
ATOM     38  C   UNL     1      44.018  -1.589  30.767  0.00  0.00    +0.000 C 
BRANCH  38  40
ATOM     39  O   UNL     1      44.697  -3.704  29.925  0.00  0.00    +0.000 OA
ATOM     40  C   UNL     1      44.875  -2.737  30.996  0.00  0.00    +0.000 C 
ATOM     41  C   UNL     1      45.976  -3.073  29.967  0.00  0.00    +0.000 C 
ATOM     42  C   UNL     1      45.019  -3.317  32.449  0.00  0.00    +0.000 C 
ATOM     43  C   UNL     1      47.006  -3.969  30.383  0.00  0.00    +0.000 C 
ATOM     44  C   UNL     1      46.148  -4.250  32.426  0.00  0.00    +0.000 C 
ATOM     45  C   UNL     1      47.201  -4.666  31.588  0.00  0.00    +0.000 C 
ATOM     46  C   UNL     1      46.263  -2.202  28.741  0.00  0.00    +0.000 C 
ATOM     47  C   UNL     1      45.321  -2.098  33.353  0.00  0.00    +0.000 C 
ATOM     48  C   UNL     1      43.662  -3.977  32.779  0.00  0.00    +0.000 C 
BRANCH  45  49
ATOM     49  O   UNL     1      48.438  -4.946  32.085  0.00  0.00    +0.000 OA
ATOM     50  H   UNL     1      49.113  -5.008  31.387  0.00  0.00    +0.000 HD
ENDBRANCH  45  49
ENDBRANCH  38  40
ENDBRANCH  37  38
ENDBRANCH  34  37
ENDBRANCH  33  34
ENDBRANCH  31  33
ENDBRANCH  29  32
ENDBRANCH  28  29
ENDBRANCH   1  28
TORSDOF 19
ENDMDL
MODEL 8
REMARK VINA RESULT:      -5.7      7.096     12.433
REMARK  Name = 5281239_Fucoxanthin.pdbqt.pdb
REMARK  19 active torsions:
REMARK  status: ('A' for Active; 'I' for Inactive)
REMARK    1  A    between atoms: C_1  and  C_5
REMARK    2  A    between atoms: C_2  and  C_26
REMARK    3  A    between atoms: C_3  and  C_5
REMARK    4  A    between atoms: C_3  and  C_7
REMARK    5  A    between atoms: C_6  and  C_10
REMARK    6  A    between atoms: C_8  and  C_10
REMARK    7  A    between atoms: C_8  and  C_12
REMARK    8  A    between atoms: C_12  and  C_13
REMARK    9  A    between atoms: C_13  and  C_15
REMARK   10  A    between atoms: C_20  and  O_24
REMARK   11  A    between atoms: C_26  and  C_27
REMARK   12  A    between atoms: C_27  and  C_30
REMARK   13  A    between atoms: C_29  and  C_33
REMARK   14  A    between atoms: C_31  and  C_33
REMARK   15  A    between atoms: C_31  and  C_44
REMARK   16  A    between atoms: C_35  and  O_45
REMARK   17  A    between atoms: C_37  and  O_47
REMARK   18  A    between atoms: C_39  and  C_43
REMARK   19  A    between atoms: O_47  and  C_49
REMARK                            x       y       z     vdW  Elec       q    Type
REMARK                         _______ _______ _______ _____ _____    ______ ____
ROOT
ATOM      1  C   UNL     1      21.630  -2.337  17.318  0.00  0.00    +0.000 C 
ATOM      2  C   UNL     1      20.549  -2.810  17.538  0.00  0.00    +0.000 C 
ENDROOT
BRANCH   2   3
ATOM      3  C   UNL     1      19.168  -3.410  17.825  0.00  0.00    +0.000 C 
BRANCH   3   4
ATOM      4  C   UNL     1      18.002  -3.920  18.071  0.00  0.00    +0.000 C 
ATOM      5  C   UNL     1      17.794  -4.751  19.300  0.00  0.00    +0.000 C 
BRANCH   4   7
ATOM      6  C   UNL     1      15.993  -3.415  16.473  0.00  0.00    +0.000 C 
ATOM      7  C   UNL     1      16.916  -3.648  17.206  0.00  0.00    +0.000 C 
BRANCH   6   8
ATOM      8  C   UNL     1      14.815  -3.114  15.540  0.00  0.00    +0.000 C 
BRANCH   8   9
ATOM      9  C   UNL     1      13.812  -2.858  14.758  0.00  0.00    +0.000 C 
ATOM     10  C   UNL     1      12.495  -3.538  14.975  0.00  0.00    +0.000 C 
BRANCH   9  12
ATOM     11  C   UNL     1      14.156  -1.317  12.668  0.00  0.00    +0.000 C 
ATOM     12  C   UNL     1      13.995  -2.023  13.628  0.00  0.00    +0.000 C 
BRANCH  11  18
ATOM     13  C   UNL     1      13.163  -0.020  10.768  0.00  0.00    +0.000 C 
ATOM     14  C   UNL     1      15.732  -0.159  11.152  0.00  0.00    +0.000 C 
ATOM     15  C   UNL     1      13.599   1.048   9.858  0.00  0.00    +0.000 C 
ATOM     16  C   UNL     1      14.786   1.687   9.452  0.00  0.00    +0.000 C 
ATOM     17  C   UNL     1      15.722   0.952  10.208  0.00  0.00    +0.000 C 
ATOM     18  C   UNL     1      14.336  -0.540  11.618  0.00  0.00    +0.000 C 
ATOM     19  C   UNL     1      12.579  -1.205   9.953  0.00  0.00    +0.000 C 
ATOM     20  C   UNL     1      12.069   0.565  11.712  0.00  0.00    +0.000 C 
ATOM     21  C   UNL     1      16.466  -1.374  10.576  0.00  0.00    +0.000 C 
BRANCH  14  22
ATOM     22  O   UNL     1      16.500   0.234  12.268  0.00  0.00    +0.000 OA
ATOM     23  H   UNL     1      16.342  -0.506  12.882  0.00  0.00    +0.000 HD
ENDBRANCH  14  22
BRANCH  16  24
ATOM     24  O   UNL     1      15.002   1.919   8.099  0.00  0.00    +0.000 OA
BRANCH  24  26
ATOM     25  O   UNL     1      12.886   1.845   7.088  0.00  0.00    +0.000 OA
ATOM     26  C   UNL     1      13.982   1.399   7.372  0.00  0.00    +0.000 C 
ATOM     27  C   UNL     1      14.249   0.036   6.837  0.00  0.00    +0.000 C 
ENDBRANCH  24  26
ENDBRANCH  16  24
ENDBRANCH  11  18
ENDBRANCH   9  12
ENDBRANCH   8   9
ENDBRANCH   6   8
ENDBRANCH   4   7
ENDBRANCH   3   4
ENDBRANCH   2   3
BRANCH   1  28
ATOM     28  C   UNL     1      23.010  -1.728  17.045  0.00  0.00    +0.000 C 
BRANCH  28  29
ATOM     29  C   UNL     1      24.179  -1.213  16.827  0.00  0.00    +0.000 C 
ATOM     30  C   UNL     1      24.458   0.206  17.216  0.00  0.00    +0.000 C 
BRANCH  29  32
ATOM     31  C   UNL     1      26.035  -2.630  15.646  0.00  0.00    +0.000 C 
ATOM     32  C   UNL     1      25.178  -1.983  16.184  0.00  0.00    +0.000 C 
BRANCH  31  33
ATOM     33  C   UNL     1      27.141  -3.447  14.968  0.00  0.00    +0.000 C 
BRANCH  33  34
ATOM     34  C   UNL     1      28.078  -4.135  14.386  0.00  0.00    +0.000 C 
ATOM     35  C   UNL     1      29.003  -3.377  13.456  0.00  0.00    +0.000 C 
BRANCH  34  37
ATOM     36  O   UNL     1      28.506  -6.388  13.716  0.00  0.00    +0.000 OA
ATOM     37  C   UNL     1      28.184  -5.610  14.608  0.00  0.00    +0.000 C 
BRANCH  37  38
ATOM     38  C   UNL     1      27.911  -6.188  15.903  0.00  0.00    +0.000 C 
BRANCH  38  40
ATOM     39  O   UNL     1      28.546  -7.821  17.507  0.00  0.00    +0.000 OA
ATOM     40  C   UNL     1      27.605  -6.755  17.202  0.00  0.00    +0.000 C 
ATOM     41  C   UNL     1      28.652  -6.662  18.332  0.00  0.00    +0.000 C 
ATOM     42  C   UNL     1      26.107  -7.007  17.602  0.00  0.00    +0.000 C 
ATOM     43  C   UNL     1      28.200  -6.905  19.663  0.00  0.00    +0.000 C 
ATOM     44  C   UNL     1      26.091  -7.292  19.039  0.00  0.00    +0.000 C 
ATOM     45  C   UNL     1      26.937  -7.267  20.164  0.00  0.00    +0.000 C 
ATOM     46  C   UNL     1      29.985  -5.924  18.173  0.00  0.00    +0.000 C 
ATOM     47  C   UNL     1      25.367  -5.685  17.287  0.00  0.00    +0.000 C 
ATOM     48  C   UNL     1      25.624  -8.180  16.721  0.00  0.00    +0.000 C 
BRANCH  45  49
ATOM     49  O   UNL     1      26.485  -6.864  21.384  0.00  0.00    +0.000 OA
ATOM     50  H   UNL     1      27.146  -6.340  21.870  0.00  0.00    +0.000 HD
ENDBRANCH  45  49
ENDBRANCH  38  40
ENDBRANCH  37  38
ENDBRANCH  34  37
ENDBRANCH  33  34
ENDBRANCH  31  33
ENDBRANCH  29  32
ENDBRANCH  28  29
ENDBRANCH   1  28
TORSDOF 19
ENDMDL
MODEL 9
REMARK VINA RESULT:      -5.7     17.325     20.494
REMARK  Name = 5281239_Fucoxanthin.pdbqt.pdb
REMARK  19 active torsions:
REMARK  status: ('A' for Active; 'I' for Inactive)
REMARK    1  A    between atoms: C_1  and  C_5
REMARK    2  A    between atoms: C_2  and  C_26
REMARK    3  A    between atoms: C_3  and  C_5
REMARK    4  A    between atoms: C_3  and  C_7
REMARK    5  A    between atoms: C_6  and  C_10
REMARK    6  A    between atoms: C_8  and  C_10
REMARK    7  A    between atoms: C_8  and  C_12
REMARK    8  A    between atoms: C_12  and  C_13
REMARK    9  A    between atoms: C_13  and  C_15
REMARK   10  A    between atoms: C_20  and  O_24
REMARK   11  A    between atoms: C_26  and  C_27
REMARK   12  A    between atoms: C_27  and  C_30
REMARK   13  A    between atoms: C_29  and  C_33
REMARK   14  A    between atoms: C_31  and  C_33
REMARK   15  A    between atoms: C_31  and  C_44
REMARK   16  A    between atoms: C_35  and  O_45
REMARK   17  A    between atoms: C_37  and  O_47
REMARK   18  A    between atoms: C_39  and  C_43
REMARK   19  A    between atoms: O_47  and  C_49
REMARK                            x       y       z     vdW  Elec       q    Type
REMARK                         _______ _______ _______ _____ _____    ______ ____
ROOT
ATOM      1  C   UNL     1      49.373  -5.923  23.074  0.00  0.00    +0.000 C 
ATOM      2  C   UNL     1      49.218  -6.212  21.920  0.00  0.00    +0.000 C 
ENDROOT
BRANCH   2   3
ATOM      3  C   UNL     1      49.027  -6.579  20.443  0.00  0.00    +0.000 C 
BRANCH   3   4
ATOM      4  C   UNL     1      48.866  -6.886  19.194  0.00  0.00    +0.000 C 
ATOM      5  C   UNL     1      48.921  -8.320  18.763  0.00  0.00    +0.000 C 
BRANCH   4   7
ATOM      6  C   UNL     1      48.354  -5.008  17.446  0.00  0.00    +0.000 C 
ATOM      7  C   UNL     1      48.587  -5.870  18.249  0.00  0.00    +0.000 C 
BRANCH   6   8
ATOM      8  C   UNL     1      48.060  -3.909  16.418  0.00  0.00    +0.000 C 
BRANCH   8   9
ATOM      9  C   UNL     1      47.816  -2.986  15.541  0.00  0.00    +0.000 C 
ATOM     10  C   UNL     1      48.493  -1.654  15.640  0.00  0.00    +0.000 C 
BRANCH   9  12
ATOM     11  C   UNL     1      45.970  -3.378  13.723  0.00  0.00    +0.000 C 
ATOM     12  C   UNL     1      46.819  -3.197  14.556  0.00  0.00    +0.000 C 
BRANCH  11  18
ATOM     13  C   UNL     1      44.230  -2.430  12.189  0.00  0.00    +0.000 C 
ATOM     14  C   UNL     1      44.673  -4.987  12.364  0.00  0.00    +0.000 C 
ATOM     15  C   UNL     1      43.486  -2.881  11.006  0.00  0.00    +0.000 C 
ATOM     16  C   UNL     1      43.206  -4.074  10.312  0.00  0.00    +0.000 C 
ATOM     17  C   UNL     1      43.886  -4.994  11.136  0.00  0.00    +0.000 C 
ATOM     18  C   UNL     1      45.039  -3.581  12.812  0.00  0.00    +0.000 C 
ATOM     19  C   UNL     1      43.247  -1.882  13.258  0.00  0.00    +0.000 C 
ATOM     20  C   UNL     1      45.210  -1.301  11.743  0.00  0.00    +0.000 C 
ATOM     21  C   UNL     1      43.963  -5.751  13.486  0.00  0.00    +0.000 C 
BRANCH  14  22
ATOM     22  O   UNL     1      45.854  -5.717  12.119  0.00  0.00    +0.000 OA
ATOM     23  H   UNL     1      45.770  -5.909  11.167  0.00  0.00    +0.000 HD
ENDBRANCH  14  22
BRANCH  16  24
ATOM     24  O   UNL     1      41.905  -4.328   9.899  0.00  0.00    +0.000 OA
BRANCH  24  26
ATOM     25  O   UNL     1      42.326  -6.169   8.508  0.00  0.00    +0.000 OA
ATOM     26  C   UNL     1      41.801  -5.603   9.448  0.00  0.00    +0.000 C 
ATOM     27  C   UNL     1      40.872  -6.454  10.239  0.00  0.00    +0.000 C 
ENDBRANCH  24  26
ENDBRANCH  16  24
ENDBRANCH  11  18
ENDBRANCH   9  12
ENDBRANCH   8   9
ENDBRANCH   6   8
ENDBRANCH   4   7
ENDBRANCH   3   4
ENDBRANCH   2   3
BRANCH   1  28
ATOM     28  C   UNL     1      49.581  -5.553  24.547  0.00  0.00    +0.000 C 
BRANCH  28  29
ATOM     29  C   UNL     1      49.763  -5.231  25.788  0.00  0.00    +0.000 C 
ATOM     30  C   UNL     1      50.850  -5.889  26.582  0.00  0.00    +0.000 C 
BRANCH  29  32
ATOM     31  C   UNL     1      48.192  -3.479  26.932  0.00  0.00    +0.000 C 
ATOM     32  C   UNL     1      48.907  -4.285  26.403  0.00  0.00    +0.000 C 
BRANCH  31  33
ATOM     33  C   UNL     1      47.291  -2.445  27.619  0.00  0.00    +0.000 C 
BRANCH  33  34
ATOM     34  C   UNL     1      46.521  -1.569  28.194  0.00  0.00    +0.000 C 
ATOM     35  C   UNL     1      47.039  -0.939  29.471  0.00  0.00    +0.000 C 
BRANCH  34  37
ATOM     36  O   UNL     1      44.188  -1.070  28.329  0.00  0.00    +0.000 OA
ATOM     37  C   UNL     1      45.175  -1.254  27.623  0.00  0.00    +0.000 C 
BRANCH  37  38
ATOM     38  C   UNL     1      44.979  -1.149  26.197  0.00  0.00    +0.000 C 
BRANCH  38  40
ATOM     39  O   UNL     1      43.534  -1.643  24.378  0.00  0.00    +0.000 OA
ATOM     40  C   UNL     1      44.783  -1.009  24.767  0.00  0.00    +0.000 C 
ATOM     41  C   UNL     1      43.560  -0.223  24.247  0.00  0.00    +0.000 C 
ATOM     42  C   UNL     1      46.002  -1.206  23.796  0.00  0.00    +0.000 C 
ATOM     43  C   UNL     1      43.584   0.192  22.881  0.00  0.00    +0.000 C 
ATOM     44  C   UNL     1      45.583  -0.718  22.480  0.00  0.00    +0.000 C 
ATOM     45  C   UNL     1      44.528  -0.018  21.862  0.00  0.00    +0.000 C 
ATOM     46  C   UNL     1      42.573   0.490  25.175  0.00  0.00    +0.000 C 
ATOM     47  C   UNL     1      47.140  -0.333  24.378  0.00  0.00    +0.000 C 
ATOM     48  C   UNL     1      46.335  -2.714  23.833  0.00  0.00    +0.000 C 
BRANCH  45  49
ATOM     49  O   UNL     1      44.761   0.890  20.874  0.00  0.00    +0.000 OA
ATOM     50  H   UNL     1      45.114   0.478  20.066  0.00  0.00    +0.000 HD
ENDBRANCH  45  49
ENDBRANCH  38  40
ENDBRANCH  37  38
ENDBRANCH  34  37
ENDBRANCH  33  34
ENDBRANCH  31  33
ENDBRANCH  29  32
ENDBRANCH  28  29
ENDBRANCH   1  28
TORSDOF 19
ENDMDL
