MODEL 1
REMARK VINA RESULT:      -7.5      0.000      0.000
REMARK  Name = 5289155_Peridinin.pdbqt.pdb
REMARK  13 active torsions:
REMARK  status: ('A' for Active; 'I' for Inactive)
REMARK    1  A    between atoms: C_1  and  C_3
REMARK    2  A    between atoms: C_3  and  C_25
REMARK    3  A    between atoms: C_6  and  C_12
REMARK    4  A    between atoms: C_11  and  C_14
REMARK    5  A    between atoms: C_19  and  O_23
REMARK    6  A    between atoms: C_26  and  C_28
REMARK    7  A    between atoms: C_27  and  C_31
REMARK    8  A    between atoms: C_29  and  C_31
REMARK    9  A    between atoms: C_29  and  C_42
REMARK   10  A    between atoms: C_33  and  O_43
REMARK   11  A    between atoms: C_35  and  O_45
REMARK   12  A    between atoms: C_37  and  C_41
REMARK   13  A    between atoms: O_45  and  C_47
REMARK                            x       y       z     vdW  Elec       q    Type
REMARK                         _______ _______ _______ _____ _____    ______ ____
ROOT
ATOM      1  C   UNL     1      44.419   4.901  15.694  0.00  0.00    +0.000 C 
ENDROOT
BRANCH   1   2
ATOM      2  C   UNL     1      44.061   3.674  15.904  0.00  0.00    +0.000 C 
ATOM      3  C   UNL     1      43.550   3.258  17.249  0.00  0.00    +0.000 C 
ATOM      4  O   UNL     1      45.089   2.026  12.868  0.00  0.00    +0.000 OA
ATOM      5  O   UNL     1      45.817   0.466  11.315  0.00  0.00    +0.000 OA
ATOM      6  C   UNL     1      44.236  -0.131  13.041  0.00  0.00    +0.000 C 
ATOM      7  C   UNL     1      43.699   0.556  13.982  0.00  0.00    +0.000 C 
ATOM      8  C   UNL     1      45.137   0.766  12.280  0.00  0.00    +0.000 C 
ATOM      9  C   UNL     1      44.162   1.866  13.893  0.00  0.00    +0.000 C 
ATOM     10  C   UNL     1      44.115   2.731  14.853  0.00  0.00    +0.000 C 
BRANCH   6  12
ATOM     11  C   UNL     1      43.792  -2.671  12.642  0.00  0.00    +0.000 C 
ATOM     12  C   UNL     1      43.993  -1.500  12.822  0.00  0.00    +0.000 C 
BRANCH  11  14
ATOM     13  O   UNL     1      44.334  -4.870  13.386  0.00  0.00    +0.000 OA
ATOM     14  C   UNL     1      43.560  -4.091  12.429  0.00  0.00    +0.000 C 
ATOM     15  C   UNL     1      42.920  -4.930  13.555  0.00  0.00    +0.000 C 
ATOM     16  C   UNL     1      43.491  -4.650  10.965  0.00  0.00    +0.000 C 
ATOM     17  C   UNL     1      42.386  -6.205  13.198  0.00  0.00    +0.000 C 
ATOM     18  C   UNL     1      42.947  -6.008  11.049  0.00  0.00    +0.000 C 
ATOM     19  C   UNL     1      42.357  -6.892  11.972  0.00  0.00    +0.000 C 
ATOM     20  C   UNL     1      42.435  -4.334  14.881  0.00  0.00    +0.000 C 
ATOM     21  C   UNL     1      42.513  -3.714  10.205  0.00  0.00    +0.000 C 
ATOM     22  C   UNL     1      44.928  -4.594  10.404  0.00  0.00    +0.000 C 
BRANCH  19  23
ATOM     23  O   UNL     1      41.330  -7.713  11.614  0.00  0.00    +0.000 OA
ATOM     24  H   UNL     1      40.980  -7.505  10.728  0.00  0.00    +0.000 HD
ENDBRANCH  19  23
ENDBRANCH  11  14
ENDBRANCH   6  12
ENDBRANCH   1   2
BRANCH   1  25
ATOM     25  C   UNL     1      44.843   6.353  15.446  0.00  0.00    +0.000 C 
ATOM     26  C   UNL     1      45.172   7.490  15.247  0.00  0.00    +0.000 C 
BRANCH  26  28
ATOM     27  C   UNL     1      45.911  10.077  14.779  0.00  0.00    +0.000 C 
ATOM     28  C   UNL     1      45.586   8.942  14.988  0.00  0.00    +0.000 C 
BRANCH  27  29
ATOM     29  C   UNL     1      46.330  11.527  14.505  0.00  0.00    +0.000 C 
BRANCH  29  30
ATOM     30  C   UNL     1      46.695  12.749  14.274  0.00  0.00    +0.000 C 
ATOM     31  C   UNL     1      47.838  13.035  13.348  0.00  0.00    +0.000 C 
BRANCH  30  33
ATOM     32  C   UNL     1      45.499  14.726  15.509  0.00  0.00    +0.000 C 
ATOM     33  C   UNL     1      46.046  13.818  14.941  0.00  0.00    +0.000 C 
BRANCH  32  39
ATOM     34  C   UNL     1      43.565  15.555  16.872  0.00  0.00    +0.000 C 
ATOM     35  C   UNL     1      45.482  17.130  16.090  0.00  0.00    +0.000 C 
ATOM     36  C   UNL     1      43.277  16.719  17.721  0.00  0.00    +0.000 C 
ATOM     37  C   UNL     1      43.806  17.996  17.998  0.00  0.00    +0.000 C 
ATOM     38  C   UNL     1      44.892  18.003  17.099  0.00  0.00    +0.000 C 
ATOM     39  C   UNL     1      44.902  15.725  16.128  0.00  0.00    +0.000 C 
ATOM     40  C   UNL     1      43.649  14.298  17.791  0.00  0.00    +0.000 C 
ATOM     41  C   UNL     1      42.435  15.371  15.824  0.00  0.00    +0.000 C 
ATOM     42  C   UNL     1      45.362  17.735  14.689  0.00  0.00    +0.000 C 
BRANCH  35  43
ATOM     43  O   UNL     1      46.869  17.065  16.341  0.00  0.00    +0.000 OA
ATOM     44  H   UNL     1      47.208  17.744  15.729  0.00  0.00    +0.000 HD
ENDBRANCH  35  43
BRANCH  37  45
ATOM     45  O   UNL     1      42.945  19.083  18.068  0.00  0.00    +0.000 OA
BRANCH  45  47
ATOM     46  O   UNL     1      44.156  20.265  19.692  0.00  0.00    +0.000 OA
ATOM     47  C   UNL     1      43.582  20.142  18.627  0.00  0.00    +0.000 C 
ATOM     48  C   UNL     1      43.563  21.373  17.792  0.00  0.00    +0.000 C 
ENDBRANCH  45  47
ENDBRANCH  37  45
ENDBRANCH  32  39
ENDBRANCH  30  33
ENDBRANCH  29  30
ENDBRANCH  27  29
ENDBRANCH  26  28
ENDBRANCH   1  25
TORSDOF 13
ENDMDL
MODEL 2
REMARK VINA RESULT:      -7.2     28.673     31.237
REMARK  Name = 5289155_Peridinin.pdbqt.pdb
REMARK  13 active torsions:
REMARK  status: ('A' for Active; 'I' for Inactive)
REMARK    1  A    between atoms: C_1  and  C_3
REMARK    2  A    between atoms: C_3  and  C_25
REMARK    3  A    between atoms: C_6  and  C_12
REMARK    4  A    between atoms: C_11  and  C_14
REMARK    5  A    between atoms: C_19  and  O_23
REMARK    6  A    between atoms: C_26  and  C_28
REMARK    7  A    between atoms: C_27  and  C_31
REMARK    8  A    between atoms: C_29  and  C_31
REMARK    9  A    between atoms: C_29  and  C_42
REMARK   10  A    between atoms: C_33  and  O_43
REMARK   11  A    between atoms: C_35  and  O_45
REMARK   12  A    between atoms: C_37  and  C_41
REMARK   13  A    between atoms: O_45  and  C_47
REMARK                            x       y       z     vdW  Elec       q    Type
REMARK                         _______ _______ _______ _____ _____    ______ ____
ROOT
ATOM      1  C   UNL     1      21.110  29.832   7.303  0.00  0.00    +0.000 C 
ENDROOT
BRANCH   1   2
ATOM      2  C   UNL     1      20.848  29.070   6.288  0.00  0.00    +0.000 C 
ATOM      3  C   UNL     1      19.675  29.366   5.406  0.00  0.00    +0.000 C 
ATOM      4  O   UNL     1      23.174  26.352   6.730  0.00  0.00    +0.000 OA
ATOM      5  O   UNL     1      24.203  24.275   6.718  0.00  0.00    +0.000 OA
ATOM      6  C   UNL     1      22.968  25.070   4.800  0.00  0.00    +0.000 C 
ATOM      7  C   UNL     1      22.337  26.166   4.586  0.00  0.00    +0.000 C 
ATOM      8  C   UNL     1      23.539  25.134   6.166  0.00  0.00    +0.000 C 
ATOM      9  C   UNL     1      22.464  26.978   5.710  0.00  0.00    +0.000 C 
ATOM     10  C   UNL     1      21.692  27.977   5.989  0.00  0.00    +0.000 C 
BRANCH   6  12
ATOM     11  C   UNL     1      23.138  23.105   3.092  0.00  0.00    +0.000 C 
ATOM     12  C   UNL     1      23.057  24.013   3.875  0.00  0.00    +0.000 C 
BRANCH  11  14
ATOM     13  O   UNL     1      23.684  20.798   2.845  0.00  0.00    +0.000 OA
ATOM     14  C   UNL     1      23.244  22.001   2.152  0.00  0.00    +0.000 C 
ATOM     15  C   UNL     1      22.351  20.757   2.341  0.00  0.00    +0.000 C 
ATOM     16  C   UNL     1      23.860  22.255   0.732  0.00  0.00    +0.000 C 
ATOM     17  C   UNL     1      22.221  19.870   1.230  0.00  0.00    +0.000 C 
ATOM     18  C   UNL     1      23.557  21.077  -0.085  0.00  0.00    +0.000 C 
ATOM     19  C   UNL     1      22.798  19.892  -0.052  0.00  0.00    +0.000 C 
ATOM     20  C   UNL     1      21.285  20.641   3.435  0.00  0.00    +0.000 C 
ATOM     21  C   UNL     1      23.132  23.508   0.177  0.00  0.00    +0.000 C 
ATOM     22  C   UNL     1      25.372  22.487   0.942  0.00  0.00    +0.000 C 
BRANCH  19  23
ATOM     23  O   UNL     1      22.149  19.431  -1.158  0.00  0.00    +0.000 OA
ATOM     24  H   UNL     1      21.890  20.150  -1.762  0.00  0.00    +0.000 HD
ENDBRANCH  19  23
ENDBRANCH  11  14
ENDBRANCH   6  12
ENDBRANCH   1   2
BRANCH   1  25
ATOM     25  C   UNL     1      21.420  30.734   8.504  0.00  0.00    +0.000 C 
ATOM     26  C   UNL     1      21.668  31.438   9.443  0.00  0.00    +0.000 C 
BRANCH  26  28
ATOM     27  C   UNL     1      22.244  33.034  11.583  0.00  0.00    +0.000 C 
ATOM     28  C   UNL     1      21.992  32.336  10.641  0.00  0.00    +0.000 C 
BRANCH  27  29
ATOM     29  C   UNL     1      22.560  33.924  12.791  0.00  0.00    +0.000 C 
BRANCH  29  30
ATOM     30  C   UNL     1      22.836  34.669  13.815  0.00  0.00    +0.000 C 
ATOM     31  C   UNL     1      21.880  35.737  14.254  0.00  0.00    +0.000 C 
BRANCH  30  33
ATOM     32  C   UNL     1      25.120  34.380  15.066  0.00  0.00    +0.000 C 
ATOM     33  C   UNL     1      24.073  34.513  14.490  0.00  0.00    +0.000 C 
BRANCH  32  39
ATOM     34  C   UNL     1      26.767  35.237  16.750  0.00  0.00    +0.000 C 
ATOM     35  C   UNL     1      27.193  33.067  15.379  0.00  0.00    +0.000 C 
ATOM     36  C   UNL     1      27.896  34.689  17.516  0.00  0.00    +0.000 C 
ATOM     37  C   UNL     1      28.729  33.552  17.525  0.00  0.00    +0.000 C 
ATOM     38  C   UNL     1      28.216  32.873  16.400  0.00  0.00    +0.000 C 
ATOM     39  C   UNL     1      26.266  34.229  15.699  0.00  0.00    +0.000 C 
ATOM     40  C   UNL     1      25.612  35.548  17.751  0.00  0.00    +0.000 C 
ATOM     41  C   UNL     1      27.203  36.537  16.022  0.00  0.00    +0.000 C 
ATOM     42  C   UNL     1      27.815  33.230  13.989  0.00  0.00    +0.000 C 
BRANCH  35  43
ATOM     43  O   UNL     1      26.435  31.879  15.303  0.00  0.00    +0.000 OA
ATOM     44  H   UNL     1      25.936  31.914  16.140  0.00  0.00    +0.000 HD
ENDBRANCH  35  43
BRANCH  37  45
ATOM     45  O   UNL     1      30.099  33.719  17.681  0.00  0.00    +0.000 OA
BRANCH  45  47
ATOM     46  O   UNL     1      30.672  35.417  19.195  0.00  0.00    +0.000 OA
ATOM     47  C   UNL     1      30.361  34.282  18.886  0.00  0.00    +0.000 C 
ATOM     48  C   UNL     1      30.261  33.338  20.032  0.00  0.00    +0.000 C 
ENDBRANCH  45  47
ENDBRANCH  37  45
ENDBRANCH  32  39
ENDBRANCH  30  33
ENDBRANCH  29  30
ENDBRANCH  27  29
ENDBRANCH  26  28
ENDBRANCH   1  25
TORSDOF 13
ENDMDL
MODEL 3
REMARK VINA RESULT:      -7.1      6.148      9.452
REMARK  Name = 5289155_Peridinin.pdbqt.pdb
REMARK  13 active torsions:
REMARK  status: ('A' for Active; 'I' for Inactive)
REMARK    1  A    between atoms: C_1  and  C_3
REMARK    2  A    between atoms: C_3  and  C_25
REMARK    3  A    between atoms: C_6  and  C_12
REMARK    4  A    between atoms: C_11  and  C_14
REMARK    5  A    between atoms: C_19  and  O_23
REMARK    6  A    between atoms: C_26  and  C_28
REMARK    7  A    between atoms: C_27  and  C_31
REMARK    8  A    between atoms: C_29  and  C_31
REMARK    9  A    between atoms: C_29  and  C_42
REMARK   10  A    between atoms: C_33  and  O_43
REMARK   11  A    between atoms: C_35  and  O_45
REMARK   12  A    between atoms: C_37  and  C_41
REMARK   13  A    between atoms: O_45  and  C_47
REMARK                            x       y       z     vdW  Elec       q    Type
REMARK                         _______ _______ _______ _____ _____    ______ ____
ROOT
ATOM      1  C   UNL     1      43.757  -3.070  13.146  0.00  0.00    +0.000 C 
ENDROOT
BRANCH   1   2
ATOM      2  C   UNL     1      43.520  -4.298  12.804  0.00  0.00    +0.000 C 
ATOM      3  C   UNL     1      42.409  -5.060  13.459  0.00  0.00    +0.000 C 
ATOM      4  O   UNL     1      46.289  -5.055  10.625  0.00  0.00    +0.000 OA
ATOM      5  O   UNL     1      47.972  -6.136   9.453  0.00  0.00    +0.000 OA
ATOM      6  C   UNL     1      45.799  -7.151   9.744  0.00  0.00    +0.000 C 
ATOM      7  C   UNL     1      44.738  -6.741  10.337  0.00  0.00    +0.000 C 
ATOM      8  C   UNL     1      46.835  -6.101   9.888  0.00  0.00    +0.000 C 
ATOM      9  C   UNL     1      44.981  -5.472  10.853  0.00  0.00    +0.000 C 
ATOM     10  C   UNL     1      44.285  -4.910  11.786  0.00  0.00    +0.000 C 
BRANCH   6  12
ATOM     11  C   UNL     1      46.025  -9.458   8.546  0.00  0.00    +0.000 C 
ATOM     12  C   UNL     1      45.916  -8.397   9.100  0.00  0.00    +0.000 C 
BRANCH  11  14
ATOM     13  O   UNL     1      44.979 -11.553   8.100  0.00  0.00    +0.000 OA
ATOM     14  C   UNL     1      46.164 -10.737   7.869  0.00  0.00    +0.000 C 
ATOM     15  C   UNL     1      45.165 -11.117   6.756  0.00  0.00    +0.000 C 
ATOM     16  C   UNL     1      47.544 -11.483   7.904  0.00  0.00    +0.000 C 
ATOM     17  C   UNL     1      45.531 -12.188   5.886  0.00  0.00    +0.000 C 
ATOM     18  C   UNL     1      47.480 -12.553   6.905  0.00  0.00    +0.000 C 
ATOM     19  C   UNL     1      46.660 -13.025   5.863  0.00  0.00    +0.000 C 
ATOM     20  C   UNL     1      44.060 -10.180   6.257  0.00  0.00    +0.000 C 
ATOM     21  C   UNL     1      48.603 -10.422   7.504  0.00  0.00    +0.000 C 
ATOM     22  C   UNL     1      47.730 -11.997   9.349  0.00  0.00    +0.000 C 
BRANCH  19  23
ATOM     23  O   UNL     1      47.191 -13.512   4.706  0.00  0.00    +0.000 OA
ATOM     24  H   UNL     1      47.514 -14.426   4.802  0.00  0.00    +0.000 HD
ENDBRANCH  19  23
ENDBRANCH  11  14
ENDBRANCH   6  12
ENDBRANCH   1   2
BRANCH   1  25
ATOM     25  C   UNL     1      44.038  -1.619  13.550  0.00  0.00    +0.000 C 
ATOM     26  C   UNL     1      44.261  -0.484  13.872  0.00  0.00    +0.000 C 
BRANCH  26  28
ATOM     27  C   UNL     1      44.773   2.096  14.609  0.00  0.00    +0.000 C 
ATOM     28  C   UNL     1      44.549   0.962  14.288  0.00  0.00    +0.000 C 
BRANCH  27  29
ATOM     29  C   UNL     1      45.061   3.547  15.012  0.00  0.00    +0.000 C 
BRANCH  29  30
ATOM     30  C   UNL     1      45.296   4.772  15.361  0.00  0.00    +0.000 C 
ATOM     31  C   UNL     1      46.478   5.505  14.801  0.00  0.00    +0.000 C 
BRANCH  30  33
ATOM     32  C   UNL     1      43.759   5.943  17.130  0.00  0.00    +0.000 C 
ATOM     33  C   UNL     1      44.466   5.407  16.319  0.00  0.00    +0.000 C 
BRANCH  32  39
ATOM     34  C   UNL     1      42.780   8.052  18.068  0.00  0.00    +0.000 C 
ATOM     35  C   UNL     1      42.281   5.717  19.100  0.00  0.00    +0.000 C 
ATOM     36  C   UNL     1      41.650   8.412  18.935  0.00  0.00    +0.000 C 
ATOM     37  C   UNL     1      40.742   7.794  19.818  0.00  0.00    +0.000 C 
ATOM     38  C   UNL     1      41.215   6.467  19.755  0.00  0.00    +0.000 C 
ATOM     39  C   UNL     1      42.982   6.526  18.021  0.00  0.00    +0.000 C 
ATOM     40  C   UNL     1      42.469   8.571  16.631  0.00  0.00    +0.000 C 
ATOM     41  C   UNL     1      44.084   8.708  18.597  0.00  0.00    +0.000 C 
ATOM     42  C   UNL     1      43.288   5.173  20.118  0.00  0.00    +0.000 C 
BRANCH  35  43
ATOM     43  O   UNL     1      41.699   4.572  18.515  0.00  0.00    +0.000 OA
ATOM     44  H   UNL     1      42.489   4.032  18.322  0.00  0.00    +0.000 HD
ENDBRANCH  35  43
BRANCH  37  45
ATOM     45  O   UNL     1      40.481   8.389  21.046  0.00  0.00    +0.000 OA
BRANCH  45  47
ATOM     46  O   UNL     1      38.164   8.025  21.036  0.00  0.00    +0.000 OA
ATOM     47  C   UNL     1      39.166   8.708  21.135  0.00  0.00    +0.000 C 
ATOM     48  C   UNL     1      38.905  10.151  21.386  0.00  0.00    +0.000 C 
ENDBRANCH  45  47
ENDBRANCH  37  45
ENDBRANCH  32  39
ENDBRANCH  30  33
ENDBRANCH  29  30
ENDBRANCH  27  29
ENDBRANCH  26  28
ENDBRANCH   1  25
TORSDOF 13
ENDMDL
MODEL 4
REMARK VINA RESULT:      -7.0      6.435     10.199
REMARK  Name = 5289155_Peridinin.pdbqt.pdb
REMARK  13 active torsions:
REMARK  status: ('A' for Active; 'I' for Inactive)
REMARK    1  A    between atoms: C_1  and  C_3
REMARK    2  A    between atoms: C_3  and  C_25
REMARK    3  A    between atoms: C_6  and  C_12
REMARK    4  A    between atoms: C_11  and  C_14
REMARK    5  A    between atoms: C_19  and  O_23
REMARK    6  A    between atoms: C_26  and  C_28
REMARK    7  A    between atoms: C_27  and  C_31
REMARK    8  A    between atoms: C_29  and  C_31
REMARK    9  A    between atoms: C_29  and  C_42
REMARK   10  A    between atoms: C_33  and  O_43
REMARK   11  A    between atoms: C_35  and  O_45
REMARK   12  A    between atoms: C_37  and  C_41
REMARK   13  A    between atoms: O_45  and  C_47
REMARK                            x       y       z     vdW  Elec       q    Type
REMARK                         _______ _______ _______ _____ _____    ______ ____
ROOT
ATOM      1  C   UNL     1      43.694  -3.506  11.387  0.00  0.00    +0.000 C 
ENDROOT
BRANCH   1   2
ATOM      2  C   UNL     1      43.302  -4.636  10.887  0.00  0.00    +0.000 C 
ATOM      3  C   UNL     1      41.872  -5.061  11.015  0.00  0.00    +0.000 C 
ATOM      4  O   UNL     1      46.405  -6.153   9.854  0.00  0.00    +0.000 OA
ATOM      5  O   UNL     1      48.074  -7.669   9.319  0.00  0.00    +0.000 OA
ATOM      6  C   UNL     1      45.775  -8.067   8.693  0.00  0.00    +0.000 C 
ATOM      7  C   UNL     1      44.709  -7.377   8.874  0.00  0.00    +0.000 C 
ATOM      8  C   UNL     1      46.907  -7.324   9.296  0.00  0.00    +0.000 C 
ATOM      9  C   UNL     1      45.050  -6.203   9.541  0.00  0.00    +0.000 C 
ATOM     10  C   UNL     1      44.217  -5.454  10.185  0.00  0.00    +0.000 C 
BRANCH   6  12
ATOM     11  C   UNL     1      45.833 -10.380   7.486  0.00  0.00    +0.000 C 
ATOM     12  C   UNL     1      45.810  -9.316   8.045  0.00  0.00    +0.000 C 
BRANCH  11  14
ATOM     13  O   UNL     1      47.149 -12.300   6.975  0.00  0.00    +0.000 OA
ATOM     14  C   UNL     1      45.849 -11.665   6.805  0.00  0.00    +0.000 C 
ATOM     15  C   UNL     1      46.064 -12.953   7.627  0.00  0.00    +0.000 C 
ATOM     16  C   UNL     1      45.186 -11.797   5.390  0.00  0.00    +0.000 C 
ATOM     17  C   UNL     1      45.724 -14.191   7.002  0.00  0.00    +0.000 C 
ATOM     18  C   UNL     1      45.077 -13.229   5.098  0.00  0.00    +0.000 C 
ATOM     19  C   UNL     1      45.241 -14.484   5.715  0.00  0.00    +0.000 C 
ATOM     20  C   UNL     1      46.186 -12.970   9.154  0.00  0.00    +0.000 C 
ATOM     21  C   UNL     1      43.779 -11.156   5.525  0.00  0.00    +0.000 C 
ATOM     22  C   UNL     1      46.097 -11.034   4.403  0.00  0.00    +0.000 C 
BRANCH  19  23
ATOM     23  O   UNL     1      44.386 -15.515   5.467  0.00  0.00    +0.000 OA
ATOM     24  H   UNL     1      43.524 -15.395   5.903  0.00  0.00    +0.000 HD
ENDBRANCH  19  23
ENDBRANCH  11  14
ENDBRANCH   6  12
ENDBRANCH   1   2
BRANCH   1  25
ATOM     25  C   UNL     1      44.157  -2.170  11.980  0.00  0.00    +0.000 C 
ATOM     26  C   UNL     1      44.514  -1.124  12.447  0.00  0.00    +0.000 C 
BRANCH  26  28
ATOM     27  C   UNL     1      45.321   1.257  13.514  0.00  0.00    +0.000 C 
ATOM     28  C   UNL     1      44.965   0.211  13.048  0.00  0.00    +0.000 C 
BRANCH  27  29
ATOM     29  C   UNL     1      45.783   2.594  14.106  0.00  0.00    +0.000 C 
BRANCH  29  30
ATOM     30  C   UNL     1      46.184   3.720  14.606  0.00  0.00    +0.000 C 
ATOM     31  C   UNL     1      47.547   4.251  14.281  0.00  0.00    +0.000 C 
BRANCH  30  33
ATOM     32  C   UNL     1      44.643   5.029  16.273  0.00  0.00    +0.000 C 
ATOM     33  C   UNL     1      45.351   4.428  15.509  0.00  0.00    +0.000 C 
BRANCH  32  39
ATOM     34  C   UNL     1      43.741   7.218  17.097  0.00  0.00    +0.000 C 
ATOM     35  C   UNL     1      43.076   4.950  18.184  0.00  0.00    +0.000 C 
ATOM     36  C   UNL     1      42.597   7.667  17.902  0.00  0.00    +0.000 C 
ATOM     37  C   UNL     1      41.622   7.129  18.766  0.00  0.00    +0.000 C 
ATOM     38  C   UNL     1      42.026   5.778  18.768  0.00  0.00    +0.000 C 
ATOM     39  C   UNL     1      43.863   5.683  17.110  0.00  0.00    +0.000 C 
ATOM     40  C   UNL     1      43.517   7.700  15.631  0.00  0.00    +0.000 C 
ATOM     41  C   UNL     1      45.055   7.824  17.659  0.00  0.00    +0.000 C 
ATOM     42  C   UNL     1      44.009   4.392  19.263  0.00  0.00    +0.000 C 
BRANCH  35  43
ATOM     43  O   UNL     1      42.458   3.817  17.614  0.00  0.00    +0.000 OA
ATOM     44  H   UNL     1      42.307   3.263  18.403  0.00  0.00    +0.000 HD
ENDBRANCH  35  43
BRANCH  37  45
ATOM     45  O   UNL     1      41.343   7.781  19.960  0.00  0.00    +0.000 OA
BRANCH  45  47
ATOM     46  O   UNL     1      39.138   8.171  19.263  0.00  0.00    +0.000 OA
ATOM     47  C   UNL     1      40.005   7.956  20.089  0.00  0.00    +0.000 C 
ATOM     48  C   UNL     1      39.514   7.884  21.492  0.00  0.00    +0.000 C 
ENDBRANCH  45  47
ENDBRANCH  37  45
ENDBRANCH  32  39
ENDBRANCH  30  33
ENDBRANCH  29  30
ENDBRANCH  27  29
ENDBRANCH  26  28
ENDBRANCH   1  25
TORSDOF 13
ENDMDL
MODEL 5
REMARK VINA RESULT:      -6.8      2.645      4.275
REMARK  Name = 5289155_Peridinin.pdbqt.pdb
REMARK  13 active torsions:
REMARK  status: ('A' for Active; 'I' for Inactive)
REMARK    1  A    between atoms: C_1  and  C_3
REMARK    2  A    between atoms: C_3  and  C_25
REMARK    3  A    between atoms: C_6  and  C_12
REMARK    4  A    between atoms: C_11  and  C_14
REMARK    5  A    between atoms: C_19  and  O_23
REMARK    6  A    between atoms: C_26  and  C_28
REMARK    7  A    between atoms: C_27  and  C_31
REMARK    8  A    between atoms: C_29  and  C_31
REMARK    9  A    between atoms: C_29  and  C_42
REMARK   10  A    between atoms: C_33  and  O_43
REMARK   11  A    between atoms: C_35  and  O_45
REMARK   12  A    between atoms: C_37  and  C_41
REMARK   13  A    between atoms: O_45  and  C_47
REMARK                            x       y       z     vdW  Elec       q    Type
REMARK                         _______ _______ _______ _____ _____    ______ ____
ROOT
ATOM      1  C   UNL     1      45.536   4.959  14.965  0.00  0.00    +0.000 C 
ENDROOT
BRANCH   1   2
ATOM      2  C   UNL     1      46.244   4.020  14.421  0.00  0.00    +0.000 C 
ATOM      3  C   UNL     1      47.686   4.259  14.094  0.00  0.00    +0.000 C 
ATOM      4  O   UNL     1      43.778   1.493  13.699  0.00  0.00    +0.000 OA
ATOM      5  O   UNL     1      42.598  -0.263  12.753  0.00  0.00    +0.000 OA
ATOM      6  C   UNL     1      45.002  -0.345  12.969  0.00  0.00    +0.000 C 
ATOM      7  C   UNL     1      45.844   0.491  13.458  0.00  0.00    +0.000 C 
ATOM      8  C   UNL     1      43.648   0.242  13.105  0.00  0.00    +0.000 C 
ATOM      9  C   UNL     1      45.145   1.596  13.935  0.00  0.00    +0.000 C 
ATOM     10  C   UNL     1      45.668   2.755  14.167  0.00  0.00    +0.000 C 
BRANCH   6  12
ATOM     11  C   UNL     1      45.661  -2.640  11.918  0.00  0.00    +0.000 C 
ATOM     12  C   UNL     1      45.354  -1.582  12.399  0.00  0.00    +0.000 C 
BRANCH  11  14
ATOM     13  O   UNL     1      45.400  -4.091  10.045  0.00  0.00    +0.000 OA
ATOM     14  C   UNL     1      46.044  -3.918  11.340  0.00  0.00    +0.000 C 
ATOM     15  C   UNL     1      46.817  -3.943  10.004  0.00  0.00    +0.000 C 
ATOM     16  C   UNL     1      46.120  -5.188  12.258  0.00  0.00    +0.000 C 
ATOM     17  C   UNL     1      47.477  -5.161   9.654  0.00  0.00    +0.000 C 
ATOM     18  C   UNL     1      46.816  -6.228  11.496  0.00  0.00    +0.000 C 
ATOM     19  C   UNL     1      47.537  -6.407  10.300  0.00  0.00    +0.000 C 
ATOM     20  C   UNL     1      47.282  -2.680   9.273  0.00  0.00    +0.000 C 
ATOM     21  C   UNL     1      46.956  -4.762  13.494  0.00  0.00    +0.000 C 
ATOM     22  C   UNL     1      44.665  -5.557  12.620  0.00  0.00    +0.000 C 
BRANCH  19  23
ATOM     23  O   UNL     1      48.635  -7.212  10.246  0.00  0.00    +0.000 OA
ATOM     24  H   UNL     1      49.466  -6.710  10.326  0.00  0.00    +0.000 HD
ENDBRANCH  19  23
ENDBRANCH  11  14
ENDBRANCH   6  12
ENDBRANCH   1   2
BRANCH   1  25
ATOM     25  C   UNL     1      44.696   6.068  15.610  0.00  0.00    +0.000 C 
ATOM     26  C   UNL     1      44.039   6.933  16.118  0.00  0.00    +0.000 C 
BRANCH  26  28
ATOM     27  C   UNL     1      42.538   8.893  17.288  0.00  0.00    +0.000 C 
ATOM     28  C   UNL     1      43.200   8.034  16.775  0.00  0.00    +0.000 C 
BRANCH  27  29
ATOM     29  C   UNL     1      41.686   9.988  17.941  0.00  0.00    +0.000 C 
BRANCH  29  30
ATOM     30  C   UNL     1      40.975  10.919  18.495  0.00  0.00    +0.000 C 
ATOM     31  C   UNL     1      39.667  10.586  19.148  0.00  0.00    +0.000 C 
BRANCH  30  33
ATOM     32  C   UNL     1      41.771  13.413  18.385  0.00  0.00    +0.000 C 
ATOM     33  C   UNL     1      41.408  12.268  18.436  0.00  0.00    +0.000 C 
BRANCH  32  39
ATOM     34  C   UNL     1      43.029  15.217  17.184  0.00  0.00    +0.000 C 
ATOM     35  C   UNL     1      41.837  15.641  19.457  0.00  0.00    +0.000 C 
ATOM     36  C   UNL     1      43.071  16.686  17.204  0.00  0.00    +0.000 C 
ATOM     37  C   UNL     1      42.638  17.756  18.013  0.00  0.00    +0.000 C 
ATOM     38  C   UNL     1      42.047  17.031  19.069  0.00  0.00    +0.000 C 
ATOM     39  C   UNL     1      42.167  14.669  18.335  0.00  0.00    +0.000 C 
ATOM     40  C   UNL     1      42.408  14.773  15.824  0.00  0.00    +0.000 C 
ATOM     41  C   UNL     1      44.465  14.645  17.323  0.00  0.00    +0.000 C 
ATOM     42  C   UNL     1      42.616  15.294  20.730  0.00  0.00    +0.000 C 
BRANCH  35  43
ATOM     43  O   UNL     1      40.479  15.496  19.810  0.00  0.00    +0.000 OA
ATOM     44  H   UNL     1      40.211  16.427  19.931  0.00  0.00    +0.000 HD
ENDBRANCH  35  43
BRANCH  37  45
ATOM     45  O   UNL     1      43.516  18.799  18.282  0.00  0.00    +0.000 OA
BRANCH  45  47
ATOM     46  O   UNL     1      42.843  19.888  16.317  0.00  0.00    +0.000 OA
ATOM     47  C   UNL     1      43.255  19.845  17.461  0.00  0.00    +0.000 C 
ATOM     48  C   UNL     1      43.532  21.177  18.065  0.00  0.00    +0.000 C 
ENDBRANCH  45  47
ENDBRANCH  37  45
ENDBRANCH  32  39
ENDBRANCH  30  33
ENDBRANCH  29  30
ENDBRANCH  27  29
ENDBRANCH  26  28
ENDBRANCH   1  25
TORSDOF 13
ENDMDL
MODEL 6
REMARK VINA RESULT:      -6.8     27.369     30.114
REMARK  Name = 5289155_Peridinin.pdbqt.pdb
REMARK  13 active torsions:
REMARK  status: ('A' for Active; 'I' for Inactive)
REMARK    1  A    between atoms: C_1  and  C_3
REMARK    2  A    between atoms: C_3  and  C_25
REMARK    3  A    between atoms: C_6  and  C_12
REMARK    4  A    between atoms: C_11  and  C_14
REMARK    5  A    between atoms: C_19  and  O_23
REMARK    6  A    between atoms: C_26  and  C_28
REMARK    7  A    between atoms: C_27  and  C_31
REMARK    8  A    between atoms: C_29  and  C_31
REMARK    9  A    between atoms: C_29  and  C_42
REMARK   10  A    between atoms: C_33  and  O_43
REMARK   11  A    between atoms: C_35  and  O_45
REMARK   12  A    between atoms: C_37  and  C_41
REMARK   13  A    between atoms: O_45  and  C_47
REMARK                            x       y       z     vdW  Elec       q    Type
REMARK                         _______ _______ _______ _____ _____    ______ ____
ROOT
ATOM      1  C   UNL     1      25.480  27.421   3.579  0.00  0.00    +0.000 C 
ENDROOT
BRANCH   1   2
ATOM      2  C   UNL     1      24.619  26.660   4.178  0.00  0.00    +0.000 C 
ATOM      3  C   UNL     1      24.225  26.939   5.595  0.00  0.00    +0.000 C 
ATOM      4  O   UNL     1      24.155  23.984   1.808  0.00  0.00    +0.000 OA
ATOM      5  O   UNL     1      23.746  21.927   0.822  0.00  0.00    +0.000 OA
ATOM      6  C   UNL     1      22.415  22.709   2.680  0.00  0.00    +0.000 C 
ATOM      7  C   UNL     1      22.457  23.795   3.363  0.00  0.00    +0.000 C 
ATOM      8  C   UNL     1      23.483  22.776   1.654  0.00  0.00    +0.000 C 
ATOM      9  C   UNL     1      23.470  24.602   2.850  0.00  0.00    +0.000 C 
ATOM     10  C   UNL     1      24.021  25.585   3.483  0.00  0.00    +0.000 C 
BRANCH   6  12
ATOM     11  C   UNL     1      20.726  20.770   3.119  0.00  0.00    +0.000 C 
ATOM     12  C   UNL     1      21.508  21.660   2.915  0.00  0.00    +0.000 C 
BRANCH  11  14
ATOM     13  O   UNL     1      20.153  18.511   2.621  0.00  0.00    +0.000 OA
ATOM     14  C   UNL     1      19.774  19.701   3.371  0.00  0.00    +0.000 C 
ATOM     15  C   UNL     1      20.260  18.397   4.038  0.00  0.00    +0.000 C 
ATOM     16  C   UNL     1      18.241  20.031   3.431  0.00  0.00    +0.000 C 
ATOM     17  C   UNL     1      19.264  17.533   4.587  0.00  0.00    +0.000 C 
ATOM     18  C   UNL     1      17.571  18.857   3.997  0.00  0.00    +0.000 C 
ATOM     19  C   UNL     1      17.862  17.625   4.612  0.00  0.00    +0.000 C 
ATOM     20  C   UNL     1      21.695  18.183   4.530  0.00  0.00    +0.000 C 
ATOM     21  C   UNL     1      18.112  21.248   4.384  0.00  0.00    +0.000 C 
ATOM     22  C   UNL     1      17.804  20.355   1.986  0.00  0.00    +0.000 C 
BRANCH  19  23
ATOM     23  O   UNL     1      17.113  17.153   5.647  0.00  0.00    +0.000 OA
ATOM     24  H   UNL     1      16.158  17.283   5.504  0.00  0.00    +0.000 HD
ENDBRANCH  19  23
ENDBRANCH  11  14
ENDBRANCH   6  12
ENDBRANCH   1   2
BRANCH   1  25
ATOM     25  C   UNL     1      26.498  28.321   2.869  0.00  0.00    +0.000 C 
ATOM     26  C   UNL     1      27.291  29.026   2.309  0.00  0.00    +0.000 C 
BRANCH  26  28
ATOM     27  C   UNL     1      29.090  30.627   1.020  0.00  0.00    +0.000 C 
ATOM     28  C   UNL     1      28.299  29.926   1.588  0.00  0.00    +0.000 C 
BRANCH  27  29
ATOM     29  C   UNL     1      30.105  31.516   0.291  0.00  0.00    +0.000 C 
BRANCH  29  30
ATOM     30  C   UNL     1      30.955  32.268  -0.333  0.00  0.00    +0.000 C 
ATOM     31  C   UNL     1      30.536  33.037  -1.549  0.00  0.00    +0.000 C 
BRANCH  30  33
ATOM     32  C   UNL     1      33.448  32.371   0.469  0.00  0.00    +0.000 C 
ATOM     33  C   UNL     1      32.304  32.323   0.102  0.00  0.00    +0.000 C 
BRANCH  32  39
ATOM     34  C   UNL     1      35.092  32.911   2.282  0.00  0.00    +0.000 C 
ATOM     35  C   UNL     1      35.845  32.074  -0.063  0.00  0.00    +0.000 C 
ATOM     36  C   UNL     1      36.495  32.593   2.583  0.00  0.00    +0.000 C 
ATOM     37  C   UNL     1      37.630  32.060   1.940  0.00  0.00    +0.000 C 
ATOM     38  C   UNL     1      37.101  31.862   0.648  0.00  0.00    +0.000 C 
ATOM     39  C   UNL     1      34.701  32.430   0.874  0.00  0.00    +0.000 C 
ATOM     40  C   UNL     1      34.198  32.188   3.336  0.00  0.00    +0.000 C 
ATOM     41  C   UNL     1      34.869  34.445   2.361  0.00  0.00    +0.000 C 
ATOM     42  C   UNL     1      35.998  33.127  -1.165  0.00  0.00    +0.000 C 
BRANCH  35  43
ATOM     43  O   UNL     1      35.532  30.878  -0.743  0.00  0.00    +0.000 OA
ATOM     44  H   UNL     1      34.703  31.125  -1.195  0.00  0.00    +0.000 HD
ENDBRANCH  35  43
BRANCH  37  45
ATOM     45  O   UNL     1      38.859  32.686   2.108  0.00  0.00    +0.000 OA
BRANCH  45  47
ATOM     46  O   UNL     1      39.936  31.443   3.779  0.00  0.00    +0.000 OA
ATOM     47  C   UNL     1      39.753  31.815   2.635  0.00  0.00    +0.000 C 
ATOM     48  C   UNL     1      40.683  31.219   1.638  0.00  0.00    +0.000 C 
ENDBRANCH  45  47
ENDBRANCH  37  45
ENDBRANCH  32  39
ENDBRANCH  30  33
ENDBRANCH  29  30
ENDBRANCH  27  29
ENDBRANCH  26  28
ENDBRANCH   1  25
TORSDOF 13
ENDMDL
MODEL 7
REMARK VINA RESULT:      -6.7     26.070     33.505
REMARK  Name = 5289155_Peridinin.pdbqt.pdb
REMARK  13 active torsions:
REMARK  status: ('A' for Active; 'I' for Inactive)
REMARK    1  A    between atoms: C_1  and  C_3
REMARK    2  A    between atoms: C_3  and  C_25
REMARK    3  A    between atoms: C_6  and  C_12
REMARK    4  A    between atoms: C_11  and  C_14
REMARK    5  A    between atoms: C_19  and  O_23
REMARK    6  A    between atoms: C_26  and  C_28
REMARK    7  A    between atoms: C_27  and  C_31
REMARK    8  A    between atoms: C_29  and  C_31
REMARK    9  A    between atoms: C_29  and  C_42
REMARK   10  A    between atoms: C_33  and  O_43
REMARK   11  A    between atoms: C_35  and  O_45
REMARK   12  A    between atoms: C_37  and  C_41
REMARK   13  A    between atoms: O_45  and  C_47
REMARK                            x       y       z     vdW  Elec       q    Type
REMARK                         _______ _______ _______ _____ _____    ______ ____
ROOT
ATOM      1  C   UNL     1      24.062   9.177  35.694  0.00  0.00    +0.000 C 
ENDROOT
BRANCH   1   2
ATOM      2  C   UNL     1      24.242  10.460  35.693  0.00  0.00    +0.000 C 
ATOM      3  C   UNL     1      25.304  11.072  36.553  0.00  0.00    +0.000 C 
ATOM      4  O   UNL     1      21.470  11.639  33.714  0.00  0.00    +0.000 OA
ATOM      5  O   UNL     1      19.752  12.914  32.821  0.00  0.00    +0.000 OA
ATOM      6  C   UNL     1      21.867  13.913  33.426  0.00  0.00    +0.000 C 
ATOM      7  C   UNL     1      22.939  13.410  33.919  0.00  0.00    +0.000 C 
ATOM      8  C   UNL     1      20.883  12.817  33.262  0.00  0.00    +0.000 C 
ATOM      9  C   UNL     1      22.752  12.039  34.078  0.00  0.00    +0.000 C 
ATOM     10  C   UNL     1      23.462  11.283  34.850  0.00  0.00    +0.000 C 
BRANCH   6  12
ATOM     11  C   UNL     1      21.556  16.442  32.864  0.00  0.00    +0.000 C 
ATOM     12  C   UNL     1      21.696  15.278  33.127  0.00  0.00    +0.000 C 
BRANCH  11  14
ATOM     13  O   UNL     1      22.681  18.529  32.622  0.00  0.00    +0.000 OA
ATOM     14  C   UNL     1      21.395  17.850  32.538  0.00  0.00    +0.000 C 
ATOM     15  C   UNL     1      22.129  18.431  31.311  0.00  0.00    +0.000 C 
ATOM     16  C   UNL     1      20.154  18.633  33.093  0.00  0.00    +0.000 C 
ATOM     17  C   UNL     1      21.679  19.694  30.819  0.00  0.00    +0.000 C 
ATOM     18  C   UNL     1      20.088  19.904  32.367  0.00  0.00    +0.000 C 
ATOM     19  C   UNL     1      20.676  20.567  31.273  0.00  0.00    +0.000 C 
ATOM     20  C   UNL     1      22.971  17.585  30.352  0.00  0.00    +0.000 C 
ATOM     21  C   UNL     1      18.921  17.750  32.765  0.00  0.00    +0.000 C 
ATOM     22  C   UNL     1      20.382  18.801  34.612  0.00  0.00    +0.000 C 
BRANCH  19  23
ATOM     23  O   UNL     1      19.935  21.339  30.428  0.00  0.00    +0.000 OA
ATOM     24  H   UNL     1      19.658  22.178  30.839  0.00  0.00    +0.000 HD
ENDBRANCH  19  23
ENDBRANCH  11  14
ENDBRANCH   6  12
ENDBRANCH   1   2
BRANCH   1  25
ATOM     25  C   UNL     1      23.848   7.659  35.697  0.00  0.00    +0.000 C 
ATOM     26  C   UNL     1      23.676   6.471  35.699  0.00  0.00    +0.000 C 
BRANCH  26  28
ATOM     27  C   UNL     1      23.271   3.770  35.697  0.00  0.00    +0.000 C 
ATOM     28  C   UNL     1      23.448   4.957  35.701  0.00  0.00    +0.000 C 
BRANCH  27  29
ATOM     29  C   UNL     1      23.045   2.253  35.685  0.00  0.00    +0.000 C 
BRANCH  29  30
ATOM     30  C   UNL     1      22.858   0.971  35.684  0.00  0.00    +0.000 C 
ATOM     31  C   UNL     1      22.241   0.296  36.872  0.00  0.00    +0.000 C 
BRANCH  30  33
ATOM     32  C   UNL     1      23.652  -0.467  33.643  0.00  0.00    +0.000 C 
ATOM     33  C   UNL     1      23.288   0.194  34.579  0.00  0.00    +0.000 C 
BRANCH  32  39
ATOM     34  C   UNL     1      23.352  -2.509  32.221  0.00  0.00    +0.000 C 
ATOM     35  C   UNL     1      25.256  -0.791  31.788  0.00  0.00    +0.000 C 
ATOM     36  C   UNL     1      23.773  -2.953  30.885  0.00  0.00    +0.000 C 
ATOM     37  C   UNL     1      24.693  -2.591  29.880  0.00  0.00    +0.000 C 
ATOM     38  C   UNL     1      25.322  -1.500  30.516  0.00  0.00    +0.000 C 
ATOM     39  C   UNL     1      24.045  -1.192  32.615  0.00  0.00    +0.000 C 
ATOM     40  C   UNL     1      21.809  -2.285  32.190  0.00  0.00    +0.000 C 
ATOM     41  C   UNL     1      23.709  -3.592  33.275  0.00  0.00    +0.000 C 
ATOM     42  C   UNL     1      26.549  -0.963  32.591  0.00  0.00    +0.000 C 
BRANCH  35  43
ATOM     43  O   UNL     1      25.185   0.590  31.504  0.00  0.00    +0.000 OA
ATOM     44  H   UNL     1      24.305   0.815  31.860  0.00  0.00    +0.000 HD
ENDBRANCH  35  43
BRANCH  37  45
ATOM     45  O   UNL     1      25.452  -3.582  29.271  0.00  0.00    +0.000 OA
BRANCH  45  47
ATOM     46  O   UNL     1      27.153  -2.860  27.826  0.00  0.00    +0.000 OA
ATOM     47  C   UNL     1      26.000  -3.105  28.126  0.00  0.00    +0.000 C 
ATOM     48  C   UNL     1      25.011  -2.821  27.051  0.00  0.00    +0.000 C 
ENDBRANCH  45  47
ENDBRANCH  37  45
ENDBRANCH  32  39
ENDBRANCH  30  33
ENDBRANCH  29  30
ENDBRANCH  27  29
ENDBRANCH  26  28
ENDBRANCH   1  25
TORSDOF 13
ENDMDL
MODEL 8
REMARK VINA RESULT:      -6.7     27.039     32.616
REMARK  Name = 5289155_Peridinin.pdbqt.pdb
REMARK  13 active torsions:
REMARK  status: ('A' for Active; 'I' for Inactive)
REMARK    1  A    between atoms: C_1  and  C_3
REMARK    2  A    between atoms: C_3  and  C_25
REMARK    3  A    between atoms: C_6  and  C_12
REMARK    4  A    between atoms: C_11  and  C_14
REMARK    5  A    between atoms: C_19  and  O_23
REMARK    6  A    between atoms: C_26  and  C_28
REMARK    7  A    between atoms: C_27  and  C_31
REMARK    8  A    between atoms: C_29  and  C_31
REMARK    9  A    between atoms: C_29  and  C_42
REMARK   10  A    between atoms: C_33  and  O_43
REMARK   11  A    between atoms: C_35  and  O_45
REMARK   12  A    between atoms: C_37  and  C_41
REMARK   13  A    between atoms: O_45  and  C_47
REMARK                            x       y       z     vdW  Elec       q    Type
REMARK                         _______ _______ _______ _____ _____    ______ ____
ROOT
ATOM      1  C   UNL     1      15.374   0.122  23.990  0.00  0.00    +0.000 C 
ENDROOT
BRANCH   1   2
ATOM      2  C   UNL     1      14.835   0.543  25.090  0.00  0.00    +0.000 C 
ATOM      3  C   UNL     1      14.036  -0.394  25.943  0.00  0.00    +0.000 C 
ATOM      4  O   UNL     1      15.436   4.094  24.951  0.00  0.00    +0.000 OA
ATOM      5  O   UNL     1      15.275   6.393  25.199  0.00  0.00    +0.000 OA
ATOM      6  C   UNL     1      14.744   4.898  27.021  0.00  0.00    +0.000 C 
ATOM      7  C   UNL     1      14.769   3.618  27.110  0.00  0.00    +0.000 C 
ATOM      8  C   UNL     1      15.174   5.267  25.652  0.00  0.00    +0.000 C 
ATOM      9  C   UNL     1      15.210   3.098  25.896  0.00  0.00    +0.000 C 
ATOM     10  C   UNL     1      15.031   1.878  25.509  0.00  0.00    +0.000 C 
BRANCH   6  12
ATOM     11  C   UNL     1      14.011   6.497  28.948  0.00  0.00    +0.000 C 
ATOM     12  C   UNL     1      14.352   5.758  28.064  0.00  0.00    +0.000 C 
BRANCH  11  14
ATOM     13  O   UNL     1      14.748   8.136  30.514  0.00  0.00    +0.000 OA
ATOM     14  C   UNL     1      13.596   7.399  30.010  0.00  0.00    +0.000 C 
ATOM     15  C   UNL     1      13.778   8.921  29.824  0.00  0.00    +0.000 C 
ATOM     16  C   UNL     1      12.559   6.907  31.079  0.00  0.00    +0.000 C 
ATOM     17  C   UNL     1      13.051   9.778  30.705  0.00  0.00    +0.000 C 
ATOM     18  C   UNL     1      12.104   8.091  31.813  0.00  0.00    +0.000 C 
ATOM     19  C   UNL     1      12.188   9.496  31.778  0.00  0.00    +0.000 C 
ATOM     20  C   UNL     1      14.307   9.557  28.535  0.00  0.00    +0.000 C 
ATOM     21  C   UNL     1      11.391   6.280  30.271  0.00  0.00    +0.000 C 
ATOM     22  C   UNL     1      13.293   5.877  31.964  0.00  0.00    +0.000 C 
BRANCH  19  23
ATOM     23  O   UNL     1      11.118  10.281  32.087  0.00  0.00    +0.000 OA
ATOM     24  H   UNL     1      10.270   9.818  31.959  0.00  0.00    +0.000 HD
ENDBRANCH  19  23
ENDBRANCH  11  14
ENDBRANCH   6  12
ENDBRANCH   1   2
BRANCH   1  25
ATOM     25  C   UNL     1      16.012  -0.376  22.687  0.00  0.00    +0.000 C 
ATOM     26  C   UNL     1      16.508  -0.771  21.668  0.00  0.00    +0.000 C 
BRANCH  26  28
ATOM     27  C   UNL     1      17.629  -1.675  19.348  0.00  0.00    +0.000 C 
ATOM     28  C   UNL     1      17.137  -1.281  20.368  0.00  0.00    +0.000 C 
BRANCH  27  29
ATOM     29  C   UNL     1      18.255  -2.174  18.039  0.00  0.00    +0.000 C 
BRANCH  29  30
ATOM     30  C   UNL     1      18.794  -2.593  16.939  0.00  0.00    +0.000 C 
ATOM     31  C   UNL     1      17.937  -2.927  15.755  0.00  0.00    +0.000 C 
BRANCH  30  33
ATOM     32  C   UNL     1      21.385  -2.961  16.812  0.00  0.00    +0.000 C 
ATOM     33  C   UNL     1      20.197  -2.791  16.869  0.00  0.00    +0.000 C 
BRANCH  32  39
ATOM     34  C   UNL     1      23.373  -4.383  17.366  0.00  0.00    +0.000 C 
ATOM     35  C   UNL     1      23.600  -2.124  16.096  0.00  0.00    +0.000 C 
ATOM     36  C   UNL     1      24.759  -4.514  16.895  0.00  0.00    +0.000 C 
ATOM     37  C   UNL     1      25.694  -3.803  16.115  0.00  0.00    +0.000 C 
ATOM     38  C   UNL     1      24.927  -2.659  15.810  0.00  0.00    +0.000 C 
ATOM     39  C   UNL     1      22.688  -3.152  16.746  0.00  0.00    +0.000 C 
ATOM     40  C   UNL     1      22.598  -5.668  16.942  0.00  0.00    +0.000 C 
ATOM     41  C   UNL     1      23.351  -4.237  18.912  0.00  0.00    +0.000 C 
ATOM     42  C   UNL     1      23.683  -0.851  16.944  0.00  0.00    +0.000 C 
BRANCH  35  43
ATOM     43  O   UNL     1      23.034  -1.711  14.872  0.00  0.00    +0.000 OA
ATOM     44  H   UNL     1      22.304  -2.350  14.772  0.00  0.00    +0.000 HD
ENDBRANCH  35  43
BRANCH  37  45
ATOM     45  O   UNL     1      26.998  -3.673  16.575  0.00  0.00    +0.000 OA
BRANCH  45  47
ATOM     46  O   UNL     1      28.186  -3.212  14.606  0.00  0.00    +0.000 OA
ATOM     47  C   UNL     1      27.869  -3.896  15.561  0.00  0.00    +0.000 C 
ATOM     48  C   UNL     1      28.548  -5.219  15.622  0.00  0.00    +0.000 C 
ENDBRANCH  45  47
ENDBRANCH  37  45
ENDBRANCH  32  39
ENDBRANCH  30  33
ENDBRANCH  29  30
ENDBRANCH  27  29
ENDBRANCH  26  28
ENDBRANCH   1  25
TORSDOF 13
ENDMDL
MODEL 9
REMARK VINA RESULT:      -6.7     28.468     30.615
REMARK  Name = 5289155_Peridinin.pdbqt.pdb
REMARK  13 active torsions:
REMARK  status: ('A' for Active; 'I' for Inactive)
REMARK    1  A    between atoms: C_1  and  C_3
REMARK    2  A    between atoms: C_3  and  C_25
REMARK    3  A    between atoms: C_6  and  C_12
REMARK    4  A    between atoms: C_11  and  C_14
REMARK    5  A    between atoms: C_19  and  O_23
REMARK    6  A    between atoms: C_26  and  C_28
REMARK    7  A    between atoms: C_27  and  C_31
REMARK    8  A    between atoms: C_29  and  C_31
REMARK    9  A    between atoms: C_29  and  C_42
REMARK   10  A    between atoms: C_33  and  O_43
REMARK   11  A    between atoms: C_35  and  O_45
REMARK   12  A    between atoms: C_37  and  C_41
REMARK   13  A    between atoms: O_45  and  C_47
REMARK                            x       y       z     vdW  Elec       q    Type
REMARK                         _______ _______ _______ _____ _____    ______ ____
ROOT
ATOM      1  C   UNL     1      25.530  27.330   3.683  0.00  0.00    +0.000 C 
ENDROOT
BRANCH   1   2
ATOM      2  C   UNL     1      24.612  26.604   4.240  0.00  0.00    +0.000 C 
ATOM      3  C   UNL     1      24.081  26.969   5.592  0.00  0.00    +0.000 C 
ATOM      4  O   UNL     1      24.373  23.787   2.004  0.00  0.00    +0.000 OA
ATOM      5  O   UNL     1      24.056  21.673   1.109  0.00  0.00    +0.000 OA
ATOM      6  C   UNL     1      22.552  22.564   2.777  0.00  0.00    +0.000 C 
ATOM      7  C   UNL     1      22.531  23.689   3.393  0.00  0.00    +0.000 C 
ATOM      8  C   UNL     1      23.715  22.571   1.858  0.00  0.00    +0.000 C 
ATOM      9  C   UNL     1      23.591  24.466   2.934  0.00  0.00    +0.000 C 
ATOM     10  C   UNL     1      24.081  25.487   3.557  0.00  0.00    +0.000 C 
BRANCH   6  12
ATOM     11  C   UNL     1      20.821  20.651   3.166  0.00  0.00    +0.000 C 
ATOM     12  C   UNL     1      21.622  21.529   2.986  0.00  0.00    +0.000 C 
BRANCH  11  14
ATOM     13  O   UNL     1      20.220  18.406   2.637  0.00  0.00    +0.000 OA
ATOM     14  C   UNL     1      19.846  19.596   3.389  0.00  0.00    +0.000 C 
ATOM     15  C   UNL     1      20.295  18.278   4.054  0.00  0.00    +0.000 C 
ATOM     16  C   UNL     1      18.318  19.953   3.420  0.00  0.00    +0.000 C 
ATOM     17  C   UNL     1      19.274  17.428   4.575  0.00  0.00    +0.000 C 
ATOM     18  C   UNL     1      17.616  18.786   3.962  0.00  0.00    +0.000 C 
ATOM     19  C   UNL     1      17.873  17.544   4.573  0.00  0.00    +0.000 C 
ATOM     20  C   UNL     1      21.716  18.036   4.574  0.00  0.00    +0.000 C 
ATOM     21  C   UNL     1      18.190  21.164   4.381  0.00  0.00    +0.000 C 
ATOM     22  C   UNL     1      17.916  20.296   1.969  0.00  0.00    +0.000 C 
BRANCH  19  23
ATOM     23  O   UNL     1      17.094  17.076   5.588  0.00  0.00    +0.000 OA
ATOM     24  H   UNL     1      16.145  17.224   5.426  0.00  0.00    +0.000 HD
ENDBRANCH  19  23
ENDBRANCH  11  14
ENDBRANCH   6  12
ENDBRANCH   1   2
BRANCH   1  25
ATOM     25  C   UNL     1      26.615  28.188   3.023  0.00  0.00    +0.000 C 
ATOM     26  C   UNL     1      27.466  28.862   2.512  0.00  0.00    +0.000 C 
BRANCH  26  28
ATOM     27  C   UNL     1      29.401  30.409   1.361  0.00  0.00    +0.000 C 
ATOM     28  C   UNL     1      28.553  29.727   1.866  0.00  0.00    +0.000 C 
BRANCH  27  29
ATOM     29  C   UNL     1      30.480  31.285   0.714  0.00  0.00    +0.000 C 
BRANCH  29  30
ATOM     30  C   UNL     1      31.391  32.033   0.175  0.00  0.00    +0.000 C 
ATOM     31  C   UNL     1      31.387  33.514   0.403  0.00  0.00    +0.000 C 
BRANCH  30  33
ATOM     32  C   UNL     1      33.192  30.970  -1.403  0.00  0.00    +0.000 C 
ATOM     33  C   UNL     1      32.365  31.456  -0.679  0.00  0.00    +0.000 C 
BRANCH  32  39
ATOM     34  C   UNL     1      35.521  31.021  -2.329  0.00  0.00    +0.000 C 
ATOM     35  C   UNL     1      33.779  29.235  -3.066  0.00  0.00    +0.000 C 
ATOM     36  C   UNL     1      36.419  30.083  -3.016  0.00  0.00    +0.000 C 
ATOM     37  C   UNL     1      36.361  28.839  -3.677  0.00  0.00    +0.000 C 
ATOM     38  C   UNL     1      34.977  28.587  -3.588  0.00  0.00    +0.000 C 
ATOM     39  C   UNL     1      34.103  30.437  -2.193  0.00  0.00    +0.000 C 
ATOM     40  C   UNL     1      36.102  31.289  -0.906  0.00  0.00    +0.000 C 
ATOM     41  C   UNL     1      35.435  32.351  -3.125  0.00  0.00    +0.000 C 
ATOM     42  C   UNL     1      32.817  29.621  -4.193  0.00  0.00    +0.000 C 
BRANCH  35  43
ATOM     43  O   UNL     1      33.077  28.282  -2.299  0.00  0.00    +0.000 OA
ATOM     44  H   UNL     1      32.298  28.797  -2.017  0.00  0.00    +0.000 HD
ENDBRANCH  35  43
BRANCH  37  45
ATOM     45  O   UNL     1      37.028  28.685  -4.886  0.00  0.00    +0.000 OA
BRANCH  45  47
ATOM     46  O   UNL     1      39.027  27.590  -4.334  0.00  0.00    +0.000 OA
ATOM     47  C   UNL     1      37.905  27.655  -4.801  0.00  0.00    +0.000 C 
ATOM     48  C   UNL     1      37.412  26.384  -5.396  0.00  0.00    +0.000 C 
ENDBRANCH  45  47
ENDBRANCH  37  45
ENDBRANCH  32  39
ENDBRANCH  30  33
ENDBRANCH  29  30
ENDBRANCH  27  29
ENDBRANCH  26  28
ENDBRANCH   1  25
TORSDOF 13
ENDMDL
