REMARK  Name = 5289155_Peridinin.pdbqt.pdb
REMARK  13 active torsions:
REMARK  status: ('A' for Active; 'I' for Inactive)
REMARK    1  A    between atoms: C_1  and  C_3
REMARK    2  A    between atoms: C_3  and  C_25
REMARK    3  A    between atoms: C_6  and  C_12
REMARK    4  A    between atoms: C_11  and  C_14
REMARK    5  A    between atoms: C_19  and  O_23
REMARK    6  A    between atoms: C_26  and  C_28
REMARK    7  A    between atoms: C_27  and  C_31
REMARK    8  A    between atoms: C_29  and  C_31
REMARK    9  A    between atoms: C_29  and  C_42
REMARK   10  A    between atoms: C_33  and  O_43
REMARK   11  A    between atoms: C_35  and  O_45
REMARK   12  A    between atoms: C_37  and  C_41
REMARK   13  A    between atoms: O_45  and  C_47
REMARK                            x       y       z     vdW  Elec       q    Type
REMARK                         _______ _______ _______ _____ _____    ______ ____
ROOT
ATOM      1  C   UNL     1       1.495  -1.649  -2.373  0.00  0.00    +0.000 C 
ENDROOT
BRANCH   1   2
ATOM      2  C   UNL     1       2.734  -1.398  -2.658  0.00  0.00    +0.000 C 
ATOM      3  C   UNL     1       3.228  -1.545  -4.064  0.00  0.00    +0.000 C 
ATOM      4  O   UNL     1       4.201  -0.897   0.596  0.00  0.00    +0.000 OA
ATOM      5  O   UNL     1       5.666  -0.805   2.390  0.00  0.00    +0.000 OA
ATOM      6  C   UNL     1       6.368  -0.168   0.168  0.00  0.00    +0.000 C 
ATOM      7  C   UNL     1       5.738  -0.133  -0.949  0.00  0.00    +0.000 C 
ATOM      8  C   UNL     1       5.425  -0.645   1.207  0.00  0.00    +0.000 C 
ATOM      9  C   UNL     1       4.423  -0.534  -0.729  0.00  0.00    +0.000 C 
ATOM     10  C   UNL     1       3.615  -0.948  -1.649  0.00  0.00    +0.000 C 
BRANCH   6  12
ATOM     11  C   UNL     1       8.882   0.470   0.450  0.00  0.00    +0.000 C 
ATOM     12  C   UNL     1       7.723   0.178   0.325  0.00  0.00    +0.000 C 
BRANCH  11  14
ATOM     13  O   UNL     1      10.948  -0.143   1.468  0.00  0.00    +0.000 OA
ATOM     14  C   UNL     1      10.287   0.816   0.593  0.00  0.00    +0.000 C 
ATOM     15  C   UNL     1      11.364  -0.176   0.105  0.00  0.00    +0.000 C 
ATOM     16  C   UNL     1      10.697   2.320   0.768  0.00  0.00    +0.000 C 
ATOM     17  C   UNL     1      12.688   0.330  -0.068  0.00  0.00    +0.000 C 
ATOM     18  C   UNL     1      12.148   2.395   0.575  0.00  0.00    +0.000 C 
ATOM     19  C   UNL     1      13.236   1.604   0.160  0.00  0.00    +0.000 C 
ATOM     20  C   UNL     1      11.039  -1.494  -0.604  0.00  0.00    +0.000 C 
ATOM     21  C   UNL     1       9.954   3.090  -0.356  0.00  0.00    +0.000 C 
ATOM     22  C   UNL     1      10.240   2.740   2.182  0.00  0.00    +0.000 C 
BRANCH  19  23
ATOM     23  O   UNL     1      14.240   2.120  -0.603  0.00  0.00    +0.000 OA
ATOM     24  H   UNL     1      14.794   1.427  -1.005  0.00  0.00    +0.000 HD
ENDBRANCH  19  23
ENDBRANCH  11  14
ENDBRANCH   6  12
ENDBRANCH   1   2
BRANCH   1  25
ATOM     25  C   UNL     1       0.029  -1.945  -2.036  0.00  0.00    +0.000 C 
ATOM     26  C   UNL     1      -1.120  -2.174  -1.777  0.00  0.00    +0.000 C 
BRANCH  26  28
ATOM     27  C   UNL     1      -3.741  -2.686  -1.204  0.00  0.00    +0.000 C 
ATOM     28  C   UNL     1      -2.589  -2.463  -1.453  0.00  0.00    +0.000 C 
BRANCH  27  29
ATOM     29  C   UNL     1      -5.216  -2.965  -0.889  0.00  0.00    +0.000 C 
BRANCH  29  30
ATOM     30  C   UNL     1      -6.464  -3.190  -0.625  0.00  0.00    +0.000 C 
ATOM     31  C   UNL     1      -7.021  -4.578  -0.725  0.00  0.00    +0.000 C 
BRANCH  30  33
ATOM     32  C   UNL     1      -8.052  -1.198  -0.012  0.00  0.00    +0.000 C 
ATOM     33  C   UNL     1      -7.322  -2.111  -0.293  0.00  0.00    +0.000 C 
BRANCH  32  39
ATOM     34  C   UNL     1      -8.395   1.269   0.269  0.00  0.00    +0.000 C 
ATOM     35  C   UNL     1     -10.277  -0.455   0.772  0.00  0.00    +0.000 C 
ATOM     36  C   UNL     1      -9.540   2.186   0.356  0.00  0.00    +0.000 C 
ATOM     37  C   UNL     1     -10.935   2.137   0.554  0.00  0.00    +0.000 C 
ATOM     38  C   UNL     1     -11.101   0.748   0.732  0.00  0.00    +0.000 C 
ATOM     39  C   UNL     1      -8.854  -0.200   0.301  0.00  0.00    +0.000 C 
ATOM     40  C   UNL     1      -7.659   1.545  -1.078  0.00  0.00    +0.000 C 
ATOM     41  C   UNL     1      -7.430   1.513   1.460  0.00  0.00    +0.000 C 
ATOM     42  C   UNL     1     -10.287  -1.092   2.165  0.00  0.00    +0.000 C 
BRANCH  35  43
ATOM     43  O   UNL     1     -10.879  -1.413  -0.071  0.00  0.00    +0.000 OA
ATOM     44  H   UNL     1     -11.119  -2.109   0.569  0.00  0.00    +0.000 HD
ENDBRANCH  35  43
BRANCH  37  45
ATOM     45  O   UNL     1     -11.524   3.034   1.436  0.00  0.00    +0.000 OA
BRANCH  45  47
ATOM     46  O   UNL     1     -13.427   2.941   0.068  0.00  0.00    +0.000 OA
ATOM     47  C   UNL     1     -12.788   3.314   1.034  0.00  0.00    +0.000 C 
ATOM     48  C   UNL     1     -13.517   4.254   1.928  0.00  0.00    +0.000 C 
ENDBRANCH  45  47
ENDBRANCH  37  45
ENDBRANCH  32  39
ENDBRANCH  30  33
ENDBRANCH  29  30
ENDBRANCH  27  29
ENDBRANCH  26  28
ENDBRANCH   1  25
TORSDOF 13
