MODEL 1
REMARK VINA RESULT:      -7.5      0.000      0.000
REMARK  Name = 5318517_Andrographolide.pdbqt.pdb
REMARK  6 active torsions:
REMARK  status: ('A' for Active; 'I' for Inactive)
REMARK    1  A    between atoms: C_3  and  C_16
REMARK    2  A    between atoms: C_4  and  C_19
REMARK    3  A    between atoms: C_6  and  O_14
REMARK    4  A    between atoms: C_16  and  O_17
REMARK    5  A    between atoms: C_22  and  C_23
REMARK    6  A    between atoms: C_24  and  O_27
REMARK                            x       y       z     vdW  Elec       q    Type
REMARK                         _______ _______ _______ _____ _____    ______ ____
ROOT
ATOM      1  C   UNL     1      45.073  -4.734  12.049  0.00  0.00    +0.000 C 
ATOM      2  C   UNL     1      45.249  -3.383  12.806  0.00  0.00    +0.000 C 
ATOM      3  C   UNL     1      44.185  -2.272  12.775  0.00  0.00    +0.000 C 
ATOM      4  C   UNL     1      46.370  -5.446  11.568  0.00  0.00    +0.000 C 
ATOM      5  C   UNL     1      44.230  -4.408  10.903  0.00  0.00    +0.000 C 
ATOM      6  C   UNL     1      43.219  -2.247  11.552  0.00  0.00    +0.000 C 
ATOM      7  C   UNL     1      46.499  -3.265  13.479  0.00  0.00    +0.000 C 
ATOM      8  C   UNL     1      43.322  -3.267  10.589  0.00  0.00    +0.000 C 
ATOM      9  C   UNL     1      44.332  -5.709  13.014  0.00  0.00    +0.000 C 
ATOM     10  C   UNL     1      47.641  -4.197  13.230  0.00  0.00    +0.000 C 
ATOM     11  C   UNL     1      47.626  -5.265  12.309  0.00  0.00    +0.000 C 
ATOM     12  C   UNL     1      44.934  -0.891  12.749  0.00  0.00    +0.000 C 
ATOM     13  C   UNL     1      48.785  -5.858  12.021  0.00  0.00    +0.000 C 
ENDROOT
BRANCH   6  14
ATOM     14  O   UNL     1      42.152  -1.366  11.510  0.00  0.00    +0.000 OA
ATOM     15  H   UNL     1      42.425  -0.447  11.680  0.00  0.00    +0.000 HD
ENDBRANCH   6  14
BRANCH   4  16
ATOM     16  C   UNL     1      46.320  -6.380  10.478  0.00  0.00    +0.000 C 
ATOM     17  C   UNL     1      46.256  -7.374   9.315  0.00  0.00    +0.000 C 
BRANCH  17  20
ATOM     18  O   UNL     1      45.328  -9.295   6.463  0.00  0.00    +0.000 OA
ATOM     19  O   UNL     1      43.842  -7.976   7.684  0.00  0.00    +0.000 OA
ATOM     20  C   UNL     1      46.201  -8.208   8.325  0.00  0.00    +0.000 C 
ATOM     21  C   UNL     1      47.281  -8.975   7.758  0.00  0.00    +0.000 C 
ATOM     22  C   UNL     1      44.953  -8.439   7.495  0.00  0.00    +0.000 C 
ATOM     23  C   UNL     1      46.614  -9.537   6.667  0.00  0.00    +0.000 C 
BRANCH  21  24
ATOM     24  O   UNL     1      48.544  -8.457   7.710  0.00  0.00    +0.000 OA
ATOM     25  H   UNL     1      48.533  -7.486   7.638  0.00  0.00    +0.000 HD
ENDBRANCH  21  24
ENDBRANCH  17  20
ENDBRANCH   4  16
BRANCH   3  26
ATOM     26  C   UNL     1      43.371  -2.393  14.018  0.00  0.00    +0.000 C 
BRANCH  26  27
ATOM     27  O   UNL     1      42.634  -2.510  15.126  0.00  0.00    +0.000 OA
ATOM     28  H   UNL     1      42.941  -1.888  15.810  0.00  0.00    +0.000 HD
ENDBRANCH  26  27
ENDBRANCH   3  26
TORSDOF 6
ENDMDL
MODEL 2
REMARK VINA RESULT:      -7.4      1.828      2.829
REMARK  Name = 5318517_Andrographolide.pdbqt.pdb
REMARK  6 active torsions:
REMARK  status: ('A' for Active; 'I' for Inactive)
REMARK    1  A    between atoms: C_3  and  C_16
REMARK    2  A    between atoms: C_4  and  C_19
REMARK    3  A    between atoms: C_6  and  O_14
REMARK    4  A    between atoms: C_16  and  O_17
REMARK    5  A    between atoms: C_22  and  C_23
REMARK    6  A    between atoms: C_24  and  O_27
REMARK                            x       y       z     vdW  Elec       q    Type
REMARK                         _______ _______ _______ _____ _____    ______ ____
ROOT
ATOM      1  C   UNL     1      44.118  -4.091  11.294  0.00  0.00    +0.000 C 
ATOM      2  C   UNL     1      43.932  -3.260  12.599  0.00  0.00    +0.000 C 
ATOM      3  C   UNL     1      44.668  -1.931  12.847  0.00  0.00    +0.000 C 
ATOM      4  C   UNL     1      43.931  -5.631  11.407  0.00  0.00    +0.000 C 
ATOM      5  C   UNL     1      45.476  -3.786  10.853  0.00  0.00    +0.000 C 
ATOM      6  C   UNL     1      46.008  -1.708  12.083  0.00  0.00    +0.000 C 
ATOM      7  C   UNL     1      43.060  -3.871  13.545  0.00  0.00    +0.000 C 
ATOM      8  C   UNL     1      46.434  -2.686  11.167  0.00  0.00    +0.000 C 
ATOM      9  C   UNL     1      43.076  -3.565  10.261  0.00  0.00    +0.000 C 
ATOM     10  C   UNL     1      42.621  -5.296  13.436  0.00  0.00    +0.000 C 
ATOM     11  C   UNL     1      43.021  -6.188  12.419  0.00  0.00    +0.000 C 
ATOM     12  C   UNL     1      45.037  -1.864  14.373  0.00  0.00    +0.000 C 
ATOM     13  C   UNL     1      42.745  -7.483  12.580  0.00  0.00    +0.000 C 
ENDROOT
BRANCH   6  14
ATOM     14  O   UNL     1      46.664  -0.491  12.145  0.00  0.00    +0.000 OA
ATOM     15  H   UNL     1      46.674  -0.033  11.286  0.00  0.00    +0.000 HD
ENDBRANCH   6  14
BRANCH   4  16
ATOM     16  C   UNL     1      44.541  -6.506  10.447  0.00  0.00    +0.000 C 
ATOM     17  C   UNL     1      45.196  -7.431   9.416  0.00  0.00    +0.000 C 
BRANCH  17  20
ATOM     18  O   UNL     1      45.978  -9.488   6.616  0.00  0.00    +0.000 OA
ATOM     19  O   UNL     1      43.819  -8.790   7.156  0.00  0.00    +0.000 OA
ATOM     20  C   UNL     1      45.758  -8.210   8.546  0.00  0.00    +0.000 C 
ATOM     21  C   UNL     1      47.155  -8.546   8.438  0.00  0.00    +0.000 C 
ATOM     22  C   UNL     1      45.015  -8.838   7.383  0.00  0.00    +0.000 C 
ATOM     23  C   UNL     1      47.122  -9.277   7.249  0.00  0.00    +0.000 C 
BRANCH  21  24
ATOM     24  O   UNL     1      48.112  -7.623   8.753  0.00  0.00    +0.000 OA
ATOM     25  H   UNL     1      48.120  -6.882   8.122  0.00  0.00    +0.000 HD
ENDBRANCH  21  24
ENDBRANCH  17  20
ENDBRANCH   4  16
BRANCH   3  26
ATOM     26  C   UNL     1      43.733  -0.825  12.495  0.00  0.00    +0.000 C 
BRANCH  26  27
ATOM     27  O   UNL     1      42.893   0.161  12.168  0.00  0.00    +0.000 OA
ATOM     28  H   UNL     1      42.162  -0.178  11.620  0.00  0.00    +0.000 HD
ENDBRANCH  26  27
ENDBRANCH   3  26
TORSDOF 6
ENDMDL
MODEL 3
REMARK VINA RESULT:      -6.6      3.712      6.014
REMARK  Name = 5318517_Andrographolide.pdbqt.pdb
REMARK  6 active torsions:
REMARK  status: ('A' for Active; 'I' for Inactive)
REMARK    1  A    between atoms: C_3  and  C_16
REMARK    2  A    between atoms: C_4  and  C_19
REMARK    3  A    between atoms: C_6  and  O_14
REMARK    4  A    between atoms: C_16  and  O_17
REMARK    5  A    between atoms: C_22  and  C_23
REMARK    6  A    between atoms: C_24  and  O_27
REMARK                            x       y       z     vdW  Elec       q    Type
REMARK                         _______ _______ _______ _____ _____    ______ ____
ROOT
ATOM      1  C   UNL     1      45.582  -4.810  10.572  0.00  0.00    +0.000 C 
ATOM      2  C   UNL     1      44.030  -4.925  10.479  0.00  0.00    +0.000 C 
ATOM      3  C   UNL     1      43.326  -6.114   9.801  0.00  0.00    +0.000 C 
ATOM      4  C   UNL     1      46.180  -3.375  10.614  0.00  0.00    +0.000 C 
ATOM      5  C   UNL     1      46.075  -5.521   9.396  0.00  0.00    +0.000 C 
ATOM      6  C   UNL     1      44.133  -6.894   8.719  0.00  0.00    +0.000 C 
ATOM      7  C   UNL     1      43.341  -3.809  11.035  0.00  0.00    +0.000 C 
ATOM      8  C   UNL     1      45.467  -6.521   8.472  0.00  0.00    +0.000 C 
ATOM      9  C   UNL     1      46.020  -5.541  11.878  0.00  0.00    +0.000 C 
ATOM     10  C   UNL     1      44.028  -2.528  11.384  0.00  0.00    +0.000 C 
ATOM     11  C   UNL     1      45.401  -2.271  11.193  0.00  0.00    +0.000 C 
ATOM     12  C   UNL     1      42.055  -5.562   9.062  0.00  0.00    +0.000 C 
ATOM     13  C   UNL     1      45.826  -1.013  11.326  0.00  0.00    +0.000 C 
ENDROOT
BRANCH   6  14
ATOM     14  O   UNL     1      43.627  -8.053   8.158  0.00  0.00    +0.000 OA
ATOM     15  H   UNL     1      43.383  -8.713   8.830  0.00  0.00    +0.000 HD
ENDBRANCH   6  14
BRANCH   4  16
ATOM     16  C   UNL     1      47.537  -3.145  10.207  0.00  0.00    +0.000 C 
ATOM     17  C   UNL     1      48.988  -2.911   9.777  0.00  0.00    +0.000 C 
BRANCH  17  20
ATOM     18  O   UNL     1      52.309  -1.711   9.310  0.00  0.00    +0.000 OA
ATOM     19  O   UNL     1      50.621  -0.493  10.361  0.00  0.00    +0.000 OA
ATOM     20  C   UNL     1      50.215  -2.719   9.406  0.00  0.00    +0.000 C 
ATOM     21  C   UNL     1      51.074  -3.631   8.694  0.00  0.00    +0.000 C 
ATOM     22  C   UNL     1      51.017  -1.486   9.776  0.00  0.00    +0.000 C 
ATOM     23  C   UNL     1      52.266  -2.906   8.739  0.00  0.00    +0.000 C 
BRANCH  21  24
ATOM     24  O   UNL     1      50.978  -4.977   8.909  0.00  0.00    +0.000 OA
ATOM     25  H   UNL     1      50.053  -5.261   9.017  0.00  0.00    +0.000 HD
ENDBRANCH  21  24
ENDBRANCH  17  20
ENDBRANCH   4  16
BRANCH   3  26
ATOM     26  C   UNL     1      42.925  -7.070  10.872  0.00  0.00    +0.000 C 
BRANCH  26  27
ATOM     27  O   UNL     1      42.565  -7.919  11.840  0.00  0.00    +0.000 OA
ATOM     28  H   UNL     1      42.941  -7.642  12.695  0.00  0.00    +0.000 HD
ENDBRANCH  26  27
ENDBRANCH   3  26
TORSDOF 6
ENDMDL
MODEL 4
REMARK VINA RESULT:      -6.6      3.314      6.068
REMARK  Name = 5318517_Andrographolide.pdbqt.pdb
REMARK  6 active torsions:
REMARK  status: ('A' for Active; 'I' for Inactive)
REMARK    1  A    between atoms: C_3  and  C_16
REMARK    2  A    between atoms: C_4  and  C_19
REMARK    3  A    between atoms: C_6  and  O_14
REMARK    4  A    between atoms: C_16  and  O_17
REMARK    5  A    between atoms: C_22  and  C_23
REMARK    6  A    between atoms: C_24  and  O_27
REMARK                            x       y       z     vdW  Elec       q    Type
REMARK                         _______ _______ _______ _____ _____    ______ ____
ROOT
ATOM      1  C   UNL     1      45.528  -5.564  11.147  0.00  0.00    +0.000 C 
ATOM      2  C   UNL     1      44.257  -6.392  10.788  0.00  0.00    +0.000 C 
ATOM      3  C   UNL     1      42.917  -6.212  11.523  0.00  0.00    +0.000 C 
ATOM      4  C   UNL     1      46.905  -6.241  10.890  0.00  0.00    +0.000 C 
ATOM      5  C   UNL     1      45.381  -5.258  12.567  0.00  0.00    +0.000 C 
ATOM      6  C   UNL     1      42.972  -5.642  12.973  0.00  0.00    +0.000 C 
ATOM      7  C   UNL     1      44.474  -7.352   9.759  0.00  0.00    +0.000 C 
ATOM      8  C   UNL     1      44.219  -5.261  13.501  0.00  0.00    +0.000 C 
ATOM      9  C   UNL     1      45.480  -4.257  10.297  0.00  0.00    +0.000 C 
ATOM     10  C   UNL     1      45.839  -7.743   9.293  0.00  0.00    +0.000 C 
ATOM     11  C   UNL     1      47.047  -7.233   9.815  0.00  0.00    +0.000 C 
ATOM     12  C   UNL     1      42.246  -7.627  11.652  0.00  0.00    +0.000 C 
ATOM     13  C   UNL     1      48.182  -7.843   9.472  0.00  0.00    +0.000 C 
ENDROOT
BRANCH   6  14
ATOM     14  O   UNL     1      41.810  -5.324  13.654  0.00  0.00    +0.000 OA
ATOM     15  H   UNL     1      41.278  -6.112  13.864  0.00  0.00    +0.000 HD
ENDBRANCH   6  14
BRANCH   4  16
ATOM     16  C   UNL     1      48.068  -5.809  11.612  0.00  0.00    +0.000 C 
ATOM     17  C   UNL     1      49.311  -5.359  12.386  0.00  0.00    +0.000 C 
BRANCH  17  20
ATOM     18  O   UNL     1      52.507  -5.112  13.937  0.00  0.00    +0.000 OA
ATOM     19  O   UNL     1      51.594  -7.108  13.148  0.00  0.00    +0.000 OA
ATOM     20  C   UNL     1      50.367  -4.984  13.036  0.00  0.00    +0.000 C 
ATOM     21  C   UNL     1      50.702  -3.654  13.480  0.00  0.00    +0.000 C 
ATOM     22  C   UNL     1      51.525  -5.909  13.355  0.00  0.00    +0.000 C 
ATOM     23  C   UNL     1      51.990  -3.893  13.964  0.00  0.00    +0.000 C 
BRANCH  21  24
ATOM     24  O   UNL     1      50.345  -2.568  12.732  0.00  0.00    +0.000 OA
ATOM     25  H   UNL     1      51.094  -1.961  12.596  0.00  0.00    +0.000 HD
ENDBRANCH  21  24
ENDBRANCH  17  20
ENDBRANCH   4  16
BRANCH   3  26
ATOM     26  C   UNL     1      42.065  -5.312  10.694  0.00  0.00    +0.000 C 
BRANCH  26  27
ATOM     27  O   UNL     1      41.307  -4.511   9.940  0.00  0.00    +0.000 OA
ATOM     28  H   UNL     1      41.733  -3.642   9.827  0.00  0.00    +0.000 HD
ENDBRANCH  26  27
ENDBRANCH   3  26
TORSDOF 6
ENDMDL
MODEL 5
REMARK VINA RESULT:      -6.6     32.550     36.427
REMARK  Name = 5318517_Andrographolide.pdbqt.pdb
REMARK  6 active torsions:
REMARK  status: ('A' for Active; 'I' for Inactive)
REMARK    1  A    between atoms: C_3  and  C_16
REMARK    2  A    between atoms: C_4  and  C_19
REMARK    3  A    between atoms: C_6  and  O_14
REMARK    4  A    between atoms: C_16  and  O_17
REMARK    5  A    between atoms: C_22  and  C_23
REMARK    6  A    between atoms: C_24  and  O_27
REMARK                            x       y       z     vdW  Elec       q    Type
REMARK                         _______ _______ _______ _____ _____    ______ ____
ROOT
ATOM      1  C   UNL     1      14.026   5.513  28.674  0.00  0.00    +0.000 C 
ATOM      2  C   UNL     1      13.997   6.648  29.742  0.00  0.00    +0.000 C 
ATOM      3  C   UNL     1      13.774   8.126  29.373  0.00  0.00    +0.000 C 
ATOM      4  C   UNL     1      14.897   4.265  28.996  0.00  0.00    +0.000 C 
ATOM      5  C   UNL     1      14.513   6.161  27.460  0.00  0.00    +0.000 C 
ATOM      6  C   UNL     1      14.152   8.562  27.925  0.00  0.00    +0.000 C 
ATOM      7  C   UNL     1      14.243   6.190  31.067  0.00  0.00    +0.000 C 
ATOM      8  C   UNL     1      14.603   7.583  27.021  0.00  0.00    +0.000 C 
ATOM      9  C   UNL     1      12.558   5.024  28.482  0.00  0.00    +0.000 C 
ATOM     10  C   UNL     1      14.780   4.827  31.365  0.00  0.00    +0.000 C 
ATOM     11  C   UNL     1      15.116   3.862  30.393  0.00  0.00    +0.000 C 
ATOM     12  C   UNL     1      14.673   8.998  30.323  0.00  0.00    +0.000 C 
ATOM     13  C   UNL     1      15.802   2.789  30.788  0.00  0.00    +0.000 C 
ENDROOT
BRANCH   6  14
ATOM     14  O   UNL     1      13.860   9.836  27.471  0.00  0.00    +0.000 OA
ATOM     15  H   UNL     1      12.980  10.138  27.758  0.00  0.00    +0.000 HD
ENDBRANCH   6  14
BRANCH   4  16
ATOM     16  C   UNL     1      15.385   3.430  27.935  0.00  0.00    +0.000 C 
ATOM     17  C   UNL     1      15.905   2.531  26.810  0.00  0.00    +0.000 C 
BRANCH  17  20
ATOM     18  O   UNL     1      16.462   0.818  23.737  0.00  0.00    +0.000 OA
ATOM     19  O   UNL     1      14.552   2.074  24.200  0.00  0.00    +0.000 OA
ATOM     20  C   UNL     1      16.337   1.765  25.857  0.00  0.00    +0.000 C 
ATOM     21  C   UNL     1      17.570   1.021  25.816  0.00  0.00    +0.000 C 
ATOM     22  C   UNL     1      15.630   1.608  24.526  0.00  0.00    +0.000 C 
ATOM     23  C   UNL     1      17.505   0.543  24.506  0.00  0.00    +0.000 C 
BRANCH  21  24
ATOM     24  O   UNL     1      18.698   1.523  26.402  0.00  0.00    +0.000 OA
ATOM     25  H   UNL     1      19.482   0.985  26.196  0.00  0.00    +0.000 HD
ENDBRANCH  21  24
ENDBRANCH  17  20
ENDBRANCH   4  16
BRANCH   3  26
ATOM     26  C   UNL     1      12.334   8.435  29.600  0.00  0.00    +0.000 C 
BRANCH  26  27
ATOM     27  O   UNL     1      11.045   8.724  29.803  0.00  0.00    +0.000 OA
ATOM     28  H   UNL     1      10.948   9.367  30.529  0.00  0.00    +0.000 HD
ENDBRANCH  26  27
ENDBRANCH   3  26
TORSDOF 6
ENDMDL
MODEL 6
REMARK VINA RESULT:      -6.6      4.479      6.877
REMARK  Name = 5318517_Andrographolide.pdbqt.pdb
REMARK  6 active torsions:
REMARK  status: ('A' for Active; 'I' for Inactive)
REMARK    1  A    between atoms: C_3  and  C_16
REMARK    2  A    between atoms: C_4  and  C_19
REMARK    3  A    between atoms: C_6  and  O_14
REMARK    4  A    between atoms: C_16  and  O_17
REMARK    5  A    between atoms: C_22  and  C_23
REMARK    6  A    between atoms: C_24  and  O_27
REMARK                            x       y       z     vdW  Elec       q    Type
REMARK                         _______ _______ _______ _____ _____    ______ ____
ROOT
ATOM      1  C   UNL     1      44.396   0.129  13.496  0.00  0.00    +0.000 C 
ATOM      2  C   UNL     1      44.555   1.495  14.229  0.00  0.00    +0.000 C 
ATOM      3  C   UNL     1      45.929   2.136  14.497  0.00  0.00    +0.000 C 
ATOM      4  C   UNL     1      43.154  -0.729  13.869  0.00  0.00    +0.000 C 
ATOM      5  C   UNL     1      45.620  -0.603  13.810  0.00  0.00    +0.000 C 
ATOM      6  C   UNL     1      47.158   1.180  14.564  0.00  0.00    +0.000 C 
ATOM      7  C   UNL     1      43.321   2.058  14.662  0.00  0.00    +0.000 C 
ATOM      8  C   UNL     1      46.963  -0.189  14.308  0.00  0.00    +0.000 C 
ATOM      9  C   UNL     1      44.316   0.434  11.969  0.00  0.00    +0.000 C 
ATOM     10  C   UNL     1      42.045   1.280  14.691  0.00  0.00    +0.000 C 
ATOM     11  C   UNL     1      41.917  -0.075  14.320  0.00  0.00    +0.000 C 
ATOM     12  C   UNL     1      45.865   2.838  15.902  0.00  0.00    +0.000 C 
ATOM     13  C   UNL     1      40.778  -0.701  14.621  0.00  0.00    +0.000 C 
ENDROOT
BRANCH   6  14
ATOM     14  O   UNL     1      48.442   1.684  14.668  0.00  0.00    +0.000 OA
ATOM     15  H   UNL     1      48.669   1.932  15.582  0.00  0.00    +0.000 HD
ENDBRANCH   6  14
BRANCH   4  16
ATOM     16  C   UNL     1      43.165  -2.149  13.654  0.00  0.00    +0.000 C 
ATOM     17  C   UNL     1      43.166  -3.662  13.421  0.00  0.00    +0.000 C 
BRANCH  17  20
ATOM     18  O   UNL     1      43.356  -7.208  13.704  0.00  0.00    +0.000 OA
ATOM     19  O   UNL     1      44.138  -5.728  15.328  0.00  0.00    +0.000 OA
ATOM     20  C   UNL     1      43.167  -4.942  13.215  0.00  0.00    +0.000 C 
ATOM     21  C   UNL     1      42.656  -5.650  12.068  0.00  0.00    +0.000 C 
ATOM     22  C   UNL     1      43.629  -5.954  14.244  0.00  0.00    +0.000 C 
ATOM     23  C   UNL     1      42.818  -6.961  12.519  0.00  0.00    +0.000 C 
BRANCH  21  24
ATOM     24  O   UNL     1      41.552  -5.188  11.409  0.00  0.00    +0.000 OA
ATOM     25  H   UNL     1      40.733  -5.377  11.900  0.00  0.00    +0.000 HD
ENDBRANCH  21  24
ENDBRANCH  17  20
ENDBRANCH   4  16
BRANCH   3  26
ATOM     26  C   UNL     1      46.172   3.146  13.428  0.00  0.00    +0.000 C 
BRANCH  26  27
ATOM     27  O   UNL     1      46.388   4.042  12.461  0.00  0.00    +0.000 OA
ATOM     28  H   UNL     1      46.897   3.644  11.732  0.00  0.00    +0.000 HD
ENDBRANCH  26  27
ENDBRANCH   3  26
TORSDOF 6
ENDMDL
MODEL 7
REMARK VINA RESULT:      -6.5      3.794      5.615
REMARK  Name = 5318517_Andrographolide.pdbqt.pdb
REMARK  6 active torsions:
REMARK  status: ('A' for Active; 'I' for Inactive)
REMARK    1  A    between atoms: C_3  and  C_16
REMARK    2  A    between atoms: C_4  and  C_19
REMARK    3  A    between atoms: C_6  and  O_14
REMARK    4  A    between atoms: C_16  and  O_17
REMARK    5  A    between atoms: C_22  and  C_23
REMARK    6  A    between atoms: C_24  and  O_27
REMARK                            x       y       z     vdW  Elec       q    Type
REMARK                         _______ _______ _______ _____ _____    ______ ____
ROOT
ATOM      1  C   UNL     1      45.343  -4.929  11.844  0.00  0.00    +0.000 C 
ATOM      2  C   UNL     1      44.176  -5.373  12.777  0.00  0.00    +0.000 C 
ATOM      3  C   UNL     1      42.744  -5.601  12.261  0.00  0.00    +0.000 C 
ATOM      4  C   UNL     1      46.482  -4.091  12.491  0.00  0.00    +0.000 C 
ATOM      5  C   UNL     1      44.696  -4.158  10.786  0.00  0.00    +0.000 C 
ATOM      6  C   UNL     1      42.328  -4.846  10.963  0.00  0.00    +0.000 C 
ATOM      7  C   UNL     1      44.555  -5.498  14.144  0.00  0.00    +0.000 C 
ATOM      8  C   UNL     1      43.290  -4.063  10.299  0.00  0.00    +0.000 C 
ATOM      9  C   UNL     1      45.985  -6.225  11.261  0.00  0.00    +0.000 C 
ATOM     10  C   UNL     1      45.844  -4.960  14.677  0.00  0.00    +0.000 C 
ATOM     11  C   UNL     1      46.807  -4.267  13.914  0.00  0.00    +0.000 C 
ATOM     12  C   UNL     1      41.749  -5.107  13.373  0.00  0.00    +0.000 C 
ATOM     13  C   UNL     1      47.788  -3.642  14.565  0.00  0.00    +0.000 C 
ENDROOT
BRANCH   6  14
ATOM     14  O   UNL     1      41.108  -5.096  10.358  0.00  0.00    +0.000 OA
ATOM     15  H   UNL     1      41.175  -5.118   9.387  0.00  0.00    +0.000 HD
ENDBRANCH   6  14
BRANCH   4  16
ATOM     16  C   UNL     1      47.303  -3.238  11.679  0.00  0.00    +0.000 C 
ATOM     17  C   UNL     1      48.178  -2.320  10.820  0.00  0.00    +0.000 C 
BRANCH  17  20
ATOM     18  O   UNL     1      49.465   0.119   8.567  0.00  0.00    +0.000 OA
ATOM     19  O   UNL     1      47.240  -0.578   8.598  0.00  0.00    +0.000 OA
ATOM     20  C   UNL     1      48.926  -1.544  10.100  0.00  0.00    +0.000 C 
ATOM     21  C   UNL     1      50.340  -1.305  10.240  0.00  0.00    +0.000 C 
ATOM     22  C   UNL     1      48.385  -0.639   9.011  0.00  0.00    +0.000 C 
ATOM     23  C   UNL     1      50.495  -0.293   9.290  0.00  0.00    +0.000 C 
BRANCH  21  24
ATOM     24  O   UNL     1      50.918  -1.300  11.478  0.00  0.00    +0.000 OA
ATOM     25  H   UNL     1      51.223  -2.187  11.738  0.00  0.00    +0.000 HD
ENDBRANCH  21  24
ENDBRANCH  17  20
ENDBRANCH   4  16
BRANCH   3  26
ATOM     26  C   UNL     1      42.575  -7.064  12.032  0.00  0.00    +0.000 C 
BRANCH  26  27
ATOM     27  O   UNL     1      42.434  -8.377  11.824  0.00  0.00    +0.000 OA
ATOM     28  H   UNL     1      42.992  -8.883  12.442  0.00  0.00    +0.000 HD
ENDBRANCH  26  27
ENDBRANCH   3  26
TORSDOF 6
ENDMDL
MODEL 8
REMARK VINA RESULT:      -6.5      3.612      6.585
REMARK  Name = 5318517_Andrographolide.pdbqt.pdb
REMARK  6 active torsions:
REMARK  status: ('A' for Active; 'I' for Inactive)
REMARK    1  A    between atoms: C_3  and  C_16
REMARK    2  A    between atoms: C_4  and  C_19
REMARK    3  A    between atoms: C_6  and  O_14
REMARK    4  A    between atoms: C_16  and  O_17
REMARK    5  A    between atoms: C_22  and  C_23
REMARK    6  A    between atoms: C_24  and  O_27
REMARK                            x       y       z     vdW  Elec       q    Type
REMARK                         _______ _______ _______ _____ _____    ______ ____
ROOT
ATOM      1  C   UNL     1      45.803  -5.058  11.770  0.00  0.00    +0.000 C 
ATOM      2  C   UNL     1      44.710  -5.984  11.155  0.00  0.00    +0.000 C 
ATOM      3  C   UNL     1      43.250  -5.978  11.640  0.00  0.00    +0.000 C 
ATOM      4  C   UNL     1      47.267  -5.581  11.741  0.00  0.00    +0.000 C 
ATOM      5  C   UNL     1      45.375  -4.850  13.151  0.00  0.00    +0.000 C 
ATOM      6  C   UNL     1      42.987  -5.490  13.097  0.00  0.00    +0.000 C 
ATOM      7  C   UNL     1      45.205  -6.858  10.146  0.00  0.00    +0.000 C 
ATOM      8  C   UNL     1      44.073  -5.020  13.858  0.00  0.00    +0.000 C 
ATOM      9  C   UNL     1      45.767  -3.716  10.978  0.00  0.00    +0.000 C 
ATOM     10  C   UNL     1      46.666  -7.086   9.920  0.00  0.00    +0.000 C 
ATOM     11  C   UNL     1      47.701  -6.492  10.672  0.00  0.00    +0.000 C 
ATOM     12  C   UNL     1      42.720  -7.457  11.590  0.00  0.00    +0.000 C 
ATOM     13  C   UNL     1      48.937  -6.968  10.518  0.00  0.00    +0.000 C 
ENDROOT
BRANCH   6  14
ATOM     14  O   UNL     1      41.696  -5.326  13.568  0.00  0.00    +0.000 OA
ATOM     15  H   UNL     1      41.653  -4.716  14.325  0.00  0.00    +0.000 HD
ENDBRANCH   6  14
BRANCH   4  16
ATOM     16  C   UNL     1      48.232  -5.081  12.679  0.00  0.00    +0.000 C 
ATOM     17  C   UNL     1      49.270  -4.554  13.675  0.00  0.00    +0.000 C 
BRANCH  17  20
ATOM     18  O   UNL     1      51.451  -2.548  15.650  0.00  0.00    +0.000 OA
ATOM     19  O   UNL     1      50.309  -1.768  13.772  0.00  0.00    +0.000 OA
ATOM     20  C   UNL     1      50.152  -4.105  14.510  0.00  0.00    +0.000 C 
ATOM     21  C   UNL     1      50.778  -4.815  15.597  0.00  0.00    +0.000 C 
ATOM     22  C   UNL     1      50.610  -2.660  14.546  0.00  0.00    +0.000 C 
ATOM     23  C   UNL     1      51.488  -3.762  16.179  0.00  0.00    +0.000 C 
BRANCH  21  24
ATOM     24  O   UNL     1      50.079  -5.757  16.297  0.00  0.00    +0.000 OA
ATOM     25  H   UNL     1      50.466  -6.644  16.195  0.00  0.00    +0.000 HD
ENDBRANCH  21  24
ENDBRANCH  17  20
ENDBRANCH   4  16
BRANCH   3  26
ATOM     26  C   UNL     1      42.467  -5.119  10.706  0.00  0.00    +0.000 C 
BRANCH  26  27
ATOM     27  O   UNL     1      41.773  -4.339   9.872  0.00  0.00    +0.000 OA
ATOM     28  H   UNL     1      41.519  -4.834   9.072  0.00  0.00    +0.000 HD
ENDBRANCH  26  27
ENDBRANCH   3  26
TORSDOF 6
ENDMDL
MODEL 9
REMARK VINA RESULT:      -5.9      3.463      6.208
REMARK  Name = 5318517_Andrographolide.pdbqt.pdb
REMARK  6 active torsions:
REMARK  status: ('A' for Active; 'I' for Inactive)
REMARK    1  A    between atoms: C_3  and  C_16
REMARK    2  A    between atoms: C_4  and  C_19
REMARK    3  A    between atoms: C_6  and  O_14
REMARK    4  A    between atoms: C_16  and  O_17
REMARK    5  A    between atoms: C_22  and  C_23
REMARK    6  A    between atoms: C_24  and  O_27
REMARK                            x       y       z     vdW  Elec       q    Type
REMARK                         _______ _______ _______ _____ _____    ______ ____
ROOT
ATOM      1  C   UNL     1      48.772  -5.332  10.362  0.00  0.00    +0.000 C 
ATOM      2  C   UNL     1      50.246  -5.383   9.860  0.00  0.00    +0.000 C 
ATOM      3  C   UNL     1      51.119  -4.123   9.723  0.00  0.00    +0.000 C 
ATOM      4  C   UNL     1      47.809  -6.433   9.834  0.00  0.00    +0.000 C 
ATOM      5  C   UNL     1      48.290  -4.014   9.958  0.00  0.00    +0.000 C 
ATOM      6  C   UNL     1      50.380  -2.764   9.528  0.00  0.00    +0.000 C 
ATOM      7  C   UNL     1      50.681  -6.690   9.500  0.00  0.00    +0.000 C 
ATOM      8  C   UNL     1      48.973  -2.751   9.557  0.00  0.00    +0.000 C 
ATOM      9  C   UNL     1      48.811  -5.447  11.917  0.00  0.00    +0.000 C 
ATOM     10  C   UNL     1      49.736  -7.835   9.323  0.00  0.00    +0.000 C 
ATOM     11  C   UNL     1      48.336  -7.757   9.470  0.00  0.00    +0.000 C 
ATOM     12  C   UNL     1      52.020  -4.298   8.447  0.00  0.00    +0.000 C 
ATOM     13  C   UNL     1      47.604  -8.791   9.051  0.00  0.00    +0.000 C 
ENDROOT
BRANCH   6  14
ATOM     14  O   UNL     1      51.080  -1.570   9.530  0.00  0.00    +0.000 OA
ATOM     15  H   UNL     1      50.676  -0.907  10.117  0.00  0.00    +0.000 HD
ENDBRANCH   6  14
BRANCH   4  16
ATOM     16  C   UNL     1      46.391  -6.208   9.819  0.00  0.00    +0.000 C 
ATOM     17  C   UNL     1      44.880  -5.958   9.810  0.00  0.00    +0.000 C 
BRANCH  17  20
ATOM     18  O   UNL     1      41.609  -4.572  10.057  0.00  0.00    +0.000 OA
ATOM     19  O   UNL     1      43.507  -3.609  11.012  0.00  0.00    +0.000 OA
ATOM     20  C   UNL     1      43.603  -5.740   9.796  0.00  0.00    +0.000 C 
ATOM     21  C   UNL     1      42.581  -6.533   9.160  0.00  0.00    +0.000 C 
ATOM     22  C   UNL     1      42.961  -4.498  10.382  0.00  0.00    +0.000 C 
ATOM     23  C   UNL     1      41.479  -5.705   9.383  0.00  0.00    +0.000 C 
BRANCH  21  24
ATOM     24  O   UNL     1      42.840  -7.176   7.983  0.00  0.00    +0.000 OA
ATOM     25  H   UNL     1      42.090  -7.118   7.366  0.00  0.00    +0.000 HD
ENDBRANCH  21  24
ENDBRANCH  17  20
ENDBRANCH   4  16
BRANCH   3  26
ATOM     26  C   UNL     1      51.968  -4.027  10.944  0.00  0.00    +0.000 C 
BRANCH  26  27
ATOM     27  O   UNL     1      52.720  -3.938  12.045  0.00  0.00    +0.000 OA
ATOM     28  H   UNL     1      52.241  -3.464  12.750  0.00  0.00    +0.000 HD
ENDBRANCH  26  27
ENDBRANCH   3  26
TORSDOF 6
ENDMDL
