MODEL 1
REMARK VINA RESULT:      -8.0      0.000      0.000
REMARK  Name = 5326018_Caulerpin.pdbqt.pdb
REMARK  4 active torsions:
REMARK  status: ('A' for Active; 'I' for Inactive)
REMARK    1  A    between atoms: C_11  and  C_26
REMARK    2  A    between atoms: C_12  and  C_30
REMARK    3  A    between atoms: C_26  and  O_27
REMARK    4  A    between atoms: C_30  and  O_31
REMARK                            x       y       z     vdW  Elec       q    Type
REMARK                         _______ _______ _______ _____ _____    ______ ____
ROOT
ATOM      1  N   UNL     1      43.041  -2.841  11.229  0.00  0.00    +0.000 N 
ATOM      2  N   UNL     1      47.655  -7.136   9.509  0.00  0.00    +0.000 N 
ATOM      3  C   UNL     1      45.088  -3.621  11.567  0.00  0.00    +0.000 C 
ATOM      4  C   UNL     1      45.507  -6.588   9.482  0.00  0.00    +0.000 C 
ATOM      5  C   UNL     1      43.848  -3.939  11.017  0.00  0.00    +0.000 C 
ATOM      6  C   UNL     1      46.711  -6.351  10.139  0.00  0.00    +0.000 C 
ATOM      7  C   UNL     1      45.010  -2.345  12.174  0.00  0.00    +0.000 A 
ATOM      8  C   UNL     1      45.710  -7.574   8.486  0.00  0.00    +0.000 A 
ATOM      9  C   UNL     1      43.714  -1.879  11.953  0.00  0.00    +0.000 A 
ATOM     10  C   UNL     1      47.065  -7.904   8.527  0.00  0.00    +0.000 A 
ATOM     11  C   UNL     1      43.386  -5.086  10.281  0.00  0.00    +0.000 C 
ATOM     12  C   UNL     1      47.068  -5.448  11.202  0.00  0.00    +0.000 C 
ATOM     13  C   UNL     1      44.300  -5.889   9.800  0.00  0.00    +0.000 C 
ATOM     14  C   UNL     1      46.222  -4.487  11.472  0.00  0.00    +0.000 C 
ATOM     15  C   UNL     1      45.915  -1.528  12.876  0.00  0.00    +0.000 A 
ATOM     16  C   UNL     1      44.885  -8.210   7.541  0.00  0.00    +0.000 A 
ATOM     17  C   UNL     1      43.271  -0.631  12.404  0.00  0.00    +0.000 A 
ATOM     18  C   UNL     1      47.641  -8.847   7.669  0.00  0.00    +0.000 A 
ATOM     19  C   UNL     1      45.487  -0.281  13.339  0.00  0.00    +0.000 A 
ATOM     20  C   UNL     1      45.442  -9.157   6.680  0.00  0.00    +0.000 A 
ATOM     21  C   UNL     1      44.187   0.155  13.106  0.00  0.00    +0.000 A 
ATOM     22  C   UNL     1      46.796  -9.469   6.747  0.00  0.00    +0.000 A 
ATOM     23  H   UNL     1      42.090  -2.718  10.906  0.00  0.00    +0.000 HD
ATOM     24  H   UNL     1      48.648  -7.163   9.703  0.00  0.00    +0.000 HD
ENDROOT
BRANCH  11  26
ATOM     25  O   UNL     1      41.074  -4.737   9.774  0.00  0.00    +0.000 OA
ATOM     26  C   UNL     1      41.961  -5.502  10.133  0.00  0.00    +0.000 C 
BRANCH  26  27
ATOM     27  O   UNL     1      41.857  -6.829  10.434  0.00  0.00    +0.000 OA
ATOM     28  C   UNL     1      41.509  -7.186  11.746  0.00  0.00    +0.000 C 
ENDBRANCH  26  27
ENDBRANCH  11  26
BRANCH  12  30
ATOM     29  O   UNL     1      49.337  -6.009  11.717  0.00  0.00    +0.000 OA
ATOM     30  C   UNL     1      48.250  -5.595  12.101  0.00  0.00    +0.000 C 
BRANCH  30  31
ATOM     31  O   UNL     1      47.904  -5.176  13.353  0.00  0.00    +0.000 OA
ATOM     32  C   UNL     1      48.813  -4.370  14.058  0.00  0.00    +0.000 C 
ENDBRANCH  30  31
ENDBRANCH  12  30
TORSDOF 4
ENDMDL
MODEL 2
REMARK VINA RESULT:      -8.0      3.442      7.686
REMARK  Name = 5326018_Caulerpin.pdbqt.pdb
REMARK  4 active torsions:
REMARK  status: ('A' for Active; 'I' for Inactive)
REMARK    1  A    between atoms: C_11  and  C_26
REMARK    2  A    between atoms: C_12  and  C_30
REMARK    3  A    between atoms: C_26  and  O_27
REMARK    4  A    between atoms: C_30  and  O_31
REMARK                            x       y       z     vdW  Elec       q    Type
REMARK                         _______ _______ _______ _____ _____    ______ ____
ROOT
ATOM      1  N   UNL     1      42.920  -3.706  13.068  0.00  0.00    +0.000 N 
ATOM      2  N   UNL     1      47.265   0.928  11.542  0.00  0.00    +0.000 N 
ATOM      3  C   UNL     1      44.538  -3.035  11.710  0.00  0.00    +0.000 C 
ATOM      4  C   UNL     1      45.401   0.395  12.616  0.00  0.00    +0.000 C 
ATOM      5  C   UNL     1      43.601  -2.586  12.639  0.00  0.00    +0.000 C 
ATOM      6  C   UNL     1      46.251  -0.006  11.589  0.00  0.00    +0.000 C 
ATOM      7  C   UNL     1      44.376  -4.429  11.529  0.00  0.00    +0.000 A 
ATOM      8  C   UNL     1      45.869   1.618  13.153  0.00  0.00    +0.000 A 
ATOM      9  C   UNL     1      43.352  -4.825  12.389  0.00  0.00    +0.000 A 
ATOM     10  C   UNL     1      47.037   1.934  12.459  0.00  0.00    +0.000 A 
ATOM     11  C   UNL     1      43.342  -1.284  13.194  0.00  0.00    +0.000 C 
ATOM     12  C   UNL     1      46.252  -1.164  10.734  0.00  0.00    +0.000 C 
ATOM     13  C   UNL     1      44.265  -0.373  13.025  0.00  0.00    +0.000 C 
ATOM     14  C   UNL     1      45.495  -2.168  11.096  0.00  0.00    +0.000 C 
ATOM     15  C   UNL     1      45.010  -5.402  10.734  0.00  0.00    +0.000 A 
ATOM     16  C   UNL     1      45.429   2.484  14.172  0.00  0.00    +0.000 A 
ATOM     17  C   UNL     1      42.921  -6.152  12.493  0.00  0.00    +0.000 A 
ATOM     18  C   UNL     1      47.792   3.080  12.729  0.00  0.00    +0.000 A 
ATOM     19  C   UNL     1      44.587  -6.730  10.821  0.00  0.00    +0.000 A 
ATOM     20  C   UNL     1      46.167   3.635  14.450  0.00  0.00    +0.000 A 
ATOM     21  C   UNL     1      43.560  -7.095  11.685  0.00  0.00    +0.000 A 
ATOM     22  C   UNL     1      47.327   3.926  13.738  0.00  0.00    +0.000 A 
ATOM     23  H   UNL     1      42.206  -3.742  13.786  0.00  0.00    +0.000 HD
ATOM     24  H   UNL     1      48.081   0.908  10.944  0.00  0.00    +0.000 HD
ENDROOT
BRANCH  11  26
ATOM     25  O   UNL     1      41.226  -1.642  14.253  0.00  0.00    +0.000 OA
ATOM     26  C   UNL     1      42.062  -0.854  13.828  0.00  0.00    +0.000 C 
BRANCH  26  27
ATOM     27  O   UNL     1      42.023   0.510  13.859  0.00  0.00    +0.000 OA
ATOM     28  C   UNL     1      41.707   1.138  15.073  0.00  0.00    +0.000 C 
ENDBRANCH  26  27
ENDBRANCH  11  26
BRANCH  12  30
ATOM     29  O   UNL     1      47.190  -0.288   8.714  0.00  0.00    +0.000 OA
ATOM     30  C   UNL     1      46.936  -1.263   9.412  0.00  0.00    +0.000 C 
BRANCH  30  31
ATOM     31  O   UNL     1      47.227  -2.573   9.165  0.00  0.00    +0.000 OA
ATOM     32  C   UNL     1      48.577  -2.955   9.114  0.00  0.00    +0.000 C 
ENDBRANCH  30  31
ENDBRANCH  12  30
TORSDOF 4
ENDMDL
MODEL 3
REMARK VINA RESULT:      -7.6      2.760      6.582
REMARK  Name = 5326018_Caulerpin.pdbqt.pdb
REMARK  4 active torsions:
REMARK  status: ('A' for Active; 'I' for Inactive)
REMARK    1  A    between atoms: C_11  and  C_26
REMARK    2  A    between atoms: C_12  and  C_30
REMARK    3  A    between atoms: C_26  and  O_27
REMARK    4  A    between atoms: C_30  and  O_31
REMARK                            x       y       z     vdW  Elec       q    Type
REMARK                         _______ _______ _______ _____ _____    ______ ____
ROOT
ATOM      1  N   UNL     1      48.261  -8.920   8.196  0.00  0.00    +0.000 N 
ATOM      2  N   UNL     1      45.275  -5.382  12.806  0.00  0.00    +0.000 N 
ATOM      3  C   UNL     1      48.452  -7.429   9.825  0.00  0.00    +0.000 C 
ATOM      4  C   UNL     1      45.086  -6.555  10.934  0.00  0.00    +0.000 C 
ATOM      5  C   UNL     1      47.544  -8.007   8.941  0.00  0.00    +0.000 C 
ATOM      6  C   UNL     1      45.995  -5.866  11.733  0.00  0.00    +0.000 C 
ATOM      7  C   UNL     1      49.743  -7.950   9.567  0.00  0.00    +0.000 A 
ATOM      8  C   UNL     1      43.792  -6.432  11.495  0.00  0.00    +0.000 A 
ATOM      9  C   UNL     1      49.596  -8.880   8.538  0.00  0.00    +0.000 A 
ATOM     10  C   UNL     1      43.937  -5.688  12.665  0.00  0.00    +0.000 A 
ATOM     11  C   UNL     1      46.122  -7.852   8.781  0.00  0.00    +0.000 C 
ATOM     12  C   UNL     1      47.420  -5.686  11.638  0.00  0.00    +0.000 C 
ATOM     13  C   UNL     1      45.476  -7.272   9.760  0.00  0.00    +0.000 C 
ATOM     14  C   UNL     1      48.064  -6.483  10.824  0.00  0.00    +0.000 C 
ATOM     15  C   UNL     1      51.021  -7.740  10.116  0.00  0.00    +0.000 A 
ATOM     16  C   UNL     1      42.511  -6.891  11.137  0.00  0.00    +0.000 A 
ATOM     17  C   UNL     1      50.670  -9.613   8.021  0.00  0.00    +0.000 A 
ATOM     18  C   UNL     1      42.860  -5.373  13.501  0.00  0.00    +0.000 A 
ATOM     19  C   UNL     1      52.105  -8.459   9.608  0.00  0.00    +0.000 A 
ATOM     20  C   UNL     1      41.424  -6.581  11.956  0.00  0.00    +0.000 A 
ATOM     21  C   UNL     1      51.929  -9.378   8.579  0.00  0.00    +0.000 A 
ATOM     22  C   UNL     1      41.599  -5.834  13.116  0.00  0.00    +0.000 A 
ATOM     23  H   UNL     1      47.893  -9.554   7.498  0.00  0.00    +0.000 HD
ATOM     24  H   UNL     1      45.641  -4.881  13.605  0.00  0.00    +0.000 HD
ENDROOT
BRANCH  11  26
ATOM     25  O   UNL     1      44.146  -8.406   7.550  0.00  0.00    +0.000 OA
ATOM     26  C   UNL     1      45.350  -8.177   7.547  0.00  0.00    +0.000 C 
BRANCH  26  27
ATOM     27  O   UNL     1      46.197  -8.146   6.478  0.00  0.00    +0.000 OA
ATOM     28  C   UNL     1      46.193  -9.237   5.596  0.00  0.00    +0.000 C 
ENDBRANCH  26  27
ENDBRANCH  11  26
BRANCH  12  30
ATOM     29  O   UNL     1      48.259  -3.453  11.832  0.00  0.00    +0.000 OA
ATOM     30  C   UNL     1      48.199  -4.590  12.285  0.00  0.00    +0.000 C 
BRANCH  30  31
ATOM     31  O   UNL     1      48.773  -5.073  13.424  0.00  0.00    +0.000 OA
ATOM     32  C   UNL     1      48.356  -4.541  14.654  0.00  0.00    +0.000 C 
ENDBRANCH  30  31
ENDBRANCH  12  30
TORSDOF 4
ENDMDL
MODEL 4
REMARK VINA RESULT:      -7.3     35.540     37.367
REMARK  Name = 5326018_Caulerpin.pdbqt.pdb
REMARK  4 active torsions:
REMARK  status: ('A' for Active; 'I' for Inactive)
REMARK    1  A    between atoms: C_11  and  C_26
REMARK    2  A    between atoms: C_12  and  C_30
REMARK    3  A    between atoms: C_26  and  O_27
REMARK    4  A    between atoms: C_30  and  O_31
REMARK                            x       y       z     vdW  Elec       q    Type
REMARK                         _______ _______ _______ _____ _____    ______ ____
ROOT
ATOM      1  N   UNL     1      23.721  22.462  -2.203  0.00  0.00    +0.000 N 
ATOM      2  N   UNL     1      22.675  23.119   4.213  0.00  0.00    +0.000 N 
ATOM      3  C   UNL     1      22.830  21.617  -0.358  0.00  0.00    +0.000 C 
ATOM      4  C   UNL     1      23.870  23.714   2.443  0.00  0.00    +0.000 C 
ATOM      5  C   UNL     1      23.784  22.519  -0.826  0.00  0.00    +0.000 C 
ATOM      6  C   UNL     1      23.023  22.726   2.937  0.00  0.00    +0.000 C 
ATOM      7  C   UNL     1      22.233  20.962  -1.462  0.00  0.00    +0.000 A 
ATOM      8  C   UNL     1      24.088  24.682   3.453  0.00  0.00    +0.000 A 
ATOM      9  C   UNL     1      22.813  21.507  -2.607  0.00  0.00    +0.000 A 
ATOM     10  C   UNL     1      23.332  24.283   4.554  0.00  0.00    +0.000 A 
ATOM     11  C   UNL     1      24.654  23.440  -0.145  0.00  0.00    +0.000 C 
ATOM     12  C   UNL     1      22.471  21.540   2.335  0.00  0.00    +0.000 C 
ATOM     13  C   UNL     1      24.380  23.700   1.107  0.00  0.00    +0.000 C 
ATOM     14  C   UNL     1      22.539  21.450   1.032  0.00  0.00    +0.000 C 
ATOM     15  C   UNL     1      21.244  19.972  -1.606  0.00  0.00    +0.000 A 
ATOM     16  C   UNL     1      24.840  25.869   3.540  0.00  0.00    +0.000 A 
ATOM     17  C   UNL     1      22.456  21.108  -3.900  0.00  0.00    +0.000 A 
ATOM     18  C   UNL     1      23.290  25.011   5.749  0.00  0.00    +0.000 A 
ATOM     19  C   UNL     1      20.880  19.558  -2.890  0.00  0.00    +0.000 A 
ATOM     20  C   UNL     1      24.814  26.604   4.726  0.00  0.00    +0.000 A 
ATOM     21  C   UNL     1      21.478  20.118  -4.014  0.00  0.00    +0.000 A 
ATOM     22  C   UNL     1      24.053  26.179   5.809  0.00  0.00    +0.000 A 
ATOM     23  H   UNL     1      24.244  23.033  -2.856  0.00  0.00    +0.000 HD
ATOM     24  H   UNL     1      22.026  22.653   4.835  0.00  0.00    +0.000 HD
ENDROOT
BRANCH  11  26
ATOM     25  O   UNL     1      26.261  25.175  -0.511  0.00  0.00    +0.000 OA
ATOM     26  C   UNL     1      25.910  24.018  -0.706  0.00  0.00    +0.000 C 
BRANCH  26  27
ATOM     27  O   UNL     1      26.560  23.051  -1.416  0.00  0.00    +0.000 OA
ATOM     28  C   UNL     1      27.891  23.286  -1.794  0.00  0.00    +0.000 C 
ENDBRANCH  26  27
ENDBRANCH  11  26
BRANCH  12  30
ATOM     29  O   UNL     1      22.355  19.215   2.892  0.00  0.00    +0.000 OA
ATOM     30  C   UNL     1      21.949  20.356   3.078  0.00  0.00    +0.000 C 
BRANCH  30  31
ATOM     31  O   UNL     1      21.005  20.778   3.969  0.00  0.00    +0.000 OA
ATOM     32  C   UNL     1      19.693  20.965   3.507  0.00  0.00    +0.000 C 
ENDBRANCH  30  31
ENDBRANCH  12  30
TORSDOF 4
ENDMDL
MODEL 5
REMARK VINA RESULT:      -7.3     35.532     36.819
REMARK  Name = 5326018_Caulerpin.pdbqt.pdb
REMARK  4 active torsions:
REMARK  status: ('A' for Active; 'I' for Inactive)
REMARK    1  A    between atoms: C_11  and  C_26
REMARK    2  A    between atoms: C_12  and  C_30
REMARK    3  A    between atoms: C_26  and  O_27
REMARK    4  A    between atoms: C_30  and  O_31
REMARK                            x       y       z     vdW  Elec       q    Type
REMARK                         _______ _______ _______ _____ _____    ______ ____
ROOT
ATOM      1  N   UNL     1      22.670  23.040   4.199  0.00  0.00    +0.000 N 
ATOM      2  N   UNL     1      23.685  22.455  -2.229  0.00  0.00    +0.000 N 
ATOM      3  C   UNL     1      23.855  23.656   2.430  0.00  0.00    +0.000 C 
ATOM      4  C   UNL     1      22.804  21.588  -0.389  0.00  0.00    +0.000 C 
ATOM      5  C   UNL     1      23.011  22.660   2.917  0.00  0.00    +0.000 C 
ATOM      6  C   UNL     1      23.753  22.495  -0.852  0.00  0.00    +0.000 C 
ATOM      7  C   UNL     1      24.079  24.611   3.449  0.00  0.00    +0.000 A 
ATOM      8  C   UNL     1      22.201  20.945  -1.497  0.00  0.00    +0.000 A 
ATOM      9  C   UNL     1      23.328  24.199   4.550  0.00  0.00    +0.000 A 
ATOM     10  C   UNL     1      22.775  21.503  -2.639  0.00  0.00    +0.000 A 
ATOM     11  C   UNL     1      22.457  21.481   2.305  0.00  0.00    +0.000 C 
ATOM     12  C   UNL     1      24.627  23.410  -0.165  0.00  0.00    +0.000 C 
ATOM     13  C   UNL     1      22.520  21.406   1.000  0.00  0.00    +0.000 C 
ATOM     14  C   UNL     1      24.358  23.656   1.091  0.00  0.00    +0.000 C 
ATOM     15  C   UNL     1      24.830  25.797   3.544  0.00  0.00    +0.000 A 
ATOM     16  C   UNL     1      21.212  19.956  -1.649  0.00  0.00    +0.000 A 
ATOM     17  C   UNL     1      23.292  24.914   5.752  0.00  0.00    +0.000 A 
ATOM     18  C   UNL     1      22.412  21.119  -3.935  0.00  0.00    +0.000 A 
ATOM     19  C   UNL     1      24.810  26.520   4.739  0.00  0.00    +0.000 A 
ATOM     20  C   UNL     1      20.842  19.556  -2.934  0.00  0.00    +0.000 A 
ATOM     21  C   UNL     1      24.054  26.083   5.822  0.00  0.00    +0.000 A 
ATOM     22  C   UNL     1      21.435  20.128  -4.055  0.00  0.00    +0.000 A 
ATOM     23  H   UNL     1      22.025  22.567   4.818  0.00  0.00    +0.000 HD
ATOM     24  H   UNL     1      24.204  23.032  -2.879  0.00  0.00    +0.000 HD
ENDROOT
BRANCH  11  26
ATOM     25  O   UNL     1      22.384  19.159   2.876  0.00  0.00    +0.000 OA
ATOM     26  C   UNL     1      21.939  20.289   3.037  0.00  0.00    +0.000 C 
BRANCH  26  27
ATOM     27  O   UNL     1      20.950  20.690   3.887  0.00  0.00    +0.000 OA
ATOM     28  C   UNL     1      19.644  20.789   3.386  0.00  0.00    +0.000 C 
ENDBRANCH  26  27
ENDBRANCH  11  26
BRANCH  12  30
ATOM     29  O   UNL     1      26.228  25.153  -0.526  0.00  0.00    +0.000 OA
ATOM     30  C   UNL     1      25.880  23.995  -0.726  0.00  0.00    +0.000 C 
BRANCH  30  31
ATOM     31  O   UNL     1      26.532  23.033  -1.442  0.00  0.00    +0.000 OA
ATOM     32  C   UNL     1      27.675  23.405  -2.166  0.00  0.00    +0.000 C 
ENDBRANCH  30  31
ENDBRANCH  12  30
TORSDOF 4
ENDMDL
MODEL 6
REMARK VINA RESULT:      -7.0      3.605      6.643
REMARK  Name = 5326018_Caulerpin.pdbqt.pdb
REMARK  4 active torsions:
REMARK  status: ('A' for Active; 'I' for Inactive)
REMARK    1  A    between atoms: C_11  and  C_26
REMARK    2  A    between atoms: C_12  and  C_30
REMARK    3  A    between atoms: C_26  and  O_27
REMARK    4  A    between atoms: C_30  and  O_31
REMARK                            x       y       z     vdW  Elec       q    Type
REMARK                         _______ _______ _______ _____ _____    ______ ____
ROOT
ATOM      1  N   UNL     1      49.283  -4.610   9.266  0.00  0.00    +0.000 N 
ATOM      2  N   UNL     1      44.693  -1.716  12.906  0.00  0.00    +0.000 N 
ATOM      3  C   UNL     1      48.436  -2.717  10.048  0.00  0.00    +0.000 C 
ATOM      4  C   UNL     1      45.332  -3.523  11.793  0.00  0.00    +0.000 C 
ATOM      5  C   UNL     1      48.139  -4.056   9.803  0.00  0.00    +0.000 C 
ATOM      6  C   UNL     1      45.555  -2.155  11.922  0.00  0.00    +0.000 C 
ATOM      7  C   UNL     1      49.748  -2.444   9.595  0.00  0.00    +0.000 A 
ATOM      8  C   UNL     1      44.279  -3.904  12.660  0.00  0.00    +0.000 A 
ATOM      9  C   UNL     1      50.256  -3.647   9.104  0.00  0.00    +0.000 A 
ATOM     10  C   UNL     1      43.893  -2.751  13.342  0.00  0.00    +0.000 A 
ATOM     11  C   UNL     1      46.971  -4.850  10.077  0.00  0.00    +0.000 C 
ATOM     12  C   UNL     1      46.504  -1.270  11.300  0.00  0.00    +0.000 C 
ATOM     13  C   UNL     1      46.101  -4.354  10.918  0.00  0.00    +0.000 C 
ATOM     14  C   UNL     1      47.516  -1.825  10.684  0.00  0.00    +0.000 C 
ATOM     15  C   UNL     1      50.566  -1.300   9.567  0.00  0.00    +0.000 A 
ATOM     16  C   UNL     1      43.624  -5.115  12.947  0.00  0.00    +0.000 A 
ATOM     17  C   UNL     1      51.547  -3.766   8.579  0.00  0.00    +0.000 A 
ATOM     18  C   UNL     1      42.875  -2.745  14.303  0.00  0.00    +0.000 A 
ATOM     19  C   UNL     1      51.856  -1.399   9.040  0.00  0.00    +0.000 A 
ATOM     20  C   UNL     1      42.602  -5.126  13.898  0.00  0.00    +0.000 A 
ATOM     21  C   UNL     1      52.334  -2.612   8.555  0.00  0.00    +0.000 A 
ATOM     22  C   UNL     1      42.236  -3.959  14.561  0.00  0.00    +0.000 A 
ATOM     23  H   UNL     1      49.428  -5.582   9.023  0.00  0.00    +0.000 HD
ATOM     24  H   UNL     1      44.634  -0.779  13.287  0.00  0.00    +0.000 HD
ENDROOT
BRANCH  11  26
ATOM     25  O   UNL     1      45.632  -6.236   8.659  0.00  0.00    +0.000 OA
ATOM     26  C   UNL     1      46.610  -6.123   9.388  0.00  0.00    +0.000 C 
BRANCH  26  27
ATOM     27  O   UNL     1      47.544  -7.070   9.696  0.00  0.00    +0.000 OA
ATOM     28  C   UNL     1      47.778  -8.096   8.769  0.00  0.00    +0.000 C 
ENDBRANCH  26  27
ENDBRANCH  11  26
BRANCH  12  30
ATOM     29  O   UNL     1      45.287   0.791  11.293  0.00  0.00    +0.000 OA
ATOM     30  C   UNL     1      46.361   0.211  11.188  0.00  0.00    +0.000 C 
BRANCH  30  31
ATOM     31  O   UNL     1      47.595   0.758  10.982  0.00  0.00    +0.000 OA
ATOM     32  C   UNL     1      47.795   2.098  11.345  0.00  0.00    +0.000 C 
ENDBRANCH  30  31
ENDBRANCH  12  30
TORSDOF 4
ENDMDL
MODEL 7
REMARK VINA RESULT:      -7.0     35.131     38.671
REMARK  Name = 5326018_Caulerpin.pdbqt.pdb
REMARK  4 active torsions:
REMARK  status: ('A' for Active; 'I' for Inactive)
REMARK    1  A    between atoms: C_11  and  C_26
REMARK    2  A    between atoms: C_12  and  C_30
REMARK    3  A    between atoms: C_26  and  O_27
REMARK    4  A    between atoms: C_30  and  O_31
REMARK                            x       y       z     vdW  Elec       q    Type
REMARK                         _______ _______ _______ _____ _____    ______ ____
ROOT
ATOM      1  N   UNL     1      13.825   9.964  28.799  0.00  0.00    +0.000 N 
ATOM      2  N   UNL     1      13.270   3.457  28.596  0.00  0.00    +0.000 N 
ATOM      3  C   UNL     1      12.810   8.149  29.568  0.00  0.00    +0.000 C 
ATOM      4  C   UNL     1      13.964   5.306  27.590  0.00  0.00    +0.000 C 
ATOM      5  C   UNL     1      13.563   8.642  28.504  0.00  0.00    +0.000 C 
ATOM      6  C   UNL     1      13.100   4.826  28.571  0.00  0.00    +0.000 C 
ATOM      7  C   UNL     1      12.560   9.201  30.482  0.00  0.00    +0.000 A 
ATOM      8  C   UNL     1      14.615   4.212  26.972  0.00  0.00    +0.000 A 
ATOM      9  C   UNL     1      13.203  10.329  29.974  0.00  0.00    +0.000 A 
ATOM     10  C   UNL     1      14.159   3.063  27.617  0.00  0.00    +0.000 A 
ATOM     11  C   UNL     1      14.100   8.009  27.329  0.00  0.00    +0.000 C 
ATOM     12  C   UNL     1      12.225   5.496  29.497  0.00  0.00    +0.000 C 
ATOM     13  C   UNL     1      14.132   6.701  27.323  0.00  0.00    +0.000 C 
ATOM     14  C   UNL     1      12.411   6.780  29.664  0.00  0.00    +0.000 C 
ATOM     15  C   UNL     1      11.866   9.305  31.702  0.00  0.00    +0.000 A 
ATOM     16  C   UNL     1      15.560   4.079  25.938  0.00  0.00    +0.000 A 
ATOM     17  C   UNL     1      13.185  11.568  30.624  0.00  0.00    +0.000 A 
ATOM     18  C   UNL     1      14.598   1.779  27.279  0.00  0.00    +0.000 A 
ATOM     19  C   UNL     1      11.833  10.536  32.361  0.00  0.00    +0.000 A 
ATOM     20  C   UNL     1      16.005   2.805  25.583  0.00  0.00    +0.000 A 
ATOM     21  C   UNL     1      12.481  11.645  31.828  0.00  0.00    +0.000 A 
ATOM     22  C   UNL     1      15.529   1.676  26.243  0.00  0.00    +0.000 A 
ATOM     23  H   UNL     1      14.396  10.602  28.260  0.00  0.00    +0.000 HD
ATOM     24  H   UNL     1      12.832   2.803  29.234  0.00  0.00    +0.000 HD
ENDROOT
BRANCH  11  26
ATOM     25  O   UNL     1      14.344   9.914  25.901  0.00  0.00    +0.000 OA
ATOM     26  C   UNL     1      14.499   8.711  26.074  0.00  0.00    +0.000 C 
BRANCH  26  27
ATOM     27  O   UNL     1      15.059   7.804  25.222  0.00  0.00    +0.000 OA
ATOM     28  C   UNL     1      16.456   7.685  25.204  0.00  0.00    +0.000 C 
ENDBRANCH  26  27
ENDBRANCH  11  26
BRANCH  12  30
ATOM     29  O   UNL     1      10.746   3.697  30.052  0.00  0.00    +0.000 OA
ATOM     30  C   UNL     1      11.050   4.878  30.178  0.00  0.00    +0.000 C 
BRANCH  30  31
ATOM     31  O   UNL     1      10.435   5.827  30.941  0.00  0.00    +0.000 OA
ATOM     32  C   UNL     1       9.044   5.975  30.823  0.00  0.00    +0.000 C 
ENDBRANCH  30  31
ENDBRANCH  12  30
TORSDOF 4
ENDMDL
MODEL 8
REMARK VINA RESULT:      -6.9      2.816      6.412
REMARK  Name = 5326018_Caulerpin.pdbqt.pdb
REMARK  4 active torsions:
REMARK  status: ('A' for Active; 'I' for Inactive)
REMARK    1  A    between atoms: C_11  and  C_26
REMARK    2  A    between atoms: C_12  and  C_30
REMARK    3  A    between atoms: C_26  and  O_27
REMARK    4  A    between atoms: C_30  and  O_31
REMARK                            x       y       z     vdW  Elec       q    Type
REMARK                         _______ _______ _______ _____ _____    ______ ____
ROOT
ATOM      1  N   UNL     1      43.360  -4.032  12.097  0.00  0.00    +0.000 N 
ATOM      2  N   UNL     1      49.452  -5.141  14.180  0.00  0.00    +0.000 N 
ATOM      3  C   UNL     1      45.358  -4.885  11.660  0.00  0.00    +0.000 C 
ATOM      4  C   UNL     1      47.582  -3.972  14.407  0.00  0.00    +0.000 C 
ATOM      5  C   UNL     1      44.685  -3.979  12.477  0.00  0.00    +0.000 C 
ATOM      6  C   UNL     1      48.301  -4.767  13.518  0.00  0.00    +0.000 C 
ATOM      7  C   UNL     1      44.443  -5.441  10.735  0.00  0.00    +0.000 A 
ATOM      8  C   UNL     1      48.336  -3.810  15.595  0.00  0.00    +0.000 A 
ATOM      9  C   UNL     1      43.198  -4.886  11.027  0.00  0.00    +0.000 A 
ATOM     10  C   UNL     1      49.506  -4.549  15.425  0.00  0.00    +0.000 A 
ATOM     11  C   UNL     1      45.124  -3.162  13.577  0.00  0.00    +0.000 C 
ATOM     12  C   UNL     1      47.998  -5.253  12.197  0.00  0.00    +0.000 C 
ATOM     13  C   UNL     1      46.283  -3.456  14.108  0.00  0.00    +0.000 C 
ATOM     14  C   UNL     1      46.751  -5.173  11.809  0.00  0.00    +0.000 C 
ATOM     15  C   UNL     1      44.542  -6.376   9.688  0.00  0.00    +0.000 A 
ATOM     16  C   UNL     1      48.137  -3.123  16.807  0.00  0.00    +0.000 A 
ATOM     17  C   UNL     1      42.037  -5.215  10.318  0.00  0.00    +0.000 A 
ATOM     18  C   UNL     1      50.498  -4.635  16.409  0.00  0.00    +0.000 A 
ATOM     19  C   UNL     1      43.394  -6.711   8.966  0.00  0.00    +0.000 A 
ATOM     20  C   UNL     1      49.118  -3.194  17.797  0.00  0.00    +0.000 A 
ATOM     21  C   UNL     1      42.166  -6.138   9.278  0.00  0.00    +0.000 A 
ATOM     22  C   UNL     1      50.277  -3.936  17.597  0.00  0.00    +0.000 A 
ATOM     23  H   UNL     1      42.587  -3.538  12.525  0.00  0.00    +0.000 HD
ATOM     24  H   UNL     1      50.171  -5.767  13.839  0.00  0.00    +0.000 HD
ENDROOT
BRANCH  11  26
ATOM     25  O   UNL     1      44.897  -0.810  13.951  0.00  0.00    +0.000 OA
ATOM     26  C   UNL     1      44.433  -1.937  14.073  0.00  0.00    +0.000 C 
BRANCH  26  27
ATOM     27  O   UNL     1      43.242  -2.299  14.633  0.00  0.00    +0.000 OA
ATOM     28  C   UNL     1      42.121  -1.491  14.391  0.00  0.00    +0.000 C 
ENDBRANCH  26  27
ENDBRANCH  11  26
BRANCH  12  30
ATOM     29  O   UNL     1      48.987  -5.362  10.020  0.00  0.00    +0.000 OA
ATOM     30  C   UNL     1      49.001  -5.714  11.194  0.00  0.00    +0.000 C 
BRANCH  30  31
ATOM     31  O   UNL     1      49.897  -6.535  11.814  0.00  0.00    +0.000 OA
ATOM     32  C   UNL     1      51.021  -6.959  11.089  0.00  0.00    +0.000 C 
ENDBRANCH  30  31
ENDBRANCH  12  30
TORSDOF 4
ENDMDL
MODEL 9
REMARK VINA RESULT:      -6.9      2.784      6.084
REMARK  Name = 5326018_Caulerpin.pdbqt.pdb
REMARK  4 active torsions:
REMARK  status: ('A' for Active; 'I' for Inactive)
REMARK    1  A    between atoms: C_11  and  C_26
REMARK    2  A    between atoms: C_12  and  C_30
REMARK    3  A    between atoms: C_26  and  O_27
REMARK    4  A    between atoms: C_30  and  O_31
REMARK                            x       y       z     vdW  Elec       q    Type
REMARK                         _______ _______ _______ _____ _____    ______ ____
ROOT
ATOM      1  N   UNL     1      49.644  -6.746   9.526  0.00  0.00    +0.000 N 
ATOM      2  N   UNL     1      44.338  -4.176  12.340  0.00  0.00    +0.000 N 
ATOM      3  C   UNL     1      48.690  -4.968  10.443  0.00  0.00    +0.000 C 
ATOM      4  C   UNL     1      45.189  -5.785  11.075  0.00  0.00    +0.000 C 
ATOM      5  C   UNL     1      48.420  -6.196   9.843  0.00  0.00    +0.000 C 
ATOM      6  C   UNL     1      45.424  -4.498  11.553  0.00  0.00    +0.000 C 
ATOM      7  C   UNL     1      50.088  -4.745  10.427  0.00  0.00    +0.000 A 
ATOM      8  C   UNL     1      43.919  -6.220  11.525  0.00  0.00    +0.000 A 
ATOM      9  C   UNL     1      50.663  -5.873   9.843  0.00  0.00    +0.000 A 
ATOM     10  C   UNL     1      43.404  -5.191  12.312  0.00  0.00    +0.000 A 
ATOM     11  C   UNL     1      47.189  -6.908   9.617  0.00  0.00    +0.000 C 
ATOM     12  C   UNL     1      46.546  -3.608  11.413  0.00  0.00    +0.000 C 
ATOM     13  C   UNL     1      46.139  -6.501  10.281  0.00  0.00    +0.000 C 
ATOM     14  C   UNL     1      47.667  -4.130  10.986  0.00  0.00    +0.000 C 
ATOM     15  C   UNL     1      50.927  -3.705  10.867  0.00  0.00    +0.000 A 
ATOM     16  C   UNL     1      43.159  -7.393  11.358  0.00  0.00    +0.000 A 
ATOM     17  C   UNL     1      52.044  -6.016   9.669  0.00  0.00    +0.000 A 
ATOM     18  C   UNL     1      42.157  -5.270  12.943  0.00  0.00    +0.000 A 
ATOM     19  C   UNL     1      52.308  -3.828  10.696  0.00  0.00    +0.000 A 
ATOM     20  C   UNL     1      41.911  -7.487  11.976  0.00  0.00    +0.000 A 
ATOM     21  C   UNL     1      52.853  -4.964  10.107  0.00  0.00    +0.000 A 
ATOM     22  C   UNL     1      41.421  -6.442  12.752  0.00  0.00    +0.000 A 
ATOM     23  H   UNL     1      49.811  -7.662   9.127  0.00  0.00    +0.000 HD
ATOM     24  H   UNL     1      44.213  -3.331  12.884  0.00  0.00    +0.000 HD
ENDROOT
BRANCH  11  26
ATOM     25  O   UNL     1      47.902  -8.477   7.957  0.00  0.00    +0.000 OA
ATOM     26  C   UNL     1      46.985  -7.979   8.599  0.00  0.00    +0.000 C 
BRANCH  26  27
ATOM     27  O   UNL     1      45.658  -8.290   8.548  0.00  0.00    +0.000 OA
ATOM     28  C   UNL     1      45.093  -8.586   7.298  0.00  0.00    +0.000 C 
ENDBRANCH  26  27
ENDBRANCH  11  26
BRANCH  12  30
ATOM     29  O   UNL     1      45.750  -1.567  12.378  0.00  0.00    +0.000 OA
ATOM     30  C   UNL     1      46.503  -2.127  11.590  0.00  0.00    +0.000 C 
BRANCH  30  31
ATOM     31  O   UNL     1      47.431  -1.559  10.766  0.00  0.00    +0.000 OA
ATOM     32  C   UNL     1      46.977  -0.729   9.728  0.00  0.00    +0.000 C 
ENDBRANCH  30  31
ENDBRANCH  12  30
TORSDOF 4
ENDMDL
