MODEL 1
REMARK VINA RESULT:      -4.0      0.000      0.000
REMARK  Name = 5350_Sulforaphane.pdbqt.pdb
REMARK  3 active torsions:
REMARK  status: ('A' for Active; 'I' for Inactive)
REMARK    1  A    between atoms: C_1  and  C_2
REMARK    2  A    between atoms: C_3  and  N_5
REMARK    3  A    between atoms: C_7  and  S_8
REMARK                            x       y       z     vdW  Elec       q    Type
REMARK                         _______ _______ _______ _____ _____    ______ ____
ROOT
ATOM      1  C   UNL     1      43.396  -5.742  11.897  0.00  0.00    +0.000 C 
ATOM      2  C   UNL     1      43.244  -5.051  13.256  0.00  0.00    +0.000 C 
ENDROOT
BRANCH   2   3
ATOM      3  S   UNL     1      43.069  -4.260  14.821  0.00  0.00    +0.000 S 
ATOM      4  O   UNL     1      41.911  -3.439  14.338  0.00  0.00    +0.000 OA
ATOM      5  C   UNL     1      44.221  -2.989  14.424  0.00  0.00    +0.000 C 
ENDBRANCH   2   3
BRANCH   1   6
ATOM      6  C   UNL     1      43.544  -6.432  10.538  0.00  0.00    +0.000 C 
ATOM      7  C   UNL     1      43.694  -7.123   9.177  0.00  0.00    +0.000 C 
BRANCH   7   9
ATOM      8  S   UNL     1      46.458  -8.407   7.473  0.00  0.00    +0.000 S 
ATOM      9  N   UNL     1      43.827  -7.715   7.983  0.00  0.00    +0.000 NA
ATOM     10  C   UNL     1      44.948  -8.001   7.786  0.00  0.00    +0.000 C 
ENDBRANCH   7   9
ENDBRANCH   1   6
TORSDOF 3
ENDMDL
MODEL 2
REMARK VINA RESULT:      -3.7     22.057     24.734
REMARK  Name = 5350_Sulforaphane.pdbqt.pdb
REMARK  3 active torsions:
REMARK  status: ('A' for Active; 'I' for Inactive)
REMARK    1  A    between atoms: C_1  and  C_2
REMARK    2  A    between atoms: C_3  and  N_5
REMARK    3  A    between atoms: C_7  and  S_8
REMARK                            x       y       z     vdW  Elec       q    Type
REMARK                         _______ _______ _______ _____ _____    ______ ____
ROOT
ATOM      1  C   UNL     1      29.073  -2.586  28.399  0.00  0.00    +0.000 C 
ATOM      2  C   UNL     1      29.790  -2.989  27.105  0.00  0.00    +0.000 C 
ENDROOT
BRANCH   2   3
ATOM      3  S   UNL     1      30.614  -3.455  25.620  0.00  0.00    +0.000 S 
ATOM      4  O   UNL     1      30.478  -2.076  25.046  0.00  0.00    +0.000 OA
ATOM      5  C   UNL     1      29.129  -3.997  24.843  0.00  0.00    +0.000 C 
ENDBRANCH   2   3
BRANCH   1   6
ATOM      6  C   UNL     1      28.360  -2.183  29.692  0.00  0.00    +0.000 C 
ATOM      7  C   UNL     1      27.645  -1.780  30.987  0.00  0.00    +0.000 C 
BRANCH   7   9
ATOM      8  S   UNL     1      24.693  -0.011  31.581  0.00  0.00    +0.000 S 
ATOM      9  N   UNL     1      27.017  -1.416  32.114  0.00  0.00    +0.000 NA
ATOM     10  C   UNL     1      26.035  -0.822  31.867  0.00  0.00    +0.000 C 
ENDBRANCH   7   9
ENDBRANCH   1   6
TORSDOF 3
ENDMDL
MODEL 3
REMARK VINA RESULT:      -3.6     32.380     34.570
REMARK  Name = 5350_Sulforaphane.pdbqt.pdb
REMARK  3 active torsions:
REMARK  status: ('A' for Active; 'I' for Inactive)
REMARK    1  A    between atoms: C_1  and  C_2
REMARK    2  A    between atoms: C_3  and  N_5
REMARK    3  A    between atoms: C_7  and  S_8
REMARK                            x       y       z     vdW  Elec       q    Type
REMARK                         _______ _______ _______ _____ _____    ______ ____
ROOT
ATOM      1  C   UNL     1      15.982   4.936  26.147  0.00  0.00    +0.000 C 
ATOM      2  C   UNL     1      16.604   3.540  26.035  0.00  0.00    +0.000 C 
ENDROOT
BRANCH   2   3
ATOM      3  S   UNL     1      17.323   1.936  25.910  0.00  0.00    +0.000 S 
ATOM      4  O   UNL     1      17.857   2.007  27.310  0.00  0.00    +0.000 OA
ATOM      5  C   UNL     1      18.829   2.551  25.235  0.00  0.00    +0.000 C 
ENDBRANCH   2   3
BRANCH   1   6
ATOM      6  C   UNL     1      15.361   6.332  26.255  0.00  0.00    +0.000 C 
ATOM      7  C   UNL     1      14.740   7.729  26.363  0.00  0.00    +0.000 C 
BRANCH   7   9
ATOM      8  S   UNL     1      14.075   9.787  29.105  0.00  0.00    +0.000 S 
ATOM      9  N   UNL     1      14.202   8.952  26.470  0.00  0.00    +0.000 NA
ATOM     10  C   UNL     1      14.157   9.288  27.593  0.00  0.00    +0.000 C 
ENDBRANCH   7   9
ENDBRANCH   1   6
TORSDOF 3
ENDMDL
MODEL 4
REMARK VINA RESULT:      -3.5     35.969     37.070
REMARK  Name = 5350_Sulforaphane.pdbqt.pdb
REMARK  3 active torsions:
REMARK  status: ('A' for Active; 'I' for Inactive)
REMARK    1  A    between atoms: C_1  and  C_2
REMARK    2  A    between atoms: C_3  and  N_5
REMARK    3  A    between atoms: C_7  and  S_8
REMARK                            x       y       z     vdW  Elec       q    Type
REMARK                         _______ _______ _______ _____ _____    ______ ____
ROOT
ATOM      1  C   UNL     1      21.911  16.957  30.521  0.00  0.00    +0.000 C 
ATOM      2  C   UNL     1      21.827  18.471  30.301  0.00  0.00    +0.000 C 
ENDROOT
BRANCH   2   3
ATOM      3  S   UNL     1      21.729  20.211  30.045  0.00  0.00    +0.000 S 
ATOM      4  O   UNL     1      22.569  20.131  28.804  0.00  0.00    +0.000 OA
ATOM      5  C   UNL     1      23.134  20.544  31.053  0.00  0.00    +0.000 C 
ENDBRANCH   2   3
BRANCH   1   6
ATOM      6  C   UNL     1      21.997  15.443  30.740  0.00  0.00    +0.000 C 
ATOM      7  C   UNL     1      22.083  13.928  30.959  0.00  0.00    +0.000 C 
BRANCH   7   9
ATOM      8  S   UNL     1      21.787  11.960  33.828  0.00  0.00    +0.000 S 
ATOM      9  N   UNL     1      22.153  12.606  31.162  0.00  0.00    +0.000 NA
ATOM     10  C   UNL     1      21.995  12.353  32.297  0.00  0.00    +0.000 C 
ENDBRANCH   7   9
ENDBRANCH   1   6
TORSDOF 3
ENDMDL
MODEL 5
REMARK VINA RESULT:      -3.4      4.941      6.684
REMARK  Name = 5350_Sulforaphane.pdbqt.pdb
REMARK  3 active torsions:
REMARK  status: ('A' for Active; 'I' for Inactive)
REMARK    1  A    between atoms: C_1  and  C_2
REMARK    2  A    between atoms: C_3  and  N_5
REMARK    3  A    between atoms: C_7  and  S_8
REMARK                            x       y       z     vdW  Elec       q    Type
REMARK                         _______ _______ _______ _____ _____    ______ ____
ROOT
ATOM      1  C   UNL     1      44.358  -4.065  10.890  0.00  0.00    +0.000 C 
ATOM      2  C   UNL     1      43.662  -5.425  11.003  0.00  0.00    +0.000 C 
ENDROOT
BRANCH   2   3
ATOM      3  S   UNL     1      42.858  -6.988  11.129  0.00  0.00    +0.000 S 
ATOM      4  O   UNL     1      43.376  -7.424   9.791  0.00  0.00    +0.000 OA
ATOM      5  C   UNL     1      41.358  -6.390  10.427  0.00  0.00    +0.000 C 
ENDBRANCH   2   3
BRANCH   1   6
ATOM      6  C   UNL     1      45.052  -2.704  10.780  0.00  0.00    +0.000 C 
ATOM      7  C   UNL     1      45.748  -1.342  10.671  0.00  0.00    +0.000 C 
BRANCH   7   9
ATOM      8  S   UNL     1      45.354   1.656  12.418  0.00  0.00    +0.000 S 
ATOM      9  N   UNL     1      46.346  -0.147  10.567  0.00  0.00    +0.000 NA
ATOM     10  C   UNL     1      45.912   0.602  11.360  0.00  0.00    +0.000 C 
ENDBRANCH   7   9
ENDBRANCH   1   6
TORSDOF 3
ENDMDL
MODEL 6
REMARK VINA RESULT:      -3.4     16.298     17.040
REMARK  Name = 5350_Sulforaphane.pdbqt.pdb
REMARK  3 active torsions:
REMARK  status: ('A' for Active; 'I' for Inactive)
REMARK    1  A    between atoms: C_1  and  C_2
REMARK    2  A    between atoms: C_3  and  N_5
REMARK    3  A    between atoms: C_7  and  S_8
REMARK                            x       y       z     vdW  Elec       q    Type
REMARK                         _______ _______ _______ _____ _____    ______ ____
ROOT
ATOM      1  C   UNL     1      29.165  -4.675  16.220  0.00  0.00    +0.000 C 
ATOM      2  C   UNL     1      28.712  -3.902  14.976  0.00  0.00    +0.000 C 
ENDROOT
BRANCH   2   3
ATOM      3  S   UNL     1      28.196  -3.012  13.546  0.00  0.00    +0.000 S 
ATOM      4  O   UNL     1      27.086  -2.340  14.298  0.00  0.00    +0.000 OA
ATOM      5  C   UNL     1      27.132  -4.304  13.000  0.00  0.00    +0.000 C 
ENDBRANCH   2   3
BRANCH   1   6
ATOM      6  C   UNL     1      29.617  -5.445  17.464  0.00  0.00    +0.000 C 
ATOM      7  C   UNL     1      30.069  -6.216  18.710  0.00  0.00    +0.000 C 
BRANCH   7   9
ATOM      8  S   UNL     1      28.512  -8.603  20.729  0.00  0.00    +0.000 S 
ATOM      9  N   UNL     1      30.476  -6.892  19.793  0.00  0.00    +0.000 NA
ATOM     10  C   UNL     1      29.630  -7.611  20.174  0.00  0.00    +0.000 C 
ENDBRANCH   7   9
ENDBRANCH   1   6
TORSDOF 3
ENDMDL
MODEL 7
REMARK VINA RESULT:      -3.0     36.138     36.738
REMARK  Name = 5350_Sulforaphane.pdbqt.pdb
REMARK  3 active torsions:
REMARK  status: ('A' for Active; 'I' for Inactive)
REMARK    1  A    between atoms: C_1  and  C_2
REMARK    2  A    between atoms: C_3  and  N_5
REMARK    3  A    between atoms: C_7  and  S_8
REMARK                            x       y       z     vdW  Elec       q    Type
REMARK                         _______ _______ _______ _____ _____    ______ ____
ROOT
ATOM      1  C   UNL     1      21.871  13.462  32.081  0.00  0.00    +0.000 C 
ATOM      2  C   UNL     1      21.611  14.543  31.027  0.00  0.00    +0.000 C 
ENDROOT
BRANCH   2   3
ATOM      3  S   UNL     1      21.308  15.786  29.815  0.00  0.00    +0.000 S 
ATOM      4  O   UNL     1      22.773  15.956  29.544  0.00  0.00    +0.000 OA
ATOM      5  C   UNL     1      21.309  17.088  31.001  0.00  0.00    +0.000 C 
ENDBRANCH   2   3
BRANCH   1   6
ATOM      6  C   UNL     1      22.131  12.379  33.133  0.00  0.00    +0.000 C 
ATOM      7  C   UNL     1      22.391  11.295  34.185  0.00  0.00    +0.000 C 
BRANCH   7   9
ATOM      8  S   UNL     1      20.721  10.378  37.112  0.00  0.00    +0.000 S 
ATOM      9  N   UNL     1      22.630  10.353  35.109  0.00  0.00    +0.000 NA
ATOM     10  C   UNL     1      21.810  10.380  35.948  0.00  0.00    +0.000 C 
ENDBRANCH   7   9
ENDBRANCH   1   6
TORSDOF 3
ENDMDL
MODEL 8
REMARK VINA RESULT:      -3.0     36.927     37.786
REMARK  Name = 5350_Sulforaphane.pdbqt.pdb
REMARK  3 active torsions:
REMARK  status: ('A' for Active; 'I' for Inactive)
REMARK    1  A    between atoms: C_1  and  C_2
REMARK    2  A    between atoms: C_3  and  N_5
REMARK    3  A    between atoms: C_7  and  S_8
REMARK                            x       y       z     vdW  Elec       q    Type
REMARK                         _______ _______ _______ _____ _____    ______ ____
ROOT
ATOM      1  C   UNL     1      22.600  18.289  30.394  0.00  0.00    +0.000 C 
ATOM      2  C   UNL     1      23.638  19.386  30.134  0.00  0.00    +0.000 C 
ENDROOT
BRANCH   2   3
ATOM      3  S   UNL     1      24.828  20.649  29.833  0.00  0.00    +0.000 S 
ATOM      4  O   UNL     1      24.804  20.396  28.355  0.00  0.00    +0.000 OA
ATOM      5  C   UNL     1      26.194  19.561  30.063  0.00  0.00    +0.000 C 
ENDBRANCH   2   3
BRANCH   1   6
ATOM      6  C   UNL     1      21.564  17.191  30.651  0.00  0.00    +0.000 C 
ATOM      7  C   UNL     1      20.526  16.092  30.909  0.00  0.00    +0.000 C 
BRANCH   7   9
ATOM      8  S   UNL     1      19.532  14.449  33.826  0.00  0.00    +0.000 S 
ATOM      9  N   UNL     1      19.618  15.136  31.146  0.00  0.00    +0.000 NA
ATOM     10  C   UNL     1      19.596  14.859  32.286  0.00  0.00    +0.000 C 
ENDBRANCH   7   9
ENDBRANCH   1   6
TORSDOF 3
ENDMDL
MODEL 9
REMARK VINA RESULT:      -3.0     14.246     15.129
REMARK  Name = 5350_Sulforaphane.pdbqt.pdb
REMARK  3 active torsions:
REMARK  status: ('A' for Active; 'I' for Inactive)
REMARK    1  A    between atoms: C_1  and  C_2
REMARK    2  A    between atoms: C_3  and  N_5
REMARK    3  A    between atoms: C_7  and  S_8
REMARK                            x       y       z     vdW  Elec       q    Type
REMARK                         _______ _______ _______ _____ _____    ______ ____
ROOT
ATOM      1  C   UNL     1      42.541   0.660  23.372  0.00  0.00    +0.000 C 
ATOM      2  C   UNL     1      42.128  -0.802  23.569  0.00  0.00    +0.000 C 
ENDROOT
BRANCH   2   3
ATOM      3  S   UNL     1      41.650  -2.482  23.799  0.00  0.00    +0.000 S 
ATOM      4  O   UNL     1      40.217  -2.101  24.022  0.00  0.00    +0.000 OA
ATOM      5  C   UNL     1      41.995  -2.453  25.525  0.00  0.00    +0.000 C 
ENDBRANCH   2   3
BRANCH   1   6
ATOM      6  C   UNL     1      42.955   2.122  23.176  0.00  0.00    +0.000 C 
ATOM      7  C   UNL     1      43.369   3.585  22.981  0.00  0.00    +0.000 C 
BRANCH   7   9
ATOM      8  S   UNL     1      42.729   5.876  20.425  0.00  0.00    +0.000 S 
ATOM      9  N   UNL     1      43.722   4.865  22.802  0.00  0.00    +0.000 NA
ATOM     10  C   UNL     1      43.291   5.275  21.790  0.00  0.00    +0.000 C 
ENDBRANCH   7   9
ENDBRANCH   1   6
TORSDOF 3
ENDMDL
