MODEL 1
REMARK VINA RESULT:      -5.4      0.000      0.000
REMARK  Name = 5357283_Methylferulate.pdbqt.pdb
REMARK  5 active torsions:
REMARK  status: ('A' for Active; 'I' for Inactive)
REMARK    1  A    between atoms: C_1  and  C_11
REMARK    2  A    between atoms: C_2  and  O_7
REMARK    3  A    between atoms: C_5  and  O_9
REMARK    4  A    between atoms: C_12  and  C_14
REMARK    5  A    between atoms: C_14  and  O_15
REMARK                            x       y       z     vdW  Elec       q    Type
REMARK                         _______ _______ _______ _____ _____    ______ ____
ROOT
ATOM      1  C   UNL     1      43.417  -4.753  10.998  0.00  0.00    +0.000 A 
ATOM      2  C   UNL     1      44.311  -6.571   9.666  0.00  0.00    +0.000 A 
ATOM      3  C   UNL     1      44.431  -5.670  10.728  0.00  0.00    +0.000 A 
ATOM      4  C   UNL     1      42.269  -4.727  10.209  0.00  0.00    +0.000 A 
ATOM      5  C   UNL     1      43.155  -6.534   8.883  0.00  0.00    +0.000 A 
ATOM      6  C   UNL     1      42.137  -5.619   9.148  0.00  0.00    +0.000 A 
ENDROOT
BRANCH   2   7
ATOM      7  O   UNL     1      45.262  -7.505   9.332  0.00  0.00    +0.000 OA
ATOM      8  C   UNL     1      46.552  -7.254   9.825  0.00  0.00    +0.000 C 
ENDBRANCH   2   7
BRANCH   5   9
ATOM      9  O   UNL     1      43.018  -7.409   7.839  0.00  0.00    +0.000 OA
ATOM     10  H   UNL     1      42.191  -7.912   7.959  0.00  0.00    +0.000 HD
ENDBRANCH   5   9
BRANCH   1  11
ATOM     11  C   UNL     1      43.557  -3.840  12.085  0.00  0.00    +0.000 C 
ATOM     12  C   UNL     1      43.675  -3.070  13.000  0.00  0.00    +0.000 C 
BRANCH  12  14
ATOM     13  O   UNL     1      44.938  -1.764  14.429  0.00  0.00    +0.000 OA
ATOM     14  C   UNL     1      43.822  -2.143  14.098  0.00  0.00    +0.000 C 
BRANCH  14  15
ATOM     15  O   UNL     1      42.609  -1.812  14.630  0.00  0.00    +0.000 OA
ATOM     16  C   UNL     1      41.951  -0.681  14.118  0.00  0.00    +0.000 C 
ENDBRANCH  14  15
ENDBRANCH  12  14
ENDBRANCH   1  11
TORSDOF 5
ENDMDL
MODEL 2
REMARK VINA RESULT:      -5.3      1.566      6.626
REMARK  Name = 5357283_Methylferulate.pdbqt.pdb
REMARK  5 active torsions:
REMARK  status: ('A' for Active; 'I' for Inactive)
REMARK    1  A    between atoms: C_1  and  C_11
REMARK    2  A    between atoms: C_2  and  O_7
REMARK    3  A    between atoms: C_5  and  O_9
REMARK    4  A    between atoms: C_12  and  C_14
REMARK    5  A    between atoms: C_14  and  O_15
REMARK                            x       y       z     vdW  Elec       q    Type
REMARK                         _______ _______ _______ _____ _____    ______ ____
ROOT
ATOM      1  C   UNL     1      43.462  -5.191  11.734  0.00  0.00    +0.000 A 
ATOM      2  C   UNL     1      43.549  -3.095  12.952  0.00  0.00    +0.000 A 
ATOM      3  C   UNL     1      43.794  -3.838  11.793  0.00  0.00    +0.000 A 
ATOM      4  C   UNL     1      42.881  -5.816  12.835  0.00  0.00    +0.000 A 
ATOM      5  C   UNL     1      42.966  -3.736  14.048  0.00  0.00    +0.000 A 
ATOM      6  C   UNL     1      42.632  -5.089  13.995  0.00  0.00    +0.000 A 
ENDROOT
BRANCH   2   7
ATOM      7  O   UNL     1      43.845  -1.761  13.092  0.00  0.00    +0.000 OA
ATOM      8  C   UNL     1      43.002  -0.881  12.396  0.00  0.00    +0.000 C 
ENDBRANCH   2   7
BRANCH   5   9
ATOM      9  O   UNL     1      42.717  -3.026  15.191  0.00  0.00    +0.000 OA
ATOM     10  H   UNL     1      42.419  -3.643  15.884  0.00  0.00    +0.000 HD
ENDBRANCH   5   9
BRANCH   1  11
ATOM     11  C   UNL     1      43.720  -5.934  10.545  0.00  0.00    +0.000 C 
ATOM     12  C   UNL     1      43.939  -6.559   9.541  0.00  0.00    +0.000 C 
BRANCH  12  14
ATOM     13  O   UNL     1      43.278  -7.842   7.737  0.00  0.00    +0.000 OA
ATOM     14  C   UNL     1      44.202  -7.306   8.333  0.00  0.00    +0.000 C 
BRANCH  14  15
ATOM     15  O   UNL     1      45.533  -7.296   8.026  0.00  0.00    +0.000 OA
ATOM     16  C   UNL     1      45.969  -8.107   6.965  0.00  0.00    +0.000 C 
ENDBRANCH  14  15
ENDBRANCH  12  14
ENDBRANCH   1  11
TORSDOF 5
ENDMDL
MODEL 3
REMARK VINA RESULT:      -5.2      1.918      3.169
REMARK  Name = 5357283_Methylferulate.pdbqt.pdb
REMARK  5 active torsions:
REMARK  status: ('A' for Active; 'I' for Inactive)
REMARK    1  A    between atoms: C_1  and  C_11
REMARK    2  A    between atoms: C_2  and  O_7
REMARK    3  A    between atoms: C_5  and  O_9
REMARK    4  A    between atoms: C_12  and  C_14
REMARK    5  A    between atoms: C_14  and  O_15
REMARK                            x       y       z     vdW  Elec       q    Type
REMARK                         _______ _______ _______ _____ _____    ______ ____
ROOT
ATOM      1  C   UNL     1      45.098  -6.064  11.221  0.00  0.00    +0.000 A 
ATOM      2  C   UNL     1      43.343  -6.583   9.629  0.00  0.00    +0.000 A 
ATOM      3  C   UNL     1      43.763  -5.995  10.826  0.00  0.00    +0.000 A 
ATOM      4  C   UNL     1      46.030  -6.722  10.421  0.00  0.00    +0.000 A 
ATOM      5  C   UNL     1      44.289  -7.240   8.838  0.00  0.00    +0.000 A 
ATOM      6  C   UNL     1      45.626  -7.312   9.227  0.00  0.00    +0.000 A 
ENDROOT
BRANCH   2   7
ATOM      7  O   UNL     1      42.049  -6.562   9.168  0.00  0.00    +0.000 OA
ATOM      8  C   UNL     1      41.077  -6.213  10.119  0.00  0.00    +0.000 C 
ENDBRANCH   2   7
BRANCH   5   9
ATOM      9  O   UNL     1      43.899  -7.821   7.662  0.00  0.00    +0.000 OA
ATOM     10  H   UNL     1      44.692  -8.015   7.130  0.00  0.00    +0.000 HD
ENDBRANCH   5   9
BRANCH   1  11
ATOM     11  C   UNL     1      45.508  -5.459  12.445  0.00  0.00    +0.000 C 
ATOM     12  C   UNL     1      45.855  -4.948  13.477  0.00  0.00    +0.000 C 
BRANCH  12  14
ATOM     13  O   UNL     1      46.764  -5.029  15.600  0.00  0.00    +0.000 OA
ATOM     14  C   UNL     1      46.275  -4.337  14.716  0.00  0.00    +0.000 C 
BRANCH  14  15
ATOM     15  O   UNL     1      46.045  -2.991  14.706  0.00  0.00    +0.000 OA
ATOM     16  C   UNL     1      44.743  -2.549  14.417  0.00  0.00    +0.000 C 
ENDBRANCH  14  15
ENDBRANCH  12  14
ENDBRANCH   1  11
TORSDOF 5
ENDMDL
MODEL 4
REMARK VINA RESULT:      -5.0      2.638      7.137
REMARK  Name = 5357283_Methylferulate.pdbqt.pdb
REMARK  5 active torsions:
REMARK  status: ('A' for Active; 'I' for Inactive)
REMARK    1  A    between atoms: C_1  and  C_11
REMARK    2  A    between atoms: C_2  and  O_7
REMARK    3  A    between atoms: C_5  and  O_9
REMARK    4  A    between atoms: C_12  and  C_14
REMARK    5  A    between atoms: C_14  and  O_15
REMARK                            x       y       z     vdW  Elec       q    Type
REMARK                         _______ _______ _______ _____ _____    ______ ____
ROOT
ATOM      1  C   UNL     1      45.047  -6.561  10.383  0.00  0.00    +0.000 A 
ATOM      2  C   UNL     1      43.858  -5.287  12.069  0.00  0.00    +0.000 A 
ATOM      3  C   UNL     1      43.856  -6.053  10.900  0.00  0.00    +0.000 A 
ATOM      4  C   UNL     1      46.254  -6.308  11.030  0.00  0.00    +0.000 A 
ATOM      5  C   UNL     1      45.077  -5.041  12.708  0.00  0.00    +0.000 A 
ATOM      6  C   UNL     1      46.271  -5.546  12.194  0.00  0.00    +0.000 A 
ENDROOT
BRANCH   2   7
ATOM      7  O   UNL     1      42.732  -4.751  12.645  0.00  0.00    +0.000 OA
ATOM      8  C   UNL     1      41.784  -5.682  13.096  0.00  0.00    +0.000 C 
ENDBRANCH   2   7
BRANCH   5   9
ATOM      9  O   UNL     1      45.100  -4.294  13.854  0.00  0.00    +0.000 OA
ATOM     10  H   UNL     1      45.050  -4.895  14.620  0.00  0.00    +0.000 HD
ENDBRANCH   5   9
BRANCH   1  11
ATOM     11  C   UNL     1      45.026  -7.340   9.188  0.00  0.00    +0.000 C 
ATOM     12  C   UNL     1      45.009  -7.995   8.180  0.00  0.00    +0.000 C 
BRANCH  12  14
ATOM     13  O   UNL     1      44.030  -9.514   6.740  0.00  0.00    +0.000 OA
ATOM     14  C   UNL     1      44.983  -8.780   6.969  0.00  0.00    +0.000 C 
BRANCH  14  15
ATOM     15  O   UNL     1      46.103  -8.566   6.217  0.00  0.00    +0.000 OA
ATOM     16  C   UNL     1      47.311  -9.129   6.663  0.00  0.00    +0.000 C 
ENDBRANCH  14  15
ENDBRANCH  12  14
ENDBRANCH   1  11
TORSDOF 5
ENDMDL
MODEL 5
REMARK VINA RESULT:      -5.0     33.230     34.541
REMARK  Name = 5357283_Methylferulate.pdbqt.pdb
REMARK  5 active torsions:
REMARK  status: ('A' for Active; 'I' for Inactive)
REMARK    1  A    between atoms: C_1  and  C_11
REMARK    2  A    between atoms: C_2  and  O_7
REMARK    3  A    between atoms: C_5  and  O_9
REMARK    4  A    between atoms: C_12  and  C_14
REMARK    5  A    between atoms: C_14  and  O_15
REMARK                            x       y       z     vdW  Elec       q    Type
REMARK                         _______ _______ _______ _____ _____    ______ ____
ROOT
ATOM      1  C   UNL     1      21.566  19.321   2.603  0.00  0.00    +0.000 A 
ATOM      2  C   UNL     1      19.273  18.635   2.997  0.00  0.00    +0.000 A 
ATOM      3  C   UNL     1      20.235  19.254   2.193  0.00  0.00    +0.000 A 
ATOM      4  C   UNL     1      21.949  18.769   3.823  0.00  0.00    +0.000 A 
ATOM      5  C   UNL     1      19.672  18.087   4.218  0.00  0.00    +0.000 A 
ATOM      6  C   UNL     1      21.001  18.151   4.633  0.00  0.00    +0.000 A 
ENDROOT
BRANCH   2   7
ATOM      7  O   UNL     1      17.943  18.526   2.667  0.00  0.00    +0.000 OA
ATOM      8  C   UNL     1      17.215  19.726   2.699  0.00  0.00    +0.000 C 
ENDBRANCH   2   7
BRANCH   5   9
ATOM      9  O   UNL     1      18.745  17.476   5.019  0.00  0.00    +0.000 OA
ATOM     10  H   UNL     1      17.987  17.205   4.469  0.00  0.00    +0.000 HD
ENDBRANCH   5   9
BRANCH   1  11
ATOM     11  C   UNL     1      22.533  19.956   1.771  0.00  0.00    +0.000 C 
ATOM     12  C   UNL     1      23.350  20.492   1.070  0.00  0.00    +0.000 C 
BRANCH  12  14
ATOM     13  O   UNL     1      24.983  22.077   0.671  0.00  0.00    +0.000 OA
ATOM     14  C   UNL     1      24.333  21.138   0.232  0.00  0.00    +0.000 C 
BRANCH  14  15
ATOM     15  O   UNL     1      24.386  20.559  -1.004  0.00  0.00    +0.000 OA
ATOM     16  C   UNL     1      23.418  20.938  -1.950  0.00  0.00    +0.000 C 
ENDBRANCH  14  15
ENDBRANCH  12  14
ENDBRANCH   1  11
TORSDOF 5
ENDMDL
MODEL 6
REMARK VINA RESULT:      -4.9     15.867     17.657
REMARK  Name = 5357283_Methylferulate.pdbqt.pdb
REMARK  5 active torsions:
REMARK  status: ('A' for Active; 'I' for Inactive)
REMARK    1  A    between atoms: C_1  and  C_11
REMARK    2  A    between atoms: C_2  and  O_7
REMARK    3  A    between atoms: C_5  and  O_9
REMARK    4  A    between atoms: C_12  and  C_14
REMARK    5  A    between atoms: C_14  and  O_15
REMARK                            x       y       z     vdW  Elec       q    Type
REMARK                         _______ _______ _______ _____ _____    ______ ____
ROOT
ATOM      1  C   UNL     1      36.952   9.263  19.747  0.00  0.00    +0.000 A 
ATOM      2  C   UNL     1      36.270   8.490  17.552  0.00  0.00    +0.000 A 
ATOM      3  C   UNL     1      37.222   9.075  18.393  0.00  0.00    +0.000 A 
ATOM      4  C   UNL     1      35.725   8.869  20.277  0.00  0.00    +0.000 A 
ATOM      5  C   UNL     1      35.044   8.100  18.097  0.00  0.00    +0.000 A 
ATOM      6  C   UNL     1      34.769   8.286  19.451  0.00  0.00    +0.000 A 
ENDROOT
BRANCH   2   7
ATOM      7  O   UNL     1      36.455   8.269  16.209  0.00  0.00    +0.000 OA
ATOM      8  C   UNL     1      37.568   8.909  15.641  0.00  0.00    +0.000 C 
ENDBRANCH   2   7
BRANCH   5   9
ATOM      9  O   UNL     1      34.099   7.524  17.291  0.00  0.00    +0.000 OA
ATOM     10  H   UNL     1      34.336   7.695  16.361  0.00  0.00    +0.000 HD
ENDBRANCH   5   9
BRANCH   1  11
ATOM     11  C   UNL     1      37.934   9.862  20.590  0.00  0.00    +0.000 C 
ATOM     12  C   UNL     1      38.762  10.369  21.300  0.00  0.00    +0.000 C 
BRANCH  12  14
ATOM     13  O   UNL     1      40.311  12.011  21.791  0.00  0.00    +0.000 OA
ATOM     14  C   UNL     1      39.757  10.980  22.149  0.00  0.00    +0.000 C 
BRANCH  14  15
ATOM     15  O   UNL     1      39.936  10.262  23.296  0.00  0.00    +0.000 OA
ATOM     16  C   UNL     1      40.590   9.021  23.200  0.00  0.00    +0.000 C 
ENDBRANCH  14  15
ENDBRANCH  12  14
ENDBRANCH   1  11
TORSDOF 5
ENDMDL
MODEL 7
REMARK VINA RESULT:      -4.8     33.412     34.711
REMARK  Name = 5357283_Methylferulate.pdbqt.pdb
REMARK  5 active torsions:
REMARK  status: ('A' for Active; 'I' for Inactive)
REMARK    1  A    between atoms: C_1  and  C_11
REMARK    2  A    between atoms: C_2  and  O_7
REMARK    3  A    between atoms: C_5  and  O_9
REMARK    4  A    between atoms: C_12  and  C_14
REMARK    5  A    between atoms: C_14  and  O_15
REMARK                            x       y       z     vdW  Elec       q    Type
REMARK                         _______ _______ _______ _____ _____    ______ ____
ROOT
ATOM      1  C   UNL     1      22.135  21.019   2.667  0.00  0.00    +0.000 A 
ATOM      2  C   UNL     1      21.299  18.771   3.027  0.00  0.00    +0.000 A 
ATOM      3  C   UNL     1      21.644  20.032   3.521  0.00  0.00    +0.000 A 
ATOM      4  C   UNL     1      22.285  20.755   1.308  0.00  0.00    +0.000 A 
ATOM      5  C   UNL     1      21.455  18.520   1.662  0.00  0.00    +0.000 A 
ATOM      6  C   UNL     1      21.945  19.503   0.803  0.00  0.00    +0.000 A 
ENDROOT
BRANCH   2   7
ATOM      7  O   UNL     1      20.810  17.745   3.799  0.00  0.00    +0.000 OA
ATOM      8  C   UNL     1      19.761  18.090   4.666  0.00  0.00    +0.000 C 
ENDBRANCH   2   7
BRANCH   5   9
ATOM      9  O   UNL     1      21.121  17.292   1.158  0.00  0.00    +0.000 OA
ATOM     10  H   UNL     1      21.806  16.650   1.421  0.00  0.00    +0.000 HD
ENDBRANCH   5   9
BRANCH   1  11
ATOM     11  C   UNL     1      22.483  22.299   3.189  0.00  0.00    +0.000 C 
ATOM     12  C   UNL     1      22.776  23.380   3.628  0.00  0.00    +0.000 C 
BRANCH  12  14
ATOM     13  O   UNL     1      22.821  24.977   5.298  0.00  0.00    +0.000 OA
ATOM     14  C   UNL     1      23.128  24.679   4.151  0.00  0.00    +0.000 C 
BRANCH  14  15
ATOM     15  O   UNL     1      23.794  25.423   3.219  0.00  0.00    +0.000 OA
ATOM     16  C   UNL     1      25.179  25.225   3.087  0.00  0.00    +0.000 C 
ENDBRANCH  14  15
ENDBRANCH  12  14
ENDBRANCH   1  11
TORSDOF 5
ENDMDL
MODEL 8
REMARK VINA RESULT:      -4.6     33.832     34.538
REMARK  Name = 5357283_Methylferulate.pdbqt.pdb
REMARK  5 active torsions:
REMARK  status: ('A' for Active; 'I' for Inactive)
REMARK    1  A    between atoms: C_1  and  C_11
REMARK    2  A    between atoms: C_2  and  O_7
REMARK    3  A    between atoms: C_5  and  O_9
REMARK    4  A    between atoms: C_12  and  C_14
REMARK    5  A    between atoms: C_14  and  O_15
REMARK                            x       y       z     vdW  Elec       q    Type
REMARK                         _______ _______ _______ _____ _____    ______ ____
ROOT
ATOM      1  C   UNL     1      22.368  19.859   1.130  0.00  0.00    +0.000 A 
ATOM      2  C   UNL     1      23.316  20.216  -1.073  0.00  0.00    +0.000 A 
ATOM      3  C   UNL     1      22.364  19.617  -0.243  0.00  0.00    +0.000 A 
ATOM      4  C   UNL     1      23.326  20.703   1.688  0.00  0.00    +0.000 A 
ATOM      5  C   UNL     1      24.271  21.060  -0.500  0.00  0.00    +0.000 A 
ATOM      6  C   UNL     1      24.279  21.305   0.873  0.00  0.00    +0.000 A 
ENDROOT
BRANCH   2   7
ATOM      7  O   UNL     1      23.382  20.031  -2.434  0.00  0.00    +0.000 OA
ATOM      8  C   UNL     1      22.174  20.212  -3.125  0.00  0.00    +0.000 C 
ENDBRANCH   2   7
BRANCH   5   9
ATOM      9  O   UNL     1      25.211  21.656  -1.296  0.00  0.00    +0.000 OA
ATOM     10  H   UNL     1      25.690  22.321  -0.769  0.00  0.00    +0.000 HD
ENDBRANCH   5   9
BRANCH   1  11
ATOM     11  C   UNL     1      21.391  19.239   1.962  0.00  0.00    +0.000 C 
ATOM     12  C   UNL     1      20.565  18.716   2.663  0.00  0.00    +0.000 C 
BRANCH  12  14
ATOM     13  O   UNL     1      19.921  17.412   4.458  0.00  0.00    +0.000 OA
ATOM     14  C   UNL     1      19.570  18.092   3.503  0.00  0.00    +0.000 C 
BRANCH  14  15
ATOM     15  O   UNL     1      18.307  18.379   3.070  0.00  0.00    +0.000 OA
ATOM     16  C   UNL     1      18.131  19.516   2.263  0.00  0.00    +0.000 C 
ENDBRANCH  14  15
ENDBRANCH  12  14
ENDBRANCH   1  11
TORSDOF 5
ENDMDL
MODEL 9
REMARK VINA RESULT:      -4.5     33.127     35.167
REMARK  Name = 5357283_Methylferulate.pdbqt.pdb
REMARK  5 active torsions:
REMARK  status: ('A' for Active; 'I' for Inactive)
REMARK    1  A    between atoms: C_1  and  C_11
REMARK    2  A    between atoms: C_2  and  O_7
REMARK    3  A    between atoms: C_5  and  O_9
REMARK    4  A    between atoms: C_12  and  C_14
REMARK    5  A    between atoms: C_14  and  O_15
REMARK                            x       y       z     vdW  Elec       q    Type
REMARK                         _______ _______ _______ _____ _____    ______ ____
ROOT
ATOM      1  C   UNL     1      21.313  20.482   3.380  0.00  0.00    +0.000 A 
ATOM      2  C   UNL     1      19.298  19.577   4.382  0.00  0.00    +0.000 A 
ATOM      3  C   UNL     1      20.007  20.652   3.839  0.00  0.00    +0.000 A 
ATOM      4  C   UNL     1      21.924  19.233   3.461  0.00  0.00    +0.000 A 
ATOM      5  C   UNL     1      19.924  18.330   4.457  0.00  0.00    +0.000 A 
ATOM      6  C   UNL     1      21.230  18.154   4.000  0.00  0.00    +0.000 A 
ENDROOT
BRANCH   2   7
ATOM      7  O   UNL     1      18.011  19.659   4.856  0.00  0.00    +0.000 OA
ATOM      8  C   UNL     1      17.031  19.937   3.890  0.00  0.00    +0.000 C 
ENDBRANCH   2   7
BRANCH   5   9
ATOM      9  O   UNL     1      19.246  17.265   4.985  0.00  0.00    +0.000 OA
ATOM     10  H   UNL     1      18.292  17.395   4.832  0.00  0.00    +0.000 HD
ENDBRANCH   5   9
BRANCH   1  11
ATOM     11  C   UNL     1      22.022  21.590   2.830  0.00  0.00    +0.000 C 
ATOM     12  C   UNL     1      22.618  22.525   2.367  0.00  0.00    +0.000 C 
BRANCH  12  14
ATOM     13  O   UNL     1      23.155  24.771   2.271  0.00  0.00    +0.000 OA
ATOM     14  C   UNL     1      23.331  23.651   1.809  0.00  0.00    +0.000 C 
BRANCH  14  15
ATOM     15  O   UNL     1      24.145  23.262   0.785  0.00  0.00    +0.000 OA
ATOM     16  C   UNL     1      25.429  22.788   1.107  0.00  0.00    +0.000 C 
ENDBRANCH  14  15
ENDBRANCH  12  14
ENDBRANCH   1  11
TORSDOF 5
ENDMDL
