MODEL 1
REMARK VINA RESULT:      -6.6      0.000      0.000
REMARK  Name = 5358691_Yuanhuacine.pdbqt.pdb
REMARK  12 active torsions:
REMARK  status: ('A' for Active; 'I' for Inactive)
REMARK    1  A    between atoms: C_9  and  C_48
REMARK    2  A    between atoms: C_13  and  C_23
REMARK    3  A    between atoms: C_14  and  O_26
REMARK    4  A    between atoms: C_15  and  O_28
REMARK    5  A    between atoms: C_16  and  O_39
REMARK    6  A    between atoms: C_17  and  C_30
REMARK    7  A    between atoms: C_31  and  C_32
REMARK    8  A    between atoms: C_33  and  C_34
REMARK    9  A    between atoms: C_35  and  C_36
REMARK   10  A    between atoms: O_39  and  C_41
REMARK   11  A    between atoms: C_41  and  C_42
REMARK   12  A    between atoms: C_48  and  O_49
REMARK                            x       y       z     vdW  Elec       q    Type
REMARK                         _______ _______ _______ _____ _____    ______ ____
ROOT
ATOM      1  O   UNL     1      20.532  13.888  32.209  0.00  0.00    +0.000 OA
ATOM      2  O   UNL     1      19.474  16.767  33.899  0.00  0.00    +0.000 OA
ATOM      3  O   UNL     1      19.704  17.083  31.558  0.00  0.00    +0.000 OA
ATOM      4  O   UNL     1      19.965  18.886  32.950  0.00  0.00    +0.000 OA
ATOM      5  O   UNL     1      22.397  12.632  36.906  0.00  0.00    +0.000 OA
ATOM      6  C   UNL     1      21.409  16.023  32.629  0.00  0.00    +0.000 C 
ATOM      7  C   UNL     1      20.852  16.301  34.033  0.00  0.00    +0.000 C 
ATOM      8  C   UNL     1      21.599  14.732  32.030  0.00  0.00    +0.000 C 
ATOM      9  C   UNL     1      21.832  13.374  32.526  0.00  0.00    +0.000 C 
ATOM     10  C   UNL     1      21.069  17.197  31.817  0.00  0.00    +0.000 C 
ATOM     11  C   UNL     1      20.820  15.068  34.884  0.00  0.00    +0.000 C 
ATOM     12  C   UNL     1      21.696  17.437  34.686  0.00  0.00    +0.000 C 
ATOM     13  C   UNL     1      21.304  18.581  32.468  0.00  0.00    +0.000 C 
ATOM     14  C   UNL     1      22.037  14.182  35.027  0.00  0.00    +0.000 C 
ATOM     15  C   UNL     1      22.238  13.165  33.942  0.00  0.00    +0.000 C 
ATOM     16  C   UNL     1      22.114  18.466  33.748  0.00  0.00    +0.000 C 
ATOM     17  C   UNL     1      19.248  17.664  32.784  0.00  0.00    +0.000 C 
ATOM     18  C   UNL     1      19.939  14.800  35.962  0.00  0.00    +0.000 C 
ATOM     19  C   UNL     1      21.900  17.663  36.185  0.00  0.00    +0.000 C 
ATOM     20  C   UNL     1      21.674  13.469  36.372  0.00  0.00    +0.000 C 
ATOM     21  C   UNL     1      20.339  13.955  36.851  0.00  0.00    +0.000 C 
ATOM     22  C   UNL     1      19.424  13.237  37.788  0.00  0.00    +0.000 C 
ENDROOT
BRANCH  13  23
ATOM     23  C   UNL     1      21.808  19.585  31.405  0.00  0.00    +0.000 C 
ATOM     24  C   UNL     1      21.665  21.102  31.522  0.00  0.00    +0.000 C 
ATOM     25  C   UNL     1      22.161  19.229  30.153  0.00  0.00    +0.000 C 
ENDBRANCH  13  23
BRANCH  14  26
ATOM     26  O   UNL     1      23.218  14.948  35.129  0.00  0.00    +0.000 OA
ATOM     27  H   UNL     1      23.757  14.758  34.336  0.00  0.00    +0.000 HD
ENDBRANCH  14  26
BRANCH  15  28
ATOM     28  O   UNL     1      23.013  12.047  34.262  0.00  0.00    +0.000 OA
ATOM     29  H   UNL     1      23.448  12.082  35.140  0.00  0.00    +0.000 HD
ENDBRANCH  15  28
BRANCH  17  30
ATOM     30  C   UNL     1      17.820  17.950  32.693  0.00  0.00    +0.000 C 
ATOM     31  C   UNL     1      16.645  18.183  32.619  0.00  0.00    +0.000 C 
BRANCH  31  32
ATOM     32  C   UNL     1      15.146  18.481  32.527  0.00  0.00    +0.000 C 
ATOM     33  C   UNL     1      13.971  18.715  32.453  0.00  0.00    +0.000 C 
BRANCH  33  34
ATOM     34  C   UNL     1      12.471  19.015  32.358  0.00  0.00    +0.000 C 
ATOM     35  C   UNL     1      10.974  19.315  32.262  0.00  0.00    +0.000 C 
BRANCH  35  36
ATOM     36  C   UNL     1       9.473  19.614  32.166  0.00  0.00    +0.000 C 
ATOM     37  C   UNL     1       7.974  19.911  32.071  0.00  0.00    +0.000 C 
ATOM     38  C   UNL     1       6.474  20.209  31.976  0.00  0.00    +0.000 C 
ENDBRANCH  35  36
ENDBRANCH  33  34
ENDBRANCH  31  32
ENDBRANCH  17  30
BRANCH  16  39
ATOM     39  O   UNL     1      23.189  19.295  34.111  0.00  0.00    +0.000 OA
BRANCH  39  41
ATOM     40  O   UNL     1      24.985  17.986  34.698  0.00  0.00    +0.000 OA
ATOM     41  C   UNL     1      24.420  18.735  33.918  0.00  0.00    +0.000 C 
BRANCH  41  42
ATOM     42  C   UNL     1      25.000  19.199  32.645  0.00  0.00    +0.000 A 
ATOM     43  C   UNL     1      25.359  18.304  31.638  0.00  0.00    +0.000 A 
ATOM     44  C   UNL     1      25.184  20.569  32.464  0.00  0.00    +0.000 A 
ATOM     45  C   UNL     1      25.902  18.781  30.447  0.00  0.00    +0.000 A 
ATOM     46  C   UNL     1      25.727  21.043  31.273  0.00  0.00    +0.000 A 
ATOM     47  C   UNL     1      26.086  20.150  30.266  0.00  0.00    +0.000 A 
ENDBRANCH  41  42
ENDBRANCH  39  41
ENDBRANCH  16  39
BRANCH   9  48
ATOM     48  C   UNL     1      22.202  12.349  31.560  0.00  0.00    +0.000 C 
BRANCH  48  49
ATOM     49  O   UNL     1      22.543  11.417  30.674  0.00  0.00    +0.000 OA
ATOM     50  H   UNL     1      23.179  11.775  30.030  0.00  0.00    +0.000 HD
ENDBRANCH  48  49
ENDBRANCH   9  48
TORSDOF 12
ENDMDL
MODEL 2
REMARK VINA RESULT:      -6.1     10.125     15.211
REMARK  Name = 5358691_Yuanhuacine.pdbqt.pdb
REMARK  12 active torsions:
REMARK  status: ('A' for Active; 'I' for Inactive)
REMARK    1  A    between atoms: C_9  and  C_48
REMARK    2  A    between atoms: C_13  and  C_23
REMARK    3  A    between atoms: C_14  and  O_26
REMARK    4  A    between atoms: C_15  and  O_28
REMARK    5  A    between atoms: C_16  and  O_39
REMARK    6  A    between atoms: C_17  and  C_30
REMARK    7  A    between atoms: C_31  and  C_32
REMARK    8  A    between atoms: C_33  and  C_34
REMARK    9  A    between atoms: C_35  and  C_36
REMARK   10  A    between atoms: O_39  and  C_41
REMARK   11  A    between atoms: C_41  and  C_42
REMARK   12  A    between atoms: C_48  and  O_49
REMARK                            x       y       z     vdW  Elec       q    Type
REMARK                         _______ _______ _______ _____ _____    ______ ____
ROOT
ATOM      1  O   UNL     1      31.295  24.964  37.870  0.00  0.00    +0.000 OA
ATOM      2  O   UNL     1      31.837  22.589  35.356  0.00  0.00    +0.000 OA
ATOM      3  O   UNL     1      31.287  21.626  37.454  0.00  0.00    +0.000 OA
ATOM      4  O   UNL     1      32.563  20.418  35.981  0.00  0.00    +0.000 OA
ATOM      5  O   UNL     1      34.266  27.924  34.782  0.00  0.00    +0.000 OA
ATOM      6  C   UNL     1      32.862  23.269  37.452  0.00  0.00    +0.000 C 
ATOM      7  C   UNL     1      32.962  23.329  35.921  0.00  0.00    +0.000 C 
ATOM      8  C   UNL     1      32.425  24.328  38.318  0.00  0.00    +0.000 C 
ATOM      9  C   UNL     1      32.403  25.790  38.252  0.00  0.00    +0.000 C 
ATOM     10  C   UNL     1      32.620  21.861  37.789  0.00  0.00    +0.000 C 
ATOM     11  C   UNL     1      32.872  24.732  35.403  0.00  0.00    +0.000 C 
ATOM     12  C   UNL     1      34.285  22.631  35.482  0.00  0.00    +0.000 C 
ATOM     13  C   UNL     1      33.479  20.813  37.041  0.00  0.00    +0.000 C 
ATOM     14  C   UNL     1      33.732  25.837  35.975  0.00  0.00    +0.000 C 
ATOM     15  C   UNL     1      33.211  26.494  37.220  0.00  0.00    +0.000 C 
ATOM     16  C   UNL     1      34.622  21.465  36.284  0.00  0.00    +0.000 C 
ATOM     17  C   UNL     1      31.503  21.369  36.062  0.00  0.00    +0.000 C 
ATOM     18  C   UNL     1      32.405  25.140  34.128  0.00  0.00    +0.000 C 
ATOM     19  C   UNL     1      35.075  22.915  34.205  0.00  0.00    +0.000 C 
ATOM     20  C   UNL     1      33.685  26.841  34.776  0.00  0.00    +0.000 C 
ATOM     21  C   UNL     1      32.826  26.277  33.684  0.00  0.00    +0.000 C 
ATOM     22  C   UNL     1      32.143  27.055  32.609  0.00  0.00    +0.000 C 
ENDROOT
BRANCH  13  23
ATOM     23  C   UNL     1      33.839  19.650  37.995  0.00  0.00    +0.000 C 
ATOM     24  C   UNL     1      33.853  18.178  37.585  0.00  0.00    +0.000 C 
ATOM     25  C   UNL     1      33.898  19.778  39.336  0.00  0.00    +0.000 C 
ENDBRANCH  13  23
BRANCH  14  26
ATOM     26  O   UNL     1      35.041  25.380  36.240  0.00  0.00    +0.000 OA
ATOM     27  H   UNL     1      35.563  26.151  36.540  0.00  0.00    +0.000 HD
ENDBRANCH  14  26
BRANCH  15  28
ATOM     28  O   UNL     1      33.676  27.784  37.493  0.00  0.00    +0.000 OA
ATOM     29  H   UNL     1      33.091  28.509  37.185  0.00  0.00    +0.000 HD
ENDBRANCH  15  28
BRANCH  17  30
ATOM     30  C   UNL     1      30.295  20.800  35.473  0.00  0.00    +0.000 C 
ATOM     31  C   UNL     1      29.303  20.333  34.987  0.00  0.00    +0.000 C 
BRANCH  31  32
ATOM     32  C   UNL     1      28.037  19.735  34.365  0.00  0.00    +0.000 C 
ATOM     33  C   UNL     1      27.046  19.266  33.878  0.00  0.00    +0.000 C 
BRANCH  33  34
ATOM     34  C   UNL     1      25.782  18.666  33.254  0.00  0.00    +0.000 C 
ATOM     35  C   UNL     1      24.519  18.067  32.630  0.00  0.00    +0.000 C 
BRANCH  35  36
ATOM     36  C   UNL     1      23.256  17.466  32.005  0.00  0.00    +0.000 C 
ATOM     37  C   UNL     1      21.993  16.865  31.381  0.00  0.00    +0.000 C 
ATOM     38  C   UNL     1      20.728  16.266  30.757  0.00  0.00    +0.000 C 
ENDBRANCH  35  36
ENDBRANCH  33  34
ENDBRANCH  31  32
ENDBRANCH  17  30
BRANCH  16  39
ATOM     39  O   UNL     1      35.951  21.009  36.261  0.00  0.00    +0.000 OA
BRANCH  39  41
ATOM     40  O   UNL     1      36.448  22.134  38.202  0.00  0.00    +0.000 OA
ATOM     41  C   UNL     1      36.781  21.655  37.131  0.00  0.00    +0.000 C 
BRANCH  41  42
ATOM     42  C   UNL     1      38.144  21.736  36.575  0.00  0.00    +0.000 A 
ATOM     43  C   UNL     1      39.143  20.841  36.958  0.00  0.00    +0.000 A 
ATOM     44  C   UNL     1      38.419  22.736  35.644  0.00  0.00    +0.000 A 
ATOM     45  C   UNL     1      40.418  20.949  36.408  0.00  0.00    +0.000 A 
ATOM     46  C   UNL     1      39.694  22.841  35.095  0.00  0.00    +0.000 A 
ATOM     47  C   UNL     1      40.692  21.948  35.478  0.00  0.00    +0.000 A 
ENDBRANCH  41  42
ENDBRANCH  39  41
ENDBRANCH  16  39
BRANCH   9  48
ATOM     48  C   UNL     1      32.072  26.524  39.465  0.00  0.00    +0.000 C 
BRANCH  48  49
ATOM     49  O   UNL     1      31.768  27.200  40.570  0.00  0.00    +0.000 OA
ATOM     50  H   UNL     1      32.193  26.793  41.345  0.00  0.00    +0.000 HD
ENDBRANCH  48  49
ENDBRANCH   9  48
TORSDOF 12
ENDMDL
MODEL 3
REMARK VINA RESULT:      -6.0     30.557     33.666
REMARK  Name = 5358691_Yuanhuacine.pdbqt.pdb
REMARK  12 active torsions:
REMARK  status: ('A' for Active; 'I' for Inactive)
REMARK    1  A    between atoms: C_9  and  C_48
REMARK    2  A    between atoms: C_13  and  C_23
REMARK    3  A    between atoms: C_14  and  O_26
REMARK    4  A    between atoms: C_15  and  O_28
REMARK    5  A    between atoms: C_16  and  O_39
REMARK    6  A    between atoms: C_17  and  C_30
REMARK    7  A    between atoms: C_31  and  C_32
REMARK    8  A    between atoms: C_33  and  C_34
REMARK    9  A    between atoms: C_35  and  C_36
REMARK   10  A    between atoms: O_39  and  C_41
REMARK   11  A    between atoms: C_41  and  C_42
REMARK   12  A    between atoms: C_48  and  O_49
REMARK                            x       y       z     vdW  Elec       q    Type
REMARK                         _______ _______ _______ _____ _____    ______ ____
ROOT
ATOM      1  O   UNL     1      20.072  23.057  -0.643  0.00  0.00    +0.000 OA
ATOM      2  O   UNL     1      22.520  23.817   1.742  0.00  0.00    +0.000 OA
ATOM      3  O   UNL     1      21.952  25.660   0.359  0.00  0.00    +0.000 OA
ATOM      4  O   UNL     1      24.049  25.571   1.281  0.00  0.00    +0.000 OA
ATOM      5  O   UNL     1      21.810  18.205   0.103  0.00  0.00    +0.000 OA
ATOM      6  C   UNL     1      22.336  23.671  -0.677  0.00  0.00    +0.000 C 
ATOM      7  C   UNL     1      22.850  22.978   0.593  0.00  0.00    +0.000 C 
ATOM      8  C   UNL     1      21.167  23.310  -1.429  0.00  0.00    +0.000 C 
ATOM      9  C   UNL     1      20.400  22.081  -1.641  0.00  0.00    +0.000 C 
ATOM     10  C   UNL     1      22.783  25.066  -0.589  0.00  0.00    +0.000 C 
ATOM     11  C   UNL     1      22.197  21.648   0.815  0.00  0.00    +0.000 C 
ATOM     12  C   UNL     1      24.401  22.856   0.499  0.00  0.00    +0.000 C 
ATOM     13  C   UNL     1      24.245  25.297  -0.134  0.00  0.00    +0.000 C 
ATOM     14  C   UNL     1      22.123  20.616  -0.287  0.00  0.00    +0.000 C 
ATOM     15  C   UNL     1      20.984  20.769  -1.253  0.00  0.00    +0.000 C 
ATOM     16  C   UNL     1      25.039  24.002  -0.128  0.00  0.00    +0.000 C 
ATOM     17  C   UNL     1      22.683  25.238   1.516  0.00  0.00    +0.000 C 
ATOM     18  C   UNL     1      21.999  20.994   2.058  0.00  0.00    +0.000 C 
ATOM     19  C   UNL     1      25.268  21.802   1.189  0.00  0.00    +0.000 C 
ATOM     20  C   UNL     1      21.921  19.330   0.582  0.00  0.00    +0.000 C 
ATOM     21  C   UNL     1      21.870  19.710   2.031  0.00  0.00    +0.000 C 
ATOM     22  C   UNL     1      21.245  18.914   3.130  0.00  0.00    +0.000 C 
ENDROOT
BRANCH  13  23
ATOM     23  C   UNL     1      24.853  26.492  -0.905  0.00  0.00    +0.000 C 
ATOM     24  C   UNL     1      25.818  27.505  -0.292  0.00  0.00    +0.000 C 
ATOM     25  C   UNL     1      24.385  26.928  -2.092  0.00  0.00    +0.000 C 
ENDBRANCH  13  23
BRANCH  14  26
ATOM     26  O   UNL     1      23.322  20.576  -1.032  0.00  0.00    +0.000 OA
ATOM     27  H   UNL     1      24.017  20.992  -0.484  0.00  0.00    +0.000 HD
ENDBRANCH  14  26
BRANCH  15  28
ATOM     28  O   UNL     1      20.590  19.624  -1.950  0.00  0.00    +0.000 OA
ATOM     29  H   UNL     1      20.581  19.716  -2.926  0.00  0.00    +0.000 HD
ENDBRANCH  15  28
BRANCH  17  30
ATOM     30  C   UNL     1      22.203  25.959   2.692  0.00  0.00    +0.000 C 
ATOM     31  C   UNL     1      21.810  26.553   3.657  0.00  0.00    +0.000 C 
BRANCH  31  32
ATOM     32  C   UNL     1      21.308  27.313   4.888  0.00  0.00    +0.000 C 
ATOM     33  C   UNL     1      20.913  27.907   5.854  0.00  0.00    +0.000 C 
BRANCH  33  34
ATOM     34  C   UNL     1      20.409  28.664   7.086  0.00  0.00    +0.000 C 
ATOM     35  C   UNL     1      19.904  29.421   8.317  0.00  0.00    +0.000 C 
BRANCH  35  36
ATOM     36  C   UNL     1      19.397  30.179   9.549  0.00  0.00    +0.000 C 
ATOM     37  C   UNL     1      18.891  30.935  10.781  0.00  0.00    +0.000 C 
ATOM     38  C   UNL     1      18.385  31.691  12.014  0.00  0.00    +0.000 C 
ENDBRANCH  35  36
ENDBRANCH  33  34
ENDBRANCH  31  32
ENDBRANCH  17  30
BRANCH  16  39
ATOM     39  O   UNL     1      26.340  23.841  -0.633  0.00  0.00    +0.000 OA
BRANCH  39  41
ATOM     40  O   UNL     1      25.430  23.414  -2.699  0.00  0.00    +0.000 OA
ATOM     41  C   UNL     1      26.395  23.561  -1.968  0.00  0.00    +0.000 C 
BRANCH  41  42
ATOM     42  C   UNL     1      27.795  23.414  -2.404  0.00  0.00    +0.000 A 
ATOM     43  C   UNL     1      28.143  23.414  -3.754  0.00  0.00    +0.000 A 
ATOM     44  C   UNL     1      28.780  23.275  -1.426  0.00  0.00    +0.000 A 
ATOM     45  C   UNL     1      29.478  23.275  -4.126  0.00  0.00    +0.000 A 
ATOM     46  C   UNL     1      30.113  23.136  -1.801  0.00  0.00    +0.000 A 
ATOM     47  C   UNL     1      30.462  23.136  -3.150  0.00  0.00    +0.000 A 
ENDBRANCH  41  42
ENDBRANCH  39  41
ENDBRANCH  16  39
BRANCH   9  48
ATOM     48  C   UNL     1      19.380  22.084  -2.682  0.00  0.00    +0.000 C 
BRANCH  48  49
ATOM     49  O   UNL     1      18.454  22.085  -3.637  0.00  0.00    +0.000 OA
ATOM     50  H   UNL     1      17.761  22.739  -3.437  0.00  0.00    +0.000 HD
ENDBRANCH  48  49
ENDBRANCH   9  48
TORSDOF 12
ENDMDL
MODEL 4
REMARK VINA RESULT:      -5.8     13.857     19.207
REMARK  Name = 5358691_Yuanhuacine.pdbqt.pdb
REMARK  12 active torsions:
REMARK  status: ('A' for Active; 'I' for Inactive)
REMARK    1  A    between atoms: C_9  and  C_48
REMARK    2  A    between atoms: C_13  and  C_23
REMARK    3  A    between atoms: C_14  and  O_26
REMARK    4  A    between atoms: C_15  and  O_28
REMARK    5  A    between atoms: C_16  and  O_39
REMARK    6  A    between atoms: C_17  and  C_30
REMARK    7  A    between atoms: C_31  and  C_32
REMARK    8  A    between atoms: C_33  and  C_34
REMARK    9  A    between atoms: C_35  and  C_36
REMARK   10  A    between atoms: O_39  and  C_41
REMARK   11  A    between atoms: C_41  and  C_42
REMARK   12  A    between atoms: C_48  and  O_49
REMARK                            x       y       z     vdW  Elec       q    Type
REMARK                         _______ _______ _______ _____ _____    ______ ____
ROOT
ATOM      1  O   UNL     1      14.101  -1.077  26.914  0.00  0.00    +0.000 OA
ATOM      2  O   UNL     1      16.920   0.758  27.887  0.00  0.00    +0.000 OA
ATOM      3  O   UNL     1      15.213   0.712  29.536  0.00  0.00    +0.000 OA
ATOM      4  O   UNL     1      16.649   2.499  29.476  0.00  0.00    +0.000 OA
ATOM      5  O   UNL     1      15.884  -0.004  22.140  0.00  0.00    +0.000 OA
ATOM      6  C   UNL     1      14.574   1.169  27.400  0.00  0.00    +0.000 C 
ATOM      7  C   UNL     1      16.012   1.290  26.874  0.00  0.00    +0.000 C 
ATOM      8  C   UNL     1      13.599   0.197  26.994  0.00  0.00    +0.000 C 
ATOM      9  C   UNL     1      13.354  -0.596  25.788  0.00  0.00    +0.000 C 
ATOM     10  C   UNL     1      14.596   1.699  28.769  0.00  0.00    +0.000 C 
ATOM     11  C   UNL     1      16.226   0.489  25.626  0.00  0.00    +0.000 C 
ATOM     12  C   UNL     1      16.338   2.799  26.661  0.00  0.00    +0.000 C 
ATOM     13  C   UNL     1      15.379   3.016  28.989  0.00  0.00    +0.000 C 
ATOM     14  C   UNL     1      15.283   0.603  24.449  0.00  0.00    +0.000 C 
ATOM     15  C   UNL     1      14.045  -0.242  24.518  0.00  0.00    +0.000 C 
ATOM     16  C   UNL     1      15.756   3.669  27.670  0.00  0.00    +0.000 C 
ATOM     17  C   UNL     1      16.564   1.093  29.251  0.00  0.00    +0.000 C 
ATOM     18  C   UNL     1      17.449  -0.067  25.171  0.00  0.00    +0.000 C 
ATOM     19  C   UNL     1      17.358   3.372  25.677  0.00  0.00    +0.000 C 
ATOM     20  C   UNL     1      16.228   0.082  23.316  0.00  0.00    +0.000 C 
ATOM     21  C   UNL     1      17.554  -0.296  23.905  0.00  0.00    +0.000 C 
ATOM     22  C   UNL     1      18.547  -1.240  23.310  0.00  0.00    +0.000 C 
ENDROOT
BRANCH  13  23
ATOM     23  C   UNL     1      14.646   3.898  30.027  0.00  0.00    +0.000 C 
ATOM     24  C   UNL     1      15.337   4.609  31.189  0.00  0.00    +0.000 C 
ATOM     25  C   UNL     1      13.306   3.902  30.187  0.00  0.00    +0.000 C 
ENDBRANCH  13  23
BRANCH  14  26
ATOM     26  O   UNL     1      14.885   1.941  24.241  0.00  0.00    +0.000 OA
ATOM     27  H   UNL     1      14.515   2.269  25.085  0.00  0.00    +0.000 HD
ENDBRANCH  14  26
BRANCH  15  28
ATOM     28  O   UNL     1      13.422  -0.548  23.306  0.00  0.00    +0.000 OA
ATOM     29  H   UNL     1      13.623  -1.441  22.950  0.00  0.00    +0.000 HD
ENDBRANCH  15  28
BRANCH  17  30
ATOM     30  C   UNL     1      17.474   0.401  30.158  0.00  0.00    +0.000 C 
ATOM     31  C   UNL     1      18.222  -0.167  30.905  0.00  0.00    +0.000 C 
BRANCH  31  32
ATOM     32  C   UNL     1      19.177  -0.889  31.859  0.00  0.00    +0.000 C 
ATOM     33  C   UNL     1      19.925  -1.455  32.608  0.00  0.00    +0.000 C 
BRANCH  33  34
ATOM     34  C   UNL     1      20.882  -2.176  33.563  0.00  0.00    +0.000 C 
ATOM     35  C   UNL     1      21.838  -2.896  34.517  0.00  0.00    +0.000 C 
BRANCH  35  36
ATOM     36  C   UNL     1      22.796  -3.617  35.472  0.00  0.00    +0.000 C 
ATOM     37  C   UNL     1      23.752  -4.338  36.426  0.00  0.00    +0.000 C 
ATOM     38  C   UNL     1      24.709  -5.060  37.381  0.00  0.00    +0.000 C 
ENDBRANCH  35  36
ENDBRANCH  33  34
ENDBRANCH  31  32
ENDBRANCH  17  30
BRANCH  16  39
ATOM     39  O   UNL     1      15.630   5.036  27.371  0.00  0.00    +0.000 OA
BRANCH  39  41
ATOM     40  O   UNL     1      13.416   4.738  26.830  0.00  0.00    +0.000 OA
ATOM     41  C   UNL     1      14.344   5.451  27.173  0.00  0.00    +0.000 C 
BRANCH  41  42
ATOM     42  C   UNL     1      14.237   6.906  27.387  0.00  0.00    +0.000 A 
ATOM     43  C   UNL     1      13.950   7.439  28.644  0.00  0.00    +0.000 A 
ATOM     44  C   UNL     1      14.432   7.750  26.296  0.00  0.00    +0.000 A 
ATOM     45  C   UNL     1      13.858   8.819  28.807  0.00  0.00    +0.000 A 
ATOM     46  C   UNL     1      14.340   9.129  26.462  0.00  0.00    +0.000 A 
ATOM     47  C   UNL     1      14.054   9.663  27.716  0.00  0.00    +0.000 A 
ENDBRANCH  41  42
ENDBRANCH  39  41
ENDBRANCH  16  39
BRANCH   9  48
ATOM     48  C   UNL     1      12.094  -1.321  25.691  0.00  0.00    +0.000 C 
BRANCH  48  49
ATOM     49  O   UNL     1      10.947  -1.987  25.604  0.00  0.00    +0.000 OA
ATOM     50  H   UNL     1      11.101  -2.890  25.275  0.00  0.00    +0.000 HD
ENDBRANCH  48  49
ENDBRANCH   9  48
TORSDOF 12
ENDMDL
MODEL 5
REMARK VINA RESULT:      -5.7     13.675     17.073
REMARK  Name = 5358691_Yuanhuacine.pdbqt.pdb
REMARK  12 active torsions:
REMARK  status: ('A' for Active; 'I' for Inactive)
REMARK    1  A    between atoms: C_9  and  C_48
REMARK    2  A    between atoms: C_13  and  C_23
REMARK    3  A    between atoms: C_14  and  O_26
REMARK    4  A    between atoms: C_15  and  O_28
REMARK    5  A    between atoms: C_16  and  O_39
REMARK    6  A    between atoms: C_17  and  C_30
REMARK    7  A    between atoms: C_31  and  C_32
REMARK    8  A    between atoms: C_33  and  C_34
REMARK    9  A    between atoms: C_35  and  C_36
REMARK   10  A    between atoms: O_39  and  C_41
REMARK   11  A    between atoms: C_41  and  C_42
REMARK   12  A    between atoms: C_48  and  O_49
REMARK                            x       y       z     vdW  Elec       q    Type
REMARK                         _______ _______ _______ _____ _____    ______ ____
ROOT
ATOM      1  O   UNL     1      13.935   5.298  32.890  0.00  0.00    +0.000 OA
ATOM      2  O   UNL     1      12.467   4.014  29.982  0.00  0.00    +0.000 OA
ATOM      3  O   UNL     1      13.841   2.444  31.112  0.00  0.00    +0.000 OA
ATOM      4  O   UNL     1      13.559   2.240  28.846  0.00  0.00    +0.000 OA
ATOM      5  O   UNL     1      13.136   9.845  30.479  0.00  0.00    +0.000 OA
ATOM      6  C   UNL     1      14.694   4.532  30.807  0.00  0.00    +0.000 C 
ATOM      7  C   UNL     1      13.551   4.988  29.888  0.00  0.00    +0.000 C 
ATOM      8  C   UNL     1      15.028   5.086  32.088  0.00  0.00    +0.000 C 
ATOM      9  C   UNL     1      14.859   6.385  32.741  0.00  0.00    +0.000 C 
ATOM     10  C   UNL     1      14.909   3.110  30.512  0.00  0.00    +0.000 C 
ATOM     11  C   UNL     1      12.990   6.315  30.301  0.00  0.00    +0.000 C 
ATOM     12  C   UNL     1      14.072   5.009  28.419  0.00  0.00    +0.000 C 
ATOM     13  C   UNL     1      14.926   2.707  29.017  0.00  0.00    +0.000 C 
ATOM     14  C   UNL     1      13.890   7.502  30.559  0.00  0.00    +0.000 C 
ATOM     15  C   UNL     1      14.498   7.578  31.929  0.00  0.00    +0.000 C 
ATOM     16  C   UNL     1      14.991   3.925  28.112  0.00  0.00    +0.000 C 
ATOM     17  C   UNL     1      12.901   2.634  30.049  0.00  0.00    +0.000 C 
ATOM     18  C   UNL     1      11.672   6.789  30.074  0.00  0.00    +0.000 C 
ATOM     19  C   UNL     1      13.537   5.882  27.284  0.00  0.00    +0.000 C 
ATOM     20  C   UNL     1      12.850   8.655  30.367  0.00  0.00    +0.000 C 
ATOM     21  C   UNL     1      11.504   8.069  30.060  0.00  0.00    +0.000 C 
ATOM     22  C   UNL     1      10.184   8.736  30.266  0.00  0.00    +0.000 C 
ENDROOT
BRANCH  13  23
ATOM     23  C   UNL     1      15.979   1.599  28.783  0.00  0.00    +0.000 C 
ATOM     24  C   UNL     1      15.645   0.188  28.300  0.00  0.00    +0.000 C 
ATOM     25  C   UNL     1      17.245   1.664  29.244  0.00  0.00    +0.000 C 
ENDBRANCH  13  23
BRANCH  14  26
ATOM     26  O   UNL     1      14.937   7.563  29.614  0.00  0.00    +0.000 OA
ATOM     27  H   UNL     1      15.002   6.683  29.195  0.00  0.00    +0.000 HD
ENDBRANCH  14  26
BRANCH  15  28
ATOM     28  O   UNL     1      14.907   8.840  32.368  0.00  0.00    +0.000 OA
ATOM     29  H   UNL     1      15.875   8.997  32.335  0.00  0.00    +0.000 HD
ENDBRANCH  15  28
BRANCH  17  30
ATOM     30  C   UNL     1      11.735   1.784  30.264  0.00  0.00    +0.000 C 
ATOM     31  C   UNL     1      10.776   1.083  30.440  0.00  0.00    +0.000 C 
BRANCH  31  32
ATOM     32  C   UNL     1       9.554   0.189  30.663  0.00  0.00    +0.000 C 
ATOM     33  C   UNL     1       8.596  -0.513  30.838  0.00  0.00    +0.000 C 
BRANCH  33  34
ATOM     34  C   UNL     1       7.374  -1.410  31.059  0.00  0.00    +0.000 C 
ATOM     35  C   UNL     1       6.153  -2.307  31.280  0.00  0.00    +0.000 C 
BRANCH  35  36
ATOM     36  C   UNL     1       4.931  -3.204  31.503  0.00  0.00    +0.000 C 
ATOM     37  C   UNL     1       3.709  -4.100  31.726  0.00  0.00    +0.000 C 
ATOM     38  C   UNL     1       2.486  -4.995  31.950  0.00  0.00    +0.000 C 
ENDBRANCH  35  36
ENDBRANCH  33  34
ENDBRANCH  31  32
ENDBRANCH  17  30
BRANCH  16  39
ATOM     39  O   UNL     1      15.825   4.063  26.990  0.00  0.00    +0.000 OA
BRANCH  39  41
ATOM     40  O   UNL     1      14.438   2.939  25.542  0.00  0.00    +0.000 OA
ATOM     41  C   UNL     1      15.550   3.192  25.975  0.00  0.00    +0.000 C 
BRANCH  41  42
ATOM     42  C   UNL     1      16.791   2.557  25.495  0.00  0.00    +0.000 A 
ATOM     43  C   UNL     1      18.035   3.164  25.665  0.00  0.00    +0.000 A 
ATOM     44  C   UNL     1      16.697   1.318  24.862  0.00  0.00    +0.000 A 
ATOM     45  C   UNL     1      19.185   2.532  25.199  0.00  0.00    +0.000 A 
ATOM     46  C   UNL     1      17.848   0.688  24.398  0.00  0.00    +0.000 A 
ATOM     47  C   UNL     1      19.091   1.294  24.566  0.00  0.00    +0.000 A 
ENDBRANCH  41  42
ENDBRANCH  39  41
ENDBRANCH  16  39
BRANCH   9  48
ATOM     48  C   UNL     1      15.554   6.612  34.001  0.00  0.00    +0.000 C 
BRANCH  48  49
ATOM     49  O   UNL     1      16.185   6.825  35.152  0.00  0.00    +0.000 OA
ATOM     50  H   UNL     1      16.622   6.010  35.457  0.00  0.00    +0.000 HD
ENDBRANCH  48  49
ENDBRANCH   9  48
TORSDOF 12
ENDMDL
MODEL 6
REMARK VINA RESULT:      -5.7     30.998     35.305
REMARK  Name = 5358691_Yuanhuacine.pdbqt.pdb
REMARK  12 active torsions:
REMARK  status: ('A' for Active; 'I' for Inactive)
REMARK    1  A    between atoms: C_9  and  C_48
REMARK    2  A    between atoms: C_13  and  C_23
REMARK    3  A    between atoms: C_14  and  O_26
REMARK    4  A    between atoms: C_15  and  O_28
REMARK    5  A    between atoms: C_16  and  O_39
REMARK    6  A    between atoms: C_17  and  C_30
REMARK    7  A    between atoms: C_31  and  C_32
REMARK    8  A    between atoms: C_33  and  C_34
REMARK    9  A    between atoms: C_35  and  C_36
REMARK   10  A    between atoms: O_39  and  C_41
REMARK   11  A    between atoms: C_41  and  C_42
REMARK   12  A    between atoms: C_48  and  O_49
REMARK                            x       y       z     vdW  Elec       q    Type
REMARK                         _______ _______ _______ _____ _____    ______ ____
ROOT
ATOM      1  O   UNL     1      22.887  27.091  -1.042  0.00  0.00    +0.000 OA
ATOM      2  O   UNL     1      24.890  24.578   0.349  0.00  0.00    +0.000 OA
ATOM      3  O   UNL     1      23.787  23.906  -1.642  0.00  0.00    +0.000 OA
ATOM      4  O   UNL     1      24.337  22.313  -0.087  0.00  0.00    +0.000 OA
ATOM      5  O   UNL     1      22.909  28.881   3.848  0.00  0.00    +0.000 OA
ATOM      6  C   UNL     1      22.532  24.982  -0.078  0.00  0.00    +0.000 C 
ATOM      7  C   UNL     1      23.634  24.955   0.991  0.00  0.00    +0.000 C 
ATOM      8  C   UNL     1      21.955  26.153  -0.676  0.00  0.00    +0.000 C 
ATOM      9  C   UNL     1      21.767  27.547  -0.272  0.00  0.00    +0.000 C 
ATOM     10  C   UNL     1      22.666  23.729  -0.832  0.00  0.00    +0.000 C 
ATOM     11  C   UNL     1      23.845  26.298   1.619  0.00  0.00    +0.000 C 
ATOM     12  C   UNL     1      23.273  23.868   2.048  0.00  0.00    +0.000 C 
ATOM     13  C   UNL     1      22.890  22.442  -0.002  0.00  0.00    +0.000 C 
ATOM     14  C   UNL     1      22.684  27.103   2.159  0.00  0.00    +0.000 C 
ATOM     15  C   UNL     1      21.938  27.932   1.155  0.00  0.00    +0.000 C 
ATOM     16  C   UNL     1      22.652  22.684   1.478  0.00  0.00    +0.000 C 
ATOM     17  C   UNL     1      24.765  23.546  -0.660  0.00  0.00    +0.000 C 
ATOM     18  C   UNL     1      25.041  26.787   2.204  0.00  0.00    +0.000 C 
ATOM     19  C   UNL     1      23.716  23.850   3.512  0.00  0.00    +0.000 C 
ATOM     20  C   UNL     1      23.459  28.031   3.153  0.00  0.00    +0.000 C 
ATOM     21  C   UNL     1      24.925  27.722   3.086  0.00  0.00    +0.000 C 
ATOM     22  C   UNL     1      26.038  28.635   3.481  0.00  0.00    +0.000 C 
ENDROOT
BRANCH  13  23
ATOM     23  C   UNL     1      22.136  21.259  -0.653  0.00  0.00    +0.000 C 
ATOM     24  C   UNL     1      22.820  20.016  -1.222  0.00  0.00    +0.000 C 
ATOM     25  C   UNL     1      20.846  21.320  -1.041  0.00  0.00    +0.000 C 
ENDBRANCH  13  23
BRANCH  14  26
ATOM     26  O   UNL     1      21.750  26.274   2.819  0.00  0.00    +0.000 OA
ATOM     27  H   UNL     1      21.037  26.851   3.157  0.00  0.00    +0.000 HD
ENDBRANCH  14  26
BRANCH  15  28
ATOM     28  O   UNL     1      21.219  29.024   1.648  0.00  0.00    +0.000 OA
ATOM     29  H   UNL     1      20.328  29.145   1.255  0.00  0.00    +0.000 HD
ENDBRANCH  15  28
BRANCH  17  30
ATOM     30  C   UNL     1      26.062  23.358  -1.303  0.00  0.00    +0.000 C 
ATOM     31  C   UNL     1      27.128  23.201  -1.832  0.00  0.00    +0.000 C 
BRANCH  31  32
ATOM     32  C   UNL     1      28.486  23.000  -2.508  0.00  0.00    +0.000 C 
ATOM     33  C   UNL     1      29.551  22.841  -3.039  0.00  0.00    +0.000 C 
BRANCH  33  34
ATOM     34  C   UNL     1      30.910  22.637  -3.718  0.00  0.00    +0.000 C 
ATOM     35  C   UNL     1      32.267  22.433  -4.395  0.00  0.00    +0.000 C 
BRANCH  35  36
ATOM     36  C   UNL     1      33.626  22.227  -5.072  0.00  0.00    +0.000 C 
ATOM     37  C   UNL     1      34.984  22.022  -5.750  0.00  0.00    +0.000 C 
ATOM     38  C   UNL     1      36.342  21.817  -6.430  0.00  0.00    +0.000 C 
ENDBRANCH  35  36
ENDBRANCH  33  34
ENDBRANCH  31  32
ENDBRANCH  17  30
BRANCH  16  39
ATOM     39  O   UNL     1      21.926  21.840   2.336  0.00  0.00    +0.000 OA
BRANCH  39  41
ATOM     40  O   UNL     1      23.678  20.351   2.343  0.00  0.00    +0.000 OA
ATOM     41  C   UNL     1      22.506  20.621   2.547  0.00  0.00    +0.000 C 
BRANCH  41  42
ATOM     42  C   UNL     1      21.502  19.651   3.020  0.00  0.00    +0.000 A 
ATOM     43  C   UNL     1      21.733  18.846   4.134  0.00  0.00    +0.000 A 
ATOM     44  C   UNL     1      20.298  19.555   2.322  0.00  0.00    +0.000 A 
ATOM     45  C   UNL     1      20.758  17.942   4.551  0.00  0.00    +0.000 A 
ATOM     46  C   UNL     1      19.326  18.651   2.741  0.00  0.00    +0.000 A 
ATOM     47  C   UNL     1      19.556  17.846   3.854  0.00  0.00    +0.000 A 
ENDBRANCH  41  42
ENDBRANCH  39  41
ENDBRANCH  16  39
BRANCH   9  48
ATOM     48  C   UNL     1      20.914  28.389  -1.100  0.00  0.00    +0.000 C 
BRANCH  48  49
ATOM     49  O   UNL     1      20.130  29.156  -1.852  0.00  0.00    +0.000 OA
ATOM     50  H   UNL     1      20.378  29.079  -2.790  0.00  0.00    +0.000 HD
ENDBRANCH  48  49
ENDBRANCH   9  48
TORSDOF 12
ENDMDL
MODEL 7
REMARK VINA RESULT:      -5.4     18.287     24.738
REMARK  Name = 5358691_Yuanhuacine.pdbqt.pdb
REMARK  12 active torsions:
REMARK  status: ('A' for Active; 'I' for Inactive)
REMARK    1  A    between atoms: C_9  and  C_48
REMARK    2  A    between atoms: C_13  and  C_23
REMARK    3  A    between atoms: C_14  and  O_26
REMARK    4  A    between atoms: C_15  and  O_28
REMARK    5  A    between atoms: C_16  and  O_39
REMARK    6  A    between atoms: C_17  and  C_30
REMARK    7  A    between atoms: C_31  and  C_32
REMARK    8  A    between atoms: C_33  and  C_34
REMARK    9  A    between atoms: C_35  and  C_36
REMARK   10  A    between atoms: O_39  and  C_41
REMARK   11  A    between atoms: C_41  and  C_42
REMARK   12  A    between atoms: C_48  and  O_49
REMARK                            x       y       z     vdW  Elec       q    Type
REMARK                         _______ _______ _______ _____ _____    ______ ____
ROOT
ATOM      1  O   UNL     1      26.523  -6.387  28.966  0.00  0.00    +0.000 OA
ATOM      2  O   UNL     1      28.975  -4.156  30.094  0.00  0.00    +0.000 OA
ATOM      3  O   UNL     1      27.802  -5.231  31.855  0.00  0.00    +0.000 OA
ATOM      4  O   UNL     1      28.707  -3.158  32.229  0.00  0.00    +0.000 OA
ATOM      5  O   UNL     1      26.734  -3.411  24.698  0.00  0.00    +0.000 OA
ATOM      6  C   UNL     1      26.554  -4.367  30.159  0.00  0.00    +0.000 C 
ATOM      7  C   UNL     1      27.741  -3.651  29.498  0.00  0.00    +0.000 C 
ATOM      8  C   UNL     1      25.769  -5.421  29.582  0.00  0.00    +0.000 C 
ATOM      9  C   UNL     1      25.424  -5.844  28.223  0.00  0.00    +0.000 C 
ATOM     10  C   UNL     1      26.794  -4.301  31.605  0.00  0.00    +0.000 C 
ATOM     11  C   UNL     1      27.818  -3.924  28.026  0.00  0.00    +0.000 C 
ATOM     12  C   UNL     1      27.633  -2.126  29.802  0.00  0.00    +0.000 C 
ATOM     13  C   UNL     1      27.270  -2.938  32.166  0.00  0.00    +0.000 C 
ATOM     14  C   UNL     1      26.609  -3.756  27.133  0.00  0.00    +0.000 C 
ATOM     15  C   UNL     1      25.667  -4.923  27.080  0.00  0.00    +0.000 C 
ATOM     16  C   UNL     1      27.134  -1.832  31.135  0.00  0.00    +0.000 C 
ATOM     17  C   UNL     1      28.906  -4.380  31.523  0.00  0.00    +0.000 C 
ATOM     18  C   UNL     1      28.982  -3.905  27.217  0.00  0.00    +0.000 C 
ATOM     19  C   UNL     1      28.204  -0.993  28.949  0.00  0.00    +0.000 C 
ATOM     20  C   UNL     1      27.333  -3.586  25.756  0.00  0.00    +0.000 C 
ATOM     21  C   UNL     1      28.816  -3.692  25.954  0.00  0.00    +0.000 C 
ATOM     22  C   UNL     1      29.822  -4.053  24.911  0.00  0.00    +0.000 C 
ENDROOT
BRANCH  13  23
ATOM     23  C   UNL     1      26.634  -2.689  33.554  0.00  0.00    +0.000 C 
ATOM     24  C   UNL     1      27.210  -1.741  34.603  0.00  0.00    +0.000 C 
ATOM     25  C   UNL     1      25.682  -3.481  34.090  0.00  0.00    +0.000 C 
ENDBRANCH  13  23
BRANCH  14  26
ATOM     26  O   UNL     1      25.864  -2.612  27.491  0.00  0.00    +0.000 OA
ATOM     27  H   UNL     1      24.946  -2.757  27.188  0.00  0.00    +0.000 HD
ENDBRANCH  14  26
BRANCH  15  28
ATOM     28  O   UNL     1      24.850  -5.022  25.950  0.00  0.00    +0.000 OA
ATOM     29  H   UNL     1      23.947  -5.365  26.122  0.00  0.00    +0.000 HD
ENDBRANCH  15  28
BRANCH  17  30
ATOM     30  C   UNL     1      30.153  -4.998  31.964  0.00  0.00    +0.000 C 
ATOM     31  C   UNL     1      31.178  -5.506  32.324  0.00  0.00    +0.000 C 
BRANCH  31  32
ATOM     32  C   UNL     1      32.487  -6.154  32.782  0.00  0.00    +0.000 C 
ATOM     33  C   UNL     1      33.513  -6.663  33.143  0.00  0.00    +0.000 C 
BRANCH  33  34
ATOM     34  C   UNL     1      34.823  -7.309  33.605  0.00  0.00    +0.000 C 
ATOM     35  C   UNL     1      36.131  -7.957  34.066  0.00  0.00    +0.000 C 
BRANCH  35  36
ATOM     36  C   UNL     1      37.440  -8.606  34.528  0.00  0.00    +0.000 C 
ATOM     37  C   UNL     1      38.749  -9.254  34.988  0.00  0.00    +0.000 C 
ATOM     38  C   UNL     1      40.059  -9.901  35.448  0.00  0.00    +0.000 C 
ENDBRANCH  35  36
ENDBRANCH  33  34
ENDBRANCH  31  32
ENDBRANCH  17  30
BRANCH  16  39
ATOM     39  O   UNL     1      26.614  -0.549  31.379  0.00  0.00    +0.000 OA
BRANCH  39  41
ATOM     40  O   UNL     1      25.185   0.163  29.726  0.00  0.00    +0.000 OA
ATOM     41  C   UNL     1      25.386  -0.326  30.825  0.00  0.00    +0.000 C 
BRANCH  41  42
ATOM     42  C   UNL     1      24.321  -0.722  31.764  0.00  0.00    +0.000 A 
ATOM     43  C   UNL     1      23.575  -1.885  31.574  0.00  0.00    +0.000 A 
ATOM     44  C   UNL     1      24.072   0.099  32.863  0.00  0.00    +0.000 A 
ATOM     45  C   UNL     1      22.578  -2.225  32.485  0.00  0.00    +0.000 A 
ATOM     46  C   UNL     1      23.075  -0.244  33.772  0.00  0.00    +0.000 A 
ATOM     47  C   UNL     1      22.329  -1.405  33.583  0.00  0.00    +0.000 A 
ENDBRANCH  41  42
ENDBRANCH  39  41
ENDBRANCH  16  39
BRANCH   9  48
ATOM     48  C   UNL     1      24.391  -6.858  28.064  0.00  0.00    +0.000 C 
BRANCH  48  49
ATOM     49  O   UNL     1      23.452  -7.789  27.919  0.00  0.00    +0.000 OA
ATOM     50  H   UNL     1      22.941  -7.888  28.741  0.00  0.00    +0.000 HD
ENDBRANCH  48  49
ENDBRANCH   9  48
TORSDOF 12
ENDMDL
MODEL 8
REMARK VINA RESULT:      -5.0     13.938     16.989
REMARK  Name = 5358691_Yuanhuacine.pdbqt.pdb
REMARK  12 active torsions:
REMARK  status: ('A' for Active; 'I' for Inactive)
REMARK    1  A    between atoms: C_9  and  C_48
REMARK    2  A    between atoms: C_13  and  C_23
REMARK    3  A    between atoms: C_14  and  O_26
REMARK    4  A    between atoms: C_15  and  O_28
REMARK    5  A    between atoms: C_16  and  O_39
REMARK    6  A    between atoms: C_17  and  C_30
REMARK    7  A    between atoms: C_31  and  C_32
REMARK    8  A    between atoms: C_33  and  C_34
REMARK    9  A    between atoms: C_35  and  C_36
REMARK   10  A    between atoms: O_39  and  C_41
REMARK   11  A    between atoms: C_41  and  C_42
REMARK   12  A    between atoms: C_48  and  O_49
REMARK                            x       y       z     vdW  Elec       q    Type
REMARK                         _______ _______ _______ _____ _____    ______ ____
ROOT
ATOM      1  O   UNL     1      35.438  10.425  39.316  0.00  0.00    +0.000 OA
ATOM      2  O   UNL     1      33.088  10.242  36.726  0.00  0.00    +0.000 OA
ATOM      3  O   UNL     1      34.241   8.201  37.094  0.00  0.00    +0.000 OA
ATOM      4  O   UNL     1      33.421   8.648  35.000  0.00  0.00    +0.000 OA
ATOM      5  O   UNL     1      35.288  15.506  38.187  0.00  0.00    +0.000 OA
ATOM      6  C   UNL     1      35.500  10.094  36.994  0.00  0.00    +0.000 C 
ATOM      7  C   UNL     1      34.333  10.982  36.537  0.00  0.00    +0.000 C 
ATOM      8  C   UNL     1      36.237  10.223  38.219  0.00  0.00    +0.000 C 
ATOM      9  C   UNL     1      36.547  11.316  39.142  0.00  0.00    +0.000 C 
ATOM     10  C   UNL     1      35.281   8.783  36.371  0.00  0.00    +0.000 C 
ATOM     11  C   UNL     1      34.228  12.238  37.347  0.00  0.00    +0.000 C 
ATOM     12  C   UNL     1      34.504  11.282  35.017  0.00  0.00    +0.000 C 
ATOM     13  C   UNL     1      34.865   8.786  34.880  0.00  0.00    +0.000 C 
ATOM     14  C   UNL     1      35.430  13.124  37.582  0.00  0.00    +0.000 C 
ATOM     15  C   UNL     1      36.326  12.725  38.718  0.00  0.00    +0.000 C 
ATOM     16  C   UNL     1      35.030  10.161  34.257  0.00  0.00    +0.000 C 
ATOM     17  C   UNL     1      33.167   8.835  36.391  0.00  0.00    +0.000 C 
ATOM     18  C   UNL     1      33.055  12.997  37.591  0.00  0.00    +0.000 C 
ATOM     19  C   UNL     1      33.967  12.505  34.272  0.00  0.00    +0.000 C 
ATOM     20  C   UNL     1      34.696  14.464  37.920  0.00  0.00    +0.000 C 
ATOM     21  C   UNL     1      33.213  14.245  37.883  0.00  0.00    +0.000 C 
ATOM     22  C   UNL     1      32.181  15.075  38.573  0.00  0.00    +0.000 C 
ENDROOT
BRANCH  13  23
ATOM     23  C   UNL     1      35.528   7.596  34.147  0.00  0.00    +0.000 C 
ATOM     24  C   UNL     1      34.886   6.841  32.984  0.00  0.00    +0.000 C 
ATOM     25  C   UNL     1      36.593   6.924  34.629  0.00  0.00    +0.000 C 
ENDBRANCH  13  23
BRANCH  14  26
ATOM     26  O   UNL     1      36.224  13.227  36.418  0.00  0.00    +0.000 OA
ATOM     27  H   UNL     1      36.041  12.437  35.872  0.00  0.00    +0.000 HD
ENDBRANCH  14  26
BRANCH  15  28
ATOM     28  O   UNL     1      37.124  13.728  39.273  0.00  0.00    +0.000 OA
ATOM     29  H   UNL     1      36.814  14.075  40.137  0.00  0.00    +0.000 HD
ENDBRANCH  15  28
BRANCH  17  30
ATOM     30  C   UNL     1      31.903   8.197  36.742  0.00  0.00    +0.000 C 
ATOM     31  C   UNL     1      30.863   7.672  37.033  0.00  0.00    +0.000 C 
BRANCH  31  32
ATOM     32  C   UNL     1      29.536   7.005  37.404  0.00  0.00    +0.000 C 
ATOM     33  C   UNL     1      28.495   6.481  37.696  0.00  0.00    +0.000 C 
BRANCH  33  34
ATOM     34  C   UNL     1      27.169   5.811  38.067  0.00  0.00    +0.000 C 
ATOM     35  C   UNL     1      25.844   5.139  38.437  0.00  0.00    +0.000 C 
BRANCH  35  36
ATOM     36  C   UNL     1      24.518   4.467  38.810  0.00  0.00    +0.000 C 
ATOM     37  C   UNL     1      23.194   3.795  39.182  0.00  0.00    +0.000 C 
ATOM     38  C   UNL     1      21.869   3.121  39.553  0.00  0.00    +0.000 C 
ENDBRANCH  35  36
ENDBRANCH  33  34
ENDBRANCH  31  32
ENDBRANCH  17  30
BRANCH  16  39
ATOM     39  O   UNL     1      35.602  10.423  33.001  0.00  0.00    +0.000 OA
BRANCH  39  41
ATOM     40  O   UNL     1      36.928  12.295  32.860  0.00  0.00    +0.000 OA
ATOM     41  C   UNL     1      36.788  11.100  33.053  0.00  0.00    +0.000 C 
BRANCH  41  42
ATOM     42  C   UNL     1      37.896  10.170  33.336  0.00  0.00    +0.000 A 
ATOM     43  C   UNL     1      38.528  10.144  34.579  0.00  0.00    +0.000 A 
ATOM     44  C   UNL     1      38.304   9.302  32.324  0.00  0.00    +0.000 A 
ATOM     45  C   UNL     1      39.571   9.249  34.808  0.00  0.00    +0.000 A 
ATOM     46  C   UNL     1      39.346   8.409  32.556  0.00  0.00    +0.000 A 
ATOM     47  C   UNL     1      39.979   8.383  33.797  0.00  0.00    +0.000 A 
ENDBRANCH  41  42
ENDBRANCH  39  41
ENDBRANCH  16  39
BRANCH   9  48
ATOM     48  C   UNL     1      37.539  11.073  40.181  0.00  0.00    +0.000 C 
BRANCH  48  49
ATOM     49  O   UNL     1      38.443  10.856  41.133  0.00  0.00    +0.000 OA
ATOM     50  H   UNL     1      38.455  11.596  41.765  0.00  0.00    +0.000 HD
ENDBRANCH  48  49
ENDBRANCH   9  48
TORSDOF 12
ENDMDL
MODEL 9
REMARK VINA RESULT:      -5.0     11.323     15.122
REMARK  Name = 5358691_Yuanhuacine.pdbqt.pdb
REMARK  12 active torsions:
REMARK  status: ('A' for Active; 'I' for Inactive)
REMARK    1  A    between atoms: C_9  and  C_48
REMARK    2  A    between atoms: C_13  and  C_23
REMARK    3  A    between atoms: C_14  and  O_26
REMARK    4  A    between atoms: C_15  and  O_28
REMARK    5  A    between atoms: C_16  and  O_39
REMARK    6  A    between atoms: C_17  and  C_30
REMARK    7  A    between atoms: C_31  and  C_32
REMARK    8  A    between atoms: C_33  and  C_34
REMARK    9  A    between atoms: C_35  and  C_36
REMARK   10  A    between atoms: O_39  and  C_41
REMARK   11  A    between atoms: C_41  and  C_42
REMARK   12  A    between atoms: C_48  and  O_49
REMARK                            x       y       z     vdW  Elec       q    Type
REMARK                         _______ _______ _______ _____ _____    ______ ____
ROOT
ATOM      1  O   UNL     1      33.085  12.188  40.217  0.00  0.00    +0.000 OA
ATOM      2  O   UNL     1      31.419  11.308  37.265  0.00  0.00    +0.000 OA
ATOM      3  O   UNL     1      31.821   9.463  38.703  0.00  0.00    +0.000 OA
ATOM      4  O   UNL     1      31.652   9.093  36.446  0.00  0.00    +0.000 OA
ATOM      5  O   UNL     1      34.664  16.222  37.328  0.00  0.00    +0.000 OA
ATOM      6  C   UNL     1      33.562  10.879  38.329  0.00  0.00    +0.000 C 
ATOM      7  C   UNL     1      32.834  11.667  37.230  0.00  0.00    +0.000 C 
ATOM      8  C   UNL     1      34.014  11.397  39.589  0.00  0.00    +0.000 C 
ATOM      9  C   UNL     1      34.414  12.711  40.096  0.00  0.00    +0.000 C 
ATOM     10  C   UNL     1      33.118   9.487  38.193  0.00  0.00    +0.000 C 
ATOM     11  C   UNL     1      32.919  13.148  37.446  0.00  0.00    +0.000 C 
ATOM     12  C   UNL     1      33.417  11.247  35.848  0.00  0.00    +0.000 C 
ATOM     13  C   UNL     1      33.063   8.915  36.755  0.00  0.00    +0.000 C 
ATOM     14  C   UNL     1      34.243  13.827  37.714  0.00  0.00    +0.000 C 
ATOM     15  C   UNL     1      34.709  13.813  39.140  0.00  0.00    +0.000 C 
ATOM     16  C   UNL     1      33.752   9.834  35.762  0.00  0.00    +0.000 C 
ATOM     17  C   UNL     1      31.160   9.904  37.511  0.00  0.00    +0.000 C 
ATOM     18  C   UNL     1      31.991  14.127  37.005  0.00  0.00    +0.000 C 
ATOM     19  C   UNL     1      33.436  12.098  34.578  0.00  0.00    +0.000 C 
ATOM     20  C   UNL     1      33.871  15.286  37.285  0.00  0.00    +0.000 C 
ATOM     21  C   UNL     1      32.435  15.330  36.856  0.00  0.00    +0.000 C 
ATOM     22  C   UNL     1      31.560  16.540  36.824  0.00  0.00    +0.000 C 
ENDROOT
BRANCH  13  23
ATOM     23  C   UNL     1      33.499   7.432  36.762  0.00  0.00    +0.000 C 
ATOM     24  C   UNL     1      34.690   6.891  37.552  0.00  0.00    +0.000 C 
ATOM     25  C   UNL     1      33.063   6.523  35.865  0.00  0.00    +0.000 C 
ENDBRANCH  13  23
BRANCH  14  26
ATOM     26  O   UNL     1      35.269  13.279  36.915  0.00  0.00    +0.000 OA
ATOM     27  H   UNL     1      36.106  13.707  37.184  0.00  0.00    +0.000 HD
ENDBRANCH  14  26
BRANCH  15  28
ATOM     28  O   UNL     1      35.619  14.804  39.516  0.00  0.00    +0.000 OA
ATOM     29  H   UNL     1      36.560  14.593  39.335  0.00  0.00    +0.000 HD
ENDBRANCH  15  28
BRANCH  17  30
ATOM     30  C   UNL     1      29.720   9.707  37.645  0.00  0.00    +0.000 C 
ATOM     31  C   UNL     1      28.536   9.544  37.755  0.00  0.00    +0.000 C 
BRANCH  31  32
ATOM     32  C   UNL     1      27.026   9.334  37.897  0.00  0.00    +0.000 C 
ATOM     33  C   UNL     1      25.843   9.170  38.010  0.00  0.00    +0.000 C 
BRANCH  33  34
ATOM     34  C   UNL     1      24.332   8.960  38.155  0.00  0.00    +0.000 C 
ATOM     35  C   UNL     1      22.823   8.749  38.300  0.00  0.00    +0.000 C 
BRANCH  35  36
ATOM     36  C   UNL     1      21.312   8.537  38.446  0.00  0.00    +0.000 C 
ATOM     37  C   UNL     1      19.803   8.326  38.591  0.00  0.00    +0.000 C 
ATOM     38  C   UNL     1      18.292   8.116  38.737  0.00  0.00    +0.000 C 
ENDBRANCH  35  36
ENDBRANCH  33  34
ENDBRANCH  31  32
ENDBRANCH  17  30
BRANCH  16  39
ATOM     39  O   UNL     1      34.640   9.425  34.752  0.00  0.00    +0.000 OA
BRANCH  39  41
ATOM     40  O   UNL     1      36.470   9.476  36.141  0.00  0.00    +0.000 OA
ATOM     41  C   UNL     1      35.958   9.631  35.046  0.00  0.00    +0.000 C 
BRANCH  41  42
ATOM     42  C   UNL     1      36.678  10.113  33.854  0.00  0.00    +0.000 A 
ATOM     43  C   UNL     1      36.054  10.202  32.610  0.00  0.00    +0.000 A 
ATOM     44  C   UNL     1      38.014  10.487  33.996  0.00  0.00    +0.000 A 
ATOM     45  C   UNL     1      36.769  10.664  31.507  0.00  0.00    +0.000 A 
ATOM     46  C   UNL     1      38.725  10.950  32.893  0.00  0.00    +0.000 A 
ATOM     47  C   UNL     1      38.103  11.038  31.649  0.00  0.00    +0.000 A 
ENDBRANCH  41  42
ENDBRANCH  39  41
ENDBRANCH  16  39
BRANCH   9  48
ATOM     48  C   UNL     1      35.036  12.775  41.412  0.00  0.00    +0.000 C 
BRANCH  48  49
ATOM     49  O   UNL     1      35.604  12.840  42.613  0.00  0.00    +0.000 OA
ATOM     50  H   UNL     1      35.484  13.726  42.999  0.00  0.00    +0.000 HD
ENDBRANCH  48  49
ENDBRANCH   9  48
TORSDOF 12
ENDMDL
