MODEL 1
REMARK VINA RESULT:      -6.2      0.000      0.000
REMARK  Name = 5386_Tegafur.pdbqt.pdb
REMARK  1 active torsions:
REMARK  status: ('A' for Active; 'I' for Inactive)
REMARK    1  A    between atoms: N_4  and  C_12
REMARK                            x       y       z     vdW  Elec       q    Type
REMARK                         _______ _______ _______ _____ _____    ______ ____
ROOT
ATOM      1  F   UNL     1      45.710  -7.623   9.966  0.00  0.00    +0.000 F 
ATOM      2  O   UNL     1      41.126  -4.719  10.198  0.00  0.00    +0.000 OA
ATOM      3  O   UNL     1      43.795  -7.653   7.885  0.00  0.00    +0.000 OA
ATOM      4  N   UNL     1      43.036  -5.582  11.295  0.00  0.00    +0.000 N 
ATOM      5  N   UNL     1      42.450  -6.251   9.120  0.00  0.00    +0.000 N 
ATOM      6  C   UNL     1      42.115  -5.442  10.232  0.00  0.00    +0.000 C 
ATOM      7  C   UNL     1      44.068  -6.431  11.109  0.00  0.00    +0.000 C 
ATOM      8  C   UNL     1      44.448  -7.201  10.148  0.00  0.00    +0.000 C 
ATOM      9  C   UNL     1      43.563  -7.084   8.945  0.00  0.00    +0.000 C 
ATOM     10  H   UNL     1      41.841  -6.155   8.320  0.00  0.00    +0.000 HD
ENDROOT
BRANCH   4  12
ATOM     11  O   UNL     1      41.905  -5.132  13.395  0.00  0.00    +0.000 OA
ATOM     12  C   UNL     1      42.939  -4.908  12.478  0.00  0.00    +0.000 C 
ATOM     13  C   UNL     1      43.791  -3.901  13.006  0.00  0.00    +0.000 C 
ATOM     14  C   UNL     1      43.529  -3.239  14.360  0.00  0.00    +0.000 C 
ATOM     15  C   UNL     1      42.361  -4.218  14.262  0.00  0.00    +0.000 C 
ENDBRANCH   4  12
TORSDOF 1
ENDMDL
MODEL 2
REMARK VINA RESULT:      -5.4     17.343     18.695
REMARK  Name = 5386_Tegafur.pdbqt.pdb
REMARK  1 active torsions:
REMARK  status: ('A' for Active; 'I' for Inactive)
REMARK    1  A    between atoms: N_4  and  C_12
REMARK                            x       y       z     vdW  Elec       q    Type
REMARK                         _______ _______ _______ _____ _____    ______ ____
ROOT
ATOM      1  F   UNL     1      33.347   9.192  19.900  0.00  0.00    +0.000 F 
ATOM      2  O   UNL     1      38.330   8.326  17.919  0.00  0.00    +0.000 OA
ATOM      3  O   UNL     1      33.811   7.564  17.633  0.00  0.00    +0.000 OA
ATOM      4  N   UNL     1      36.906   9.546  19.362  0.00  0.00    +0.000 N 
ATOM      5  N   UNL     1      36.059   8.046  17.763  0.00  0.00    +0.000 N 
ATOM      6  C   UNL     1      37.216   8.633  18.328  0.00  0.00    +0.000 C 
ATOM      7  C   UNL     1      35.602   9.722  19.658  0.00  0.00    +0.000 C 
ATOM      8  C   UNL     1      34.494   9.243  19.204  0.00  0.00    +0.000 C 
ATOM      9  C   UNL     1      34.718   8.217  18.135  0.00  0.00    +0.000 C 
ATOM     10  H   UNL     1      36.232   7.357  17.046  0.00  0.00    +0.000 HD
ENDROOT
BRANCH   4  12
ATOM     11  O   UNL     1      38.453  11.404  19.577  0.00  0.00    +0.000 OA
ATOM     12  C   UNL     1      37.844  10.242  20.067  0.00  0.00    +0.000 C 
ATOM     13  C   UNL     1      38.384   9.966  21.352  0.00  0.00    +0.000 C 
ATOM     14  C   UNL     1      39.446  10.856  22.000  0.00  0.00    +0.000 C 
ATOM     15  C   UNL     1      39.214  11.567  20.667  0.00  0.00    +0.000 C 
ENDBRANCH   4  12
TORSDOF 1
ENDMDL
MODEL 3
REMARK VINA RESULT:      -5.3      1.644      1.981
REMARK  Name = 5386_Tegafur.pdbqt.pdb
REMARK  1 active torsions:
REMARK  status: ('A' for Active; 'I' for Inactive)
REMARK    1  A    between atoms: N_4  and  C_12
REMARK                            x       y       z     vdW  Elec       q    Type
REMARK                         _______ _______ _______ _____ _____    ______ ____
ROOT
ATOM      1  F   UNL     1      45.760  -5.757   9.032  0.00  0.00    +0.000 F 
ATOM      2  O   UNL     1      41.576  -5.468  12.483  0.00  0.00    +0.000 OA
ATOM      3  O   UNL     1      43.932  -7.888   9.372  0.00  0.00    +0.000 OA
ATOM      4  N   UNL     1      43.616  -4.569  11.691  0.00  0.00    +0.000 N 
ATOM      5  N   UNL     1      42.835  -6.671  10.990  0.00  0.00    +0.000 N 
ATOM      6  C   UNL     1      42.591  -5.536  11.799  0.00  0.00    +0.000 C 
ATOM      7  C   UNL     1      44.643  -4.848  10.862  0.00  0.00    +0.000 C 
ATOM      8  C   UNL     1      44.949  -5.841  10.099  0.00  0.00    +0.000 C 
ATOM      9  C   UNL     1      43.891  -6.903  10.100  0.00  0.00    +0.000 C 
ATOM     10  H   UNL     1      42.109  -7.374  11.005  0.00  0.00    +0.000 HD
ENDROOT
BRANCH   4  12
ATOM     11  O   UNL     1      42.793  -2.308  12.013  0.00  0.00    +0.000 OA
ATOM     12  C   UNL     1      43.616  -3.384  12.368  0.00  0.00    +0.000 C 
ATOM     13  C   UNL     1      44.395  -2.996  13.491  0.00  0.00    +0.000 C 
ATOM     14  C   UNL     1      44.273  -1.611  14.129  0.00  0.00    +0.000 C 
ATOM     15  C   UNL     1      43.255  -1.521  12.994  0.00  0.00    +0.000 C 
ENDBRANCH   4  12
TORSDOF 1
ENDMDL
MODEL 4
REMARK VINA RESULT:      -5.0     34.144     35.141
REMARK  Name = 5386_Tegafur.pdbqt.pdb
REMARK  1 active torsions:
REMARK  status: ('A' for Active; 'I' for Inactive)
REMARK    1  A    between atoms: N_4  and  C_12
REMARK                            x       y       z     vdW  Elec       q    Type
REMARK                         _______ _______ _______ _____ _____    ______ ____
ROOT
ATOM      1  F   UNL     1      21.612  23.155   1.891  0.00  0.00    +0.000 F 
ATOM      2  O   UNL     1      22.360  18.119   3.784  0.00  0.00    +0.000 OA
ATOM      3  O   UNL     1      24.160  21.927   1.957  0.00  0.00    +0.000 OA
ATOM      4  N   UNL     1      20.953  20.005   3.543  0.00  0.00    +0.000 N 
ATOM      5  N   UNL     1      23.227  20.074   2.954  0.00  0.00    +0.000 N 
ATOM      6  C   UNL     1      22.169  19.288   3.468  0.00  0.00    +0.000 C 
ATOM      7  C   UNL     1      20.968  21.288   3.126  0.00  0.00    +0.000 C 
ATOM      8  C   UNL     1      21.869  22.079   2.652  0.00  0.00    +0.000 C 
ATOM      9  C   UNL     1      23.191  21.392   2.481  0.00  0.00    +0.000 C 
ATOM     10  H   UNL     1      24.108  19.591   2.845  0.00  0.00    +0.000 HD
ENDROOT
BRANCH   4  12
ATOM     11  O   UNL     1      19.437  18.129   3.817  0.00  0.00    +0.000 OA
ATOM     12  C   UNL     1      19.783  19.473   4.003  0.00  0.00    +0.000 C 
ATOM     13  C   UNL     1      18.728  20.110   4.710  0.00  0.00    +0.000 C 
ATOM     14  C   UNL     1      17.471  19.358   5.149  0.00  0.00    +0.000 C 
ATOM     15  C   UNL     1      18.263  18.256   4.449  0.00  0.00    +0.000 C 
ENDBRANCH   4  12
TORSDOF 1
ENDMDL
MODEL 5
REMARK VINA RESULT:      -4.9     24.563     26.799
REMARK  Name = 5386_Tegafur.pdbqt.pdb
REMARK  1 active torsions:
REMARK  status: ('A' for Active; 'I' for Inactive)
REMARK    1  A    between atoms: N_4  and  C_12
REMARK                            x       y       z     vdW  Elec       q    Type
REMARK                         _______ _______ _______ _____ _____    ______ ____
ROOT
ATOM      1  F   UNL     1      23.259  -1.815  32.549  0.00  0.00    +0.000 F 
ATOM      2  O   UNL     1      25.984   1.004  28.790  0.00  0.00    +0.000 OA
ATOM      3  O   UNL     1      23.812   0.945  32.835  0.00  0.00    +0.000 OA
ATOM      4  N   UNL     1      25.291  -1.089  29.646  0.00  0.00    +0.000 N 
ATOM      5  N   UNL     1      24.968   0.906  30.844  0.00  0.00    +0.000 N 
ATOM      6  C   UNL     1      25.470   0.313  29.662  0.00  0.00    +0.000 C 
ATOM      7  C   UNL     1      24.685  -1.646  30.715  0.00  0.00    +0.000 C 
ATOM      8  C   UNL     1      24.203  -1.194  31.822  0.00  0.00    +0.000 C 
ATOM      9  C   UNL     1      24.296   0.299  31.913  0.00  0.00    +0.000 C 
ATOM     10  H   UNL     1      25.039   1.913  30.883  0.00  0.00    +0.000 HD
ENDROOT
BRANCH   4  12
ATOM     11  O   UNL     1      25.002  -1.961  27.399  0.00  0.00    +0.000 OA
ATOM     12  C   UNL     1      25.687  -1.894  28.618  0.00  0.00    +0.000 C 
ATOM     13  C   UNL     1      26.792  -2.785  28.555  0.00  0.00    +0.000 C 
ATOM     14  C   UNL     1      27.092  -3.627  27.313  0.00  0.00    +0.000 C 
ATOM     15  C   UNL     1      25.840  -2.867  26.879  0.00  0.00    +0.000 C 
ENDBRANCH   4  12
TORSDOF 1
ENDMDL
MODEL 6
REMARK VINA RESULT:      -4.5     34.370     35.380
REMARK  Name = 5386_Tegafur.pdbqt.pdb
REMARK  1 active torsions:
REMARK  status: ('A' for Active; 'I' for Inactive)
REMARK    1  A    between atoms: N_4  and  C_12
REMARK                            x       y       z     vdW  Elec       q    Type
REMARK                         _______ _______ _______ _____ _____    ______ ____
ROOT
ATOM      1  F   UNL     1      19.206  21.688   1.030  0.00  0.00    +0.000 F 
ATOM      2  O   UNL     1      23.686  19.396   3.074  0.00  0.00    +0.000 OA
ATOM      3  O   UNL     1      19.224  19.050   2.051  0.00  0.00    +0.000 OA
ATOM      4  N   UNL     1      22.688  21.160   1.853  0.00  0.00    +0.000 N 
ATOM      5  N   UNL     1      21.481  19.239   2.464  0.00  0.00    +0.000 N 
ATOM      6  C   UNL     1      22.727  19.907   2.507  0.00  0.00    +0.000 C 
ATOM      7  C   UNL     1      21.514  21.533   1.304  0.00  0.00    +0.000 C 
ATOM      8  C   UNL     1      20.344  20.999   1.214  0.00  0.00    +0.000 C 
ATOM      9  C   UNL     1      20.265  19.683   1.928  0.00  0.00    +0.000 C 
ATOM     10  H   UNL     1      21.450  18.355   2.953  0.00  0.00    +0.000 HD
ENDROOT
BRANCH   4  12
ATOM     11  O   UNL     1      23.988  23.045   2.659  0.00  0.00    +0.000 OA
ATOM     12  C   UNL     1      23.760  22.000   1.756  0.00  0.00    +0.000 C 
ATOM     13  C   UNL     1      24.801  22.012   0.789  0.00  0.00    +0.000 C 
ATOM     14  C   UNL     1      25.934  23.039   0.824  0.00  0.00    +0.000 C 
ATOM     15  C   UNL     1      25.106  23.448   2.041  0.00  0.00    +0.000 C 
ENDBRANCH   4  12
TORSDOF 1
ENDMDL
MODEL 7
REMARK VINA RESULT:      -4.5     27.599     28.956
REMARK  Name = 5386_Tegafur.pdbqt.pdb
REMARK  1 active torsions:
REMARK  status: ('A' for Active; 'I' for Inactive)
REMARK    1  A    between atoms: N_4  and  C_12
REMARK                            x       y       z     vdW  Elec       q    Type
REMARK                         _______ _______ _______ _____ _____    ______ ____
ROOT
ATOM      1  F   UNL     1      33.079  11.018  36.395  0.00  0.00    +0.000 F 
ATOM      2  O   UNL     1      35.035   7.431  32.816  0.00  0.00    +0.000 OA
ATOM      3  O   UNL     1      31.912   8.469  36.017  0.00  0.00    +0.000 OA
ATOM      4  N   UNL     1      35.006   9.640  33.662  0.00  0.00    +0.000 N 
ATOM      5  N   UNL     1      33.444   8.028  34.356  0.00  0.00    +0.000 N 
ATOM      6  C   UNL     1      34.559   8.305  33.531  0.00  0.00    +0.000 C 
ATOM      7  C   UNL     1      34.337  10.433  34.524  0.00  0.00    +0.000 C 
ATOM      8  C   UNL     1      33.323  10.273  35.305  0.00  0.00    +0.000 C 
ATOM      9  C   UNL     1      32.806   8.866  35.280  0.00  0.00    +0.000 C 
ATOM     10  H   UNL     1      33.113   7.074  34.325  0.00  0.00    +0.000 HD
ENDROOT
BRANCH   4  12
ATOM     11  O   UNL     1      36.041  10.376  31.593  0.00  0.00    +0.000 OA
ATOM     12  C   UNL     1      36.066  10.157  32.976  0.00  0.00    +0.000 C 
ATOM     13  C   UNL     1      37.341  10.552  33.464  0.00  0.00    +0.000 C 
ATOM     14  C   UNL     1      38.429  11.112  32.546  0.00  0.00    +0.000 C 
ATOM     15  C   UNL     1      37.293  10.850  31.559  0.00  0.00    +0.000 C 
ENDBRANCH   4  12
TORSDOF 1
ENDMDL
MODEL 8
REMARK VINA RESULT:      -4.4     26.142     26.657
REMARK  Name = 5386_Tegafur.pdbqt.pdb
REMARK  1 active torsions:
REMARK  status: ('A' for Active; 'I' for Inactive)
REMARK    1  A    between atoms: N_4  and  C_12
REMARK                            x       y       z     vdW  Elec       q    Type
REMARK                         _______ _______ _______ _____ _____    ______ ____
ROOT
ATOM      1  F   UNL     1      40.999   8.733  33.145  0.00  0.00    +0.000 F 
ATOM      2  O   UNL     1      36.184  10.609  31.471  0.00  0.00    +0.000 OA
ATOM      3  O   UNL     1      40.756  11.029  31.511  0.00  0.00    +0.000 OA
ATOM      4  N   UNL     1      37.449   8.876  32.470  0.00  0.00    +0.000 N 
ATOM      5  N   UNL     1      38.475  10.726  31.447  0.00  0.00    +0.000 N 
ATOM      6  C   UNL     1      37.254  10.094  31.777  0.00  0.00    +0.000 C 
ATOM      7  C   UNL     1      38.722   8.503  32.714  0.00  0.00    +0.000 C 
ATOM      8  C   UNL     1      39.881   9.005  32.453  0.00  0.00    +0.000 C 
ATOM      9  C   UNL     1      39.781  10.332  31.764  0.00  0.00    +0.000 C 
ATOM     10  H   UNL     1      38.385  11.620  30.985  0.00  0.00    +0.000 HD
ENDROOT
BRANCH   4  12
ATOM     11  O   UNL     1      35.666   7.288  32.034  0.00  0.00    +0.000 OA
ATOM     12  C   UNL     1      36.431   8.076  32.902  0.00  0.00    +0.000 C 
ATOM     13  C   UNL     1      35.947   7.880  34.223  0.00  0.00    +0.000 C 
ATOM     14  C   UNL     1      34.780   6.941  34.534  0.00  0.00    +0.000 C 
ATOM     15  C   UNL     1      34.900   6.798  33.017  0.00  0.00    +0.000 C 
ENDBRANCH   4  12
TORSDOF 1
ENDMDL
MODEL 9
REMARK VINA RESULT:      -4.3     24.459     26.575
REMARK  Name = 5386_Tegafur.pdbqt.pdb
REMARK  1 active torsions:
REMARK  status: ('A' for Active; 'I' for Inactive)
REMARK    1  A    between atoms: N_4  and  C_12
REMARK                            x       y       z     vdW  Elec       q    Type
REMARK                         _______ _______ _______ _____ _____    ______ ____
ROOT
ATOM      1  F   UNL     1      26.922  -2.468  27.882  0.00  0.00    +0.000 F 
ATOM      2  O   UNL     1      27.549  -1.297  33.149  0.00  0.00    +0.000 OA
ATOM      3  O   UNL     1      29.368  -2.882  29.242  0.00  0.00    +0.000 OA
ATOM      4  N   UNL     1      26.256  -1.127  31.175  0.00  0.00    +0.000 N 
ATOM      5  N   UNL     1      28.439  -1.997  31.154  0.00  0.00    +0.000 N 
ATOM      6  C   UNL     1      27.401  -1.445  31.941  0.00  0.00    +0.000 C 
ATOM      7  C   UNL     1      26.308  -1.388  29.852  0.00  0.00    +0.000 C 
ATOM      8  C   UNL     1      27.196  -1.879  29.058  0.00  0.00    +0.000 C 
ATOM      9  C   UNL     1      28.436  -2.302  29.787  0.00  0.00    +0.000 C 
ATOM     10  H   UNL     1      29.264  -2.276  31.665  0.00  0.00    +0.000 HD
ENDROOT
BRANCH   4  12
ATOM     11  O   UNL     1      24.765   0.757  31.515  0.00  0.00    +0.000 OA
ATOM     12  C   UNL     1      25.119  -0.585  31.698  0.00  0.00    +0.000 C 
ATOM     13  C   UNL     1      24.116  -1.204  32.492  0.00  0.00    +0.000 C 
ATOM     14  C   UNL     1      22.895  -0.440  33.006  0.00  0.00    +0.000 C 
ATOM     15  C   UNL     1      23.639   0.647  32.232  0.00  0.00    +0.000 C 
ENDBRANCH   4  12
TORSDOF 1
ENDMDL
