MODEL 1
REMARK VINA RESULT:      -6.2      0.000      0.000
REMARK  Name = 5470187_Zerumbone.pdbqt.pdb
REMARK  0 active torsions:
REMARK  status: ('A' for Active; 'I' for Inactive)
REMARK                            x       y       z     vdW  Elec       q    Type
REMARK                         _______ _______ _______ _____ _____    ______ ____
ROOT
ATOM      1  O   UNL     1      42.105  -1.377  14.448  0.00  0.00    +0.000 OA
ATOM      2  C   UNL     1      44.696  -4.297  11.509  0.00  0.00    +0.000 C 
ATOM      3  C   UNL     1      45.673  -3.614  10.628  0.00  0.00    +0.000 C 
ATOM      4  C   UNL     1      45.429  -5.284  12.449  0.00  0.00    +0.000 C 
ATOM      5  C   UNL     1      43.646  -5.037  10.644  0.00  0.00    +0.000 C 
ATOM      6  C   UNL     1      44.027  -3.224  12.313  0.00  0.00    +0.000 C 
ATOM      7  C   UNL     1      46.532  -2.557   9.912  0.00  0.00    +0.000 C 
ATOM      8  C   UNL     1      47.028  -1.403   9.575  0.00  0.00    +0.000 C 
ATOM      9  C   UNL     1      46.400  -0.349  10.286  0.00  0.00    +0.000 C 
ATOM     10  C   UNL     1      45.446   0.299  11.291  0.00  0.00    +0.000 C 
ATOM     11  C   UNL     1      43.536  -2.298  12.912  0.00  0.00    +0.000 C 
ATOM     12  C   UNL     1      48.459  -1.287   9.165  0.00  0.00    +0.000 C 
ATOM     13  C   UNL     1      44.370   0.407  12.376  0.00  0.00    +0.000 C 
ATOM     14  C   UNL     1      43.448   0.248  13.281  0.00  0.00    +0.000 C 
ATOM     15  C   UNL     1      42.968  -1.143  13.610  0.00  0.00    +0.000 C 
ATOM     16  C   UNL     1      42.909   1.495  13.938  0.00  0.00    +0.000 C 
ENDROOT
TORSDOF 0
ENDMDL
MODEL 2
REMARK VINA RESULT:      -5.9      1.629      4.117
REMARK  Name = 5470187_Zerumbone.pdbqt.pdb
REMARK  0 active torsions:
REMARK  status: ('A' for Active; 'I' for Inactive)
REMARK                            x       y       z     vdW  Elec       q    Type
REMARK                         _______ _______ _______ _____ _____    ______ ____
ROOT
ATOM      1  O   UNL     1      42.999   1.799  13.578  0.00  0.00    +0.000 OA
ATOM      2  C   UNL     1      46.225  -1.229  11.504  0.00  0.00    +0.000 C 
ATOM      3  C   UNL     1      45.973  -2.674  11.715  0.00  0.00    +0.000 C 
ATOM      4  C   UNL     1      46.189  -0.899   9.993  0.00  0.00    +0.000 C 
ATOM      5  C   UNL     1      47.595  -0.846  12.119  0.00  0.00    +0.000 C 
ATOM      6  C   UNL     1      45.127  -0.498  12.216  0.00  0.00    +0.000 C 
ATOM      7  C   UNL     1      45.375  -4.023  12.154  0.00  0.00    +0.000 C 
ATOM      8  C   UNL     1      44.579  -4.889  12.705  0.00  0.00    +0.000 C 
ATOM      9  C   UNL     1      43.538  -4.244  13.422  0.00  0.00    +0.000 C 
ATOM     10  C   UNL     1      42.716  -3.071  13.959  0.00  0.00    +0.000 C 
ATOM     11  C   UNL     1      44.212   0.008  12.818  0.00  0.00    +0.000 C 
ATOM     12  C   UNL     1      44.338  -6.213  12.059  0.00  0.00    +0.000 C 
ATOM     13  C   UNL     1      42.283  -1.622  14.204  0.00  0.00    +0.000 C 
ATOM     14  C   UNL     1      42.114  -0.334  14.270  0.00  0.00    +0.000 C 
ATOM     15  C   UNL     1      43.088   0.576  13.565  0.00  0.00    +0.000 C 
ATOM     16  C   UNL     1      40.937   0.164  15.074  0.00  0.00    +0.000 C 
ENDROOT
TORSDOF 0
ENDMDL
MODEL 3
REMARK VINA RESULT:      -4.9      3.218      6.804
REMARK  Name = 5470187_Zerumbone.pdbqt.pdb
REMARK  0 active torsions:
REMARK  status: ('A' for Active; 'I' for Inactive)
REMARK                            x       y       z     vdW  Elec       q    Type
REMARK                         _______ _______ _______ _____ _____    ______ ____
ROOT
ATOM      1  O   UNL     1      48.889   0.768  11.324  0.00  0.00    +0.000 OA
ATOM      2  C   UNL     1      46.274   2.981  14.808  0.00  0.00    +0.000 C 
ATOM      3  C   UNL     1      44.845   2.592  14.880  0.00  0.00    +0.000 C 
ATOM      4  C   UNL     1      46.984   2.637  16.139  0.00  0.00    +0.000 C 
ATOM      5  C   UNL     1      46.384   4.495  14.500  0.00  0.00    +0.000 C 
ATOM      6  C   UNL     1      46.873   2.188  13.687  0.00  0.00    +0.000 C 
ATOM      7  C   UNL     1      43.476   1.937  14.625  0.00  0.00    +0.000 C 
ATOM      8  C   UNL     1      42.556   1.182  14.102  0.00  0.00    +0.000 C 
ATOM      9  C   UNL     1      43.068   0.435  13.010  0.00  0.00    +0.000 C 
ATOM     10  C   UNL     1      44.120  -0.073  12.021  0.00  0.00    +0.000 C 
ATOM     11  C   UNL     1      47.272   1.516  12.767  0.00  0.00    +0.000 C 
ATOM     12  C   UNL     1      41.465   0.620  14.952  0.00  0.00    +0.000 C 
ATOM     13  C   UNL     1      45.484  -0.238  11.344  0.00  0.00    +0.000 C 
ATOM     14  C   UNL     1      46.720  -0.211  10.940  0.00  0.00    +0.000 C 
ATOM     15  C   UNL     1      47.708   0.685  11.643  0.00  0.00    +0.000 C 
ATOM     16  C   UNL     1      47.078  -1.089   9.765  0.00  0.00    +0.000 C 
ENDROOT
TORSDOF 0
ENDMDL
MODEL 4
REMARK VINA RESULT:      -4.9     14.500     17.732
REMARK  Name = 5470187_Zerumbone.pdbqt.pdb
REMARK  0 active torsions:
REMARK  status: ('A' for Active; 'I' for Inactive)
REMARK                            x       y       z     vdW  Elec       q    Type
REMARK                         _______ _______ _______ _____ _____    ______ ____
ROOT
ATOM      1  O   UNL     1      43.210  14.861  15.714  0.00  0.00    +0.000 OA
ATOM      2  C   UNL     1      41.221  11.052  18.040  0.00  0.00    +0.000 C 
ATOM      3  C   UNL     1      40.395  11.386  19.225  0.00  0.00    +0.000 C 
ATOM      4  C   UNL     1      40.358  10.325  16.981  0.00  0.00    +0.000 C 
ATOM      5  C   UNL     1      42.418  10.171  18.475  0.00  0.00    +0.000 C 
ATOM      6  C   UNL     1      41.721  12.354  17.491  0.00  0.00    +0.000 C 
ATOM      7  C   UNL     1      39.649  12.133  20.346  0.00  0.00    +0.000 C 
ATOM      8  C   UNL     1      39.194  13.105  21.079  0.00  0.00    +0.000 C 
ATOM      9  C   UNL     1      39.669  14.360  20.618  0.00  0.00    +0.000 C 
ATOM     10  C   UNL     1      40.424  15.332  19.709  0.00  0.00    +0.000 C 
ATOM     11  C   UNL     1      42.082  13.443  17.120  0.00  0.00    +0.000 C 
ATOM     12  C   UNL     1      37.853  13.000  21.725  0.00  0.00    +0.000 C 
ATOM     13  C   UNL     1      41.296  15.819  18.548  0.00  0.00    +0.000 C 
ATOM     14  C   UNL     1      42.053  15.989  17.503  0.00  0.00    +0.000 C 
ATOM     15  C   UNL     1      42.498  14.786  16.709  0.00  0.00    +0.000 C 
ATOM     16  C   UNL     1      42.445  17.406  17.162  0.00  0.00    +0.000 C 
ENDROOT
TORSDOF 0
ENDMDL
MODEL 5
REMARK VINA RESULT:      -4.8     26.455     27.427
REMARK  Name = 5470187_Zerumbone.pdbqt.pdb
REMARK  0 active torsions:
REMARK  status: ('A' for Active; 'I' for Inactive)
REMARK                            x       y       z     vdW  Elec       q    Type
REMARK                         _______ _______ _______ _____ _____    ______ ____
ROOT
ATOM      1  O   UNL     1      27.264  12.735  -8.588  0.00  0.00    +0.000 OA
ATOM      2  C   UNL     1      31.982  11.506  -8.904  0.00  0.00    +0.000 C 
ATOM      3  C   UNL     1      32.437  10.463  -7.955  0.00  0.00    +0.000 C 
ATOM      4  C   UNL     1      32.186  11.023 -10.360  0.00  0.00    +0.000 C 
ATOM      5  C   UNL     1      32.762  12.819  -8.645  0.00  0.00    +0.000 C 
ATOM      6  C   UNL     1      30.524  11.720  -8.634  0.00  0.00    +0.000 C 
ATOM      7  C   UNL     1      32.497   9.396  -6.846  0.00  0.00    +0.000 C 
ATOM      8  C   UNL     1      32.123   8.603  -5.886  0.00  0.00    +0.000 C 
ATOM      9  C   UNL     1      30.754   8.793  -5.569  0.00  0.00    +0.000 C 
ATOM     10  C   UNL     1      29.349   9.388  -5.693  0.00  0.00    +0.000 C 
ATOM     11  C   UNL     1      29.357  11.831  -8.347  0.00  0.00    +0.000 C 
ATOM     12  C   UNL     1      32.753   7.259  -5.729  0.00  0.00    +0.000 C 
ATOM     13  C   UNL     1      28.207  10.257  -6.227  0.00  0.00    +0.000 C 
ATOM     14  C   UNL     1      27.409  11.082  -6.840  0.00  0.00    +0.000 C 
ATOM     15  C   UNL     1      27.948  11.935  -7.961  0.00  0.00    +0.000 C 
ATOM     16  C   UNL     1      25.977  11.133  -6.366  0.00  0.00    +0.000 C 
ENDROOT
TORSDOF 0
ENDMDL
MODEL 6
REMARK VINA RESULT:      -4.7     34.012     38.095
REMARK  Name = 5470187_Zerumbone.pdbqt.pdb
REMARK  0 active torsions:
REMARK  status: ('A' for Active; 'I' for Inactive)
REMARK                            x       y       z     vdW  Elec       q    Type
REMARK                         _______ _______ _______ _____ _____    ______ ____
ROOT
ATOM      1  O   UNL     1      16.528  19.152  33.741  0.00  0.00    +0.000 OA
ATOM      2  C   UNL     1      20.861  20.405  31.862  0.00  0.00    +0.000 C 
ATOM      3  C   UNL     1      21.667  19.289  31.312  0.00  0.00    +0.000 C 
ATOM      4  C   UNL     1      20.547  21.431  30.748  0.00  0.00    +0.000 C 
ATOM      5  C   UNL     1      21.631  21.075  33.028  0.00  0.00    +0.000 C 
ATOM      6  C   UNL     1      19.591  19.798  32.375  0.00  0.00    +0.000 C 
ATOM      7  C   UNL     1      22.164  17.901  30.869  0.00  0.00    +0.000 C 
ATOM      8  C   UNL     1      22.191  16.618  30.659  0.00  0.00    +0.000 C 
ATOM      9  C   UNL     1      21.021  15.992  31.159  0.00  0.00    +0.000 C 
ATOM     10  C   UNL     1      19.644  15.905  31.821  0.00  0.00    +0.000 C 
ATOM     11  C   UNL     1      18.602  19.227  32.765  0.00  0.00    +0.000 C 
ATOM     12  C   UNL     1      22.887  16.064  29.460  0.00  0.00    +0.000 C 
ATOM     13  C   UNL     1      18.353  16.369  32.502  0.00  0.00    +0.000 C 
ATOM     14  C   UNL     1      17.357  16.993  33.060  0.00  0.00    +0.000 C 
ATOM     15  C   UNL     1      17.423  18.491  33.227  0.00  0.00    +0.000 C 
ATOM     16  C   UNL     1      16.190  16.152  33.519  0.00  0.00    +0.000 C 
ENDROOT
TORSDOF 0
ENDMDL
MODEL 7
REMARK VINA RESULT:      -4.7     29.716     30.547
REMARK  Name = 5470187_Zerumbone.pdbqt.pdb
REMARK  0 active torsions:
REMARK  status: ('A' for Active; 'I' for Inactive)
REMARK                            x       y       z     vdW  Elec       q    Type
REMARK                         _______ _______ _______ _____ _____    ______ ____
ROOT
ATOM      1  O   UNL     1      14.192  -2.896   5.693  0.00  0.00    +0.000 OA
ATOM      2  C   UNL     1      14.401   0.727   8.965  0.00  0.00    +0.000 C 
ATOM      3  C   UNL     1      15.013   1.989   8.484  0.00  0.00    +0.000 C 
ATOM      4  C   UNL     1      12.937   0.978   9.397  0.00  0.00    +0.000 C 
ATOM      5  C   UNL     1      15.234   0.163  10.143  0.00  0.00    +0.000 C 
ATOM      6  C   UNL     1      14.439  -0.229   7.812  0.00  0.00    +0.000 C 
ATOM      7  C   UNL     1      15.687   3.072   7.623  0.00  0.00    +0.000 C 
ATOM      8  C   UNL     1      16.231   3.662   6.600  0.00  0.00    +0.000 C 
ATOM      9  C   UNL     1      16.322   2.784   5.490  0.00  0.00    +0.000 C 
ATOM     10  C   UNL     1      16.136   1.484   4.704  0.00  0.00    +0.000 C 
ATOM     11  C   UNL     1      14.515  -0.935   6.835  0.00  0.00    +0.000 C 
ATOM     12  C   UNL     1      16.045   5.128   6.387  0.00  0.00    +0.000 C 
ATOM     13  C   UNL     1      15.715   0.042   4.406  0.00  0.00    +0.000 C 
ATOM     14  C   UNL     1      15.274  -1.182   4.388  0.00  0.00    +0.000 C 
ATOM     15  C   UNL     1      14.633  -1.754   5.628  0.00  0.00    +0.000 C 
ATOM     16  C   UNL     1      15.450  -1.957   3.105  0.00  0.00    +0.000 C 
ENDROOT
TORSDOF 0
ENDMDL
MODEL 8
REMARK VINA RESULT:      -4.6     29.063     30.411
REMARK  Name = 5470187_Zerumbone.pdbqt.pdb
REMARK  0 active torsions:
REMARK  status: ('A' for Active; 'I' for Inactive)
REMARK                            x       y       z     vdW  Elec       q    Type
REMARK                         _______ _______ _______ _____ _____    ______ ____
ROOT
ATOM      1  O   UNL     1      13.614  -1.186   8.783  0.00  0.00    +0.000 OA
ATOM      2  C   UNL     1      15.097   1.329   4.865  0.00  0.00    +0.000 C 
ATOM      3  C   UNL     1      15.634   2.683   5.140  0.00  0.00    +0.000 C 
ATOM      4  C   UNL     1      16.184   0.453   4.199  0.00  0.00    +0.000 C 
ATOM      5  C   UNL     1      13.847   1.441   3.957  0.00  0.00    +0.000 C 
ATOM      6  C   UNL     1      14.711   0.749   6.192  0.00  0.00    +0.000 C 
ATOM      7  C   UNL     1      16.100   3.978   5.830  0.00  0.00    +0.000 C 
ATOM      8  C   UNL     1      16.365   4.842   6.764  0.00  0.00    +0.000 C 
ATOM      9  C   UNL     1      15.985   4.351   8.039  0.00  0.00    +0.000 C 
ATOM     10  C   UNL     1      15.435   3.347   9.054  0.00  0.00    +0.000 C 
ATOM     11  C   UNL     1      14.424   0.362   7.298  0.00  0.00    +0.000 C 
ATOM     12  C   UNL     1      17.531   5.765   6.630  0.00  0.00    +0.000 C 
ATOM     13  C   UNL     1      14.835   2.047   9.598  0.00  0.00    +0.000 C 
ATOM     14  C   UNL     1      14.327   0.870   9.820  0.00  0.00    +0.000 C 
ATOM     15  C   UNL     1      14.088  -0.063   8.659  0.00  0.00    +0.000 C 
ATOM     16  C   UNL     1      13.998   0.523  11.252  0.00  0.00    +0.000 C 
ENDROOT
TORSDOF 0
ENDMDL
MODEL 9
REMARK VINA RESULT:      -4.4     35.369     37.536
REMARK  Name = 5470187_Zerumbone.pdbqt.pdb
REMARK  0 active torsions:
REMARK  status: ('A' for Active; 'I' for Inactive)
REMARK                            x       y       z     vdW  Elec       q    Type
REMARK                         _______ _______ _______ _____ _____    ______ ____
ROOT
ATOM      1  O   UNL     1      13.955   3.409  29.733  0.00  0.00    +0.000 OA
ATOM      2  C   UNL     1      14.196   7.020  33.016  0.00  0.00    +0.000 C 
ATOM      3  C   UNL     1      14.110   8.393  32.464  0.00  0.00    +0.000 C 
ATOM      4  C   UNL     1      13.024   6.767  33.995  0.00  0.00    +0.000 C 
ATOM      5  C   UNL     1      15.559   6.831  33.728  0.00  0.00    +0.000 C 
ATOM      6  C   UNL     1      14.099   6.086  31.848  0.00  0.00    +0.000 C 
ATOM      7  C   UNL     1      13.989   9.603  31.521  0.00  0.00    +0.000 C 
ATOM      8  C   UNL     1      13.859  10.300  30.432  0.00  0.00    +0.000 C 
ATOM      9  C   UNL     1      13.798   9.460  29.290  0.00  0.00    +0.000 C 
ATOM     10  C   UNL     1      13.768   8.143  28.512  0.00  0.00    +0.000 C 
ATOM     11  C   UNL     1      14.020   5.409  30.852  0.00  0.00    +0.000 C 
ATOM     12  C   UNL     1      13.125  11.600  30.449  0.00  0.00    +0.000 C 
ATOM     13  C   UNL     1      13.774   6.633  28.256  0.00  0.00    +0.000 C 
ATOM     14  C   UNL     1      13.799   5.333  28.289  0.00  0.00    +0.000 C 
ATOM     15  C   UNL     1      13.924   4.629  29.617  0.00  0.00    +0.000 C 
ATOM     16  C   UNL     1      13.710   4.611  26.966  0.00  0.00    +0.000 C 
ENDROOT
TORSDOF 0
ENDMDL
