MODEL 1
REMARK VINA RESULT:      -6.9      0.000      0.000
REMARK  Name = 5azacytidine.pdbqt.pdb
REMARK  5 active torsions:
REMARK  status: ('A' for Active; 'I' for Inactive)
REMARK    1  A    between atoms: C2*_2  and  O2*_16
REMARK    2  A    between atoms: C3*_3  and  O3*_21
REMARK    3  A    between atoms: C4*_4  and  C5*_18
REMARK    4  A    between atoms: C1*_5  and  N_6
REMARK    5  A    between atoms: C5*_18  and  O5*_19
REMARK                            x       y       z     vdW  Elec       q    Type
REMARK                         _______ _______ _______ _____ _____    ______ ____
ROOT
ATOM      1  O4* UNL     1      21.576  20.783   1.329  0.00  0.00    +0.000 OA
ATOM      2  C2* UNL     1      23.404  20.277   2.642  0.00  0.00    +0.000 A 
ATOM      3  C3* UNL     1      23.865  20.949   1.465  0.00  0.00    +0.000 A 
ATOM      4  C4* UNL     1      22.717  21.267   0.666  0.00  0.00    +0.000 A 
ATOM      5  C1* UNL     1      21.971  20.159   2.532  0.00  0.00    +0.000 A 
ENDROOT
BRANCH   5   6
ATOM      6  N   UNL     1      21.061  19.545   3.341  0.00  0.00    +0.000 N 
ATOM      7  C   UNL     1      21.003  18.197   3.673  0.00  0.00    +0.000 A 
ATOM      8  O   UNL     1      21.781  17.354   3.232  0.00  0.00    +0.000 OA
ATOM      9  N   UNL     1      19.973  17.849   4.543  0.00  0.00    +0.000 NA
ATOM     10  C   UNL     1      19.141  18.758   4.987  0.00  0.00    +0.000 A 
ATOM     11  N   UNL     1      19.187  20.094   4.628  0.00  0.00    +0.000 NA
ATOM     12  C   UNL     1      20.093  20.257   3.913  0.00  0.00    +0.000 A 
ATOM     13  N   UNL     1      18.155  18.373   5.836  0.00  0.00    +0.000 N 
ATOM     14  H   UNL     1      17.338  18.969   5.826  0.00  0.00    +0.000 HD
ATOM     15  H   UNL     1      17.959  17.379   5.805  0.00  0.00    +0.000 HD
ENDBRANCH   5   6
BRANCH   2  16
ATOM     16  O2* UNL     1      24.221  19.379   3.272  0.00  0.00    +0.000 OA
ATOM     17  H2* UNL     1      25.170  19.609   3.168  0.00  0.00    +0.000 HD
ENDBRANCH   2  16
BRANCH   3  18
ATOM     18  O3* UNL     1      25.081  20.654   0.913  0.00  0.00    +0.000 OA
ATOM     19  H3* UNL     1      25.773  21.207   1.321  0.00  0.00    +0.000 HD
ENDBRANCH   3  18
BRANCH   4  20
ATOM     20  C5* UNL     1      22.691  21.674  -0.681  0.00  0.00    +0.000 C 
BRANCH  20  21
ATOM     21  O5* UNL     1      22.662  22.051  -1.956  0.00  0.00    +0.000 OA
ATOM     22  H5* UNL     1      21.773  21.909  -2.325  0.00  0.00    +0.000 HD
ENDBRANCH  20  21
ENDBRANCH   4  20
TORSDOF 5
ENDMDL
MODEL 2
REMARK VINA RESULT:      -5.8      3.197      5.762
REMARK  Name = 5azacytidine.pdbqt.pdb
REMARK  5 active torsions:
REMARK  status: ('A' for Active; 'I' for Inactive)
REMARK    1  A    between atoms: C2*_2  and  O2*_16
REMARK    2  A    between atoms: C3*_3  and  O3*_21
REMARK    3  A    between atoms: C4*_4  and  C5*_18
REMARK    4  A    between atoms: C1*_5  and  N_6
REMARK    5  A    between atoms: C5*_18  and  O5*_19
REMARK                            x       y       z     vdW  Elec       q    Type
REMARK                         _______ _______ _______ _____ _____    ______ ____
ROOT
ATOM      1  O4* UNL     1      22.028  20.248   3.288  0.00  0.00    +0.000 OA
ATOM      2  C2* UNL     1      22.190  19.706   1.051  0.00  0.00    +0.000 A 
ATOM      3  C3* UNL     1      21.299  18.777   1.678  0.00  0.00    +0.000 A 
ATOM      4  C4* UNL     1      21.200  19.134   3.064  0.00  0.00    +0.000 A 
ATOM      5  C1* UNL     1      22.657  20.608   2.077  0.00  0.00    +0.000 A 
ENDROOT
BRANCH   5   6
ATOM      6  N   UNL     1      23.566  21.622   2.027  0.00  0.00    +0.000 N 
ATOM      7  C   UNL     1      24.635  21.754   1.148  0.00  0.00    +0.000 A 
ATOM      8  O   UNL     1      24.919  20.918   0.294  0.00  0.00    +0.000 OA
ATOM      9  N   UNL     1      25.392  22.911   1.313  0.00  0.00    +0.000 NA
ATOM     10  C   UNL     1      25.085  23.780   2.243  0.00  0.00    +0.000 A 
ATOM     11  N   UNL     1      24.037  23.628   3.134  0.00  0.00    +0.000 NA
ATOM     12  C   UNL     1      23.479  22.636   2.885  0.00  0.00    +0.000 A 
ATOM     13  N   UNL     1      25.850  24.895   2.363  0.00  0.00    +0.000 N 
ATOM     14  H   UNL     1      25.849  25.306   3.287  0.00  0.00    +0.000 HD
ATOM     15  H   UNL     1      26.764  24.807   1.936  0.00  0.00    +0.000 HD
ENDBRANCH   5   6
BRANCH   2  16
ATOM     16  O2* UNL     1      22.912  19.319  -0.043  0.00  0.00    +0.000 OA
ATOM     17  H2* UNL     1      22.674  19.838  -0.843  0.00  0.00    +0.000 HD
ENDBRANCH   2  16
BRANCH   3  18
ATOM     18  O3* UNL     1      21.213  17.482   1.248  0.00  0.00    +0.000 OA
ATOM     19  H3* UNL     1      21.841  17.333   0.517  0.00  0.00    +0.000 HD
ENDBRANCH   3  18
BRANCH   4  20
ATOM     20  C5* UNL     1      20.670  18.363   4.116  0.00  0.00    +0.000 C 
BRANCH  20  21
ATOM     21  O5* UNL     1      20.160  17.634   5.104  0.00  0.00    +0.000 OA
ATOM     22  H5* UNL     1      19.783  18.216   5.786  0.00  0.00    +0.000 HD
ENDBRANCH  20  21
ENDBRANCH   4  20
TORSDOF 5
ENDMDL
MODEL 3
REMARK VINA RESULT:      -5.4     27.789     29.898
REMARK  Name = 5azacytidine.pdbqt.pdb
REMARK  5 active torsions:
REMARK  status: ('A' for Active; 'I' for Inactive)
REMARK    1  A    between atoms: C2*_2  and  O2*_16
REMARK    2  A    between atoms: C3*_3  and  O3*_21
REMARK    3  A    between atoms: C4*_4  and  C5*_18
REMARK    4  A    between atoms: C1*_5  and  N_6
REMARK    5  A    between atoms: C5*_18  and  O5*_19
REMARK                            x       y       z     vdW  Elec       q    Type
REMARK                         _______ _______ _______ _____ _____    ______ ____
ROOT
ATOM      1  O4* UNL     1      14.283   6.787  27.986  0.00  0.00    +0.000 OA
ATOM      2  C2* UNL     1      13.916   8.939  27.241  0.00  0.00    +0.000 A 
ATOM      3  C3* UNL     1      14.289   8.130  26.120  0.00  0.00    +0.000 A 
ATOM      4  C4* UNL     1      14.503   6.794  26.598  0.00  0.00    +0.000 A 
ATOM      5  C1* UNL     1      13.938   8.089  28.407  0.00  0.00    +0.000 A 
ENDROOT
BRANCH   5   6
ATOM      6  N   UNL     1      13.734   8.375  29.724  0.00  0.00    +0.000 N 
ATOM      7  C   UNL     1      12.540   8.287  30.430  0.00  0.00    +0.000 A 
ATOM      8  O   UNL     1      11.472   7.956  29.921  0.00  0.00    +0.000 OA
ATOM      9  N   UNL     1      12.629   8.621  31.779  0.00  0.00    +0.000 NA
ATOM     10  C   UNL     1      13.772   8.991  32.299  0.00  0.00    +0.000 A 
ATOM     11  N   UNL     1      14.951   9.106  31.583  0.00  0.00    +0.000 NA
ATOM     12  C   UNL     1      14.749   8.787  30.480  0.00  0.00    +0.000 A 
ATOM     13  N   UNL     1      13.810   9.304  33.619  0.00  0.00    +0.000 N 
ATOM     14  H   UNL     1      14.551   9.943  33.876  0.00  0.00    +0.000 HD
ATOM     15  H   UNL     1      12.902   9.525  34.010  0.00  0.00    +0.000 HD
ENDBRANCH   5   6
BRANCH   2  16
ATOM     16  O2* UNL     1      14.202  10.276  27.237  0.00  0.00    +0.000 OA
ATOM     17  H2* UNL     1      13.891  10.720  28.055  0.00  0.00    +0.000 HD
ENDBRANCH   2  16
BRANCH   3  18
ATOM     18  O3* UNL     1      14.998   8.656  25.076  0.00  0.00    +0.000 OA
ATOM     19  H3* UNL     1      14.759   9.593  24.951  0.00  0.00    +0.000 HD
ENDBRANCH   3  18
BRANCH   4  20
ATOM     20  C5* UNL     1      15.138   5.732  25.927  0.00  0.00    +0.000 C 
BRANCH  20  21
ATOM     21  O5* UNL     1      15.736   4.722  25.303  0.00  0.00    +0.000 OA
ATOM     22  H5* UNL     1      16.530   5.041  24.840  0.00  0.00    +0.000 HD
ENDBRANCH  20  21
ENDBRANCH   4  20
TORSDOF 5
ENDMDL
MODEL 4
REMARK VINA RESULT:      -5.4     33.233     34.345
REMARK  Name = 5azacytidine.pdbqt.pdb
REMARK  5 active torsions:
REMARK  status: ('A' for Active; 'I' for Inactive)
REMARK    1  A    between atoms: C2*_2  and  O2*_16
REMARK    2  A    between atoms: C3*_3  and  O3*_21
REMARK    3  A    between atoms: C4*_4  and  C5*_18
REMARK    4  A    between atoms: C1*_5  and  N_6
REMARK    5  A    between atoms: C5*_18  and  O5*_19
REMARK                            x       y       z     vdW  Elec       q    Type
REMARK                         _______ _______ _______ _____ _____    ______ ____
ROOT
ATOM      1  O4* UNL     1      27.860  -3.083  28.046  0.00  0.00    +0.000 OA
ATOM      2  C2* UNL     1      26.029  -3.118  26.643  0.00  0.00    +0.000 A 
ATOM      3  C3* UNL     1      27.095  -3.837  26.013  0.00  0.00    +0.000 A 
ATOM      4  C4* UNL     1      28.221  -3.815  26.901  0.00  0.00    +0.000 A 
ATOM      5  C1* UNL     1      26.530  -2.632  27.906  0.00  0.00    +0.000 A 
ENDROOT
BRANCH   5   6
ATOM      6  N   UNL     1      25.950  -1.840  28.851  0.00  0.00    +0.000 N 
ATOM      7  C   UNL     1      25.226  -2.249  29.965  0.00  0.00    +0.000 A 
ATOM      8  O   UNL     1      24.984  -3.426  30.224  0.00  0.00    +0.000 OA
ATOM      9  N   UNL     1      24.764  -1.217  30.778  0.00  0.00    +0.000 NA
ATOM     10  C   UNL     1      25.015   0.032  30.474  0.00  0.00    +0.000 A 
ATOM     11  N   UNL     1      25.711   0.433  29.347  0.00  0.00    +0.000 NA
ATOM     12  C   UNL     1      26.051  -0.516  28.763  0.00  0.00    +0.000 A 
ATOM     13  N   UNL     1      24.548   1.003  31.299  0.00  0.00    +0.000 N 
ATOM     14  H   UNL     1      24.401   1.898  30.850  0.00  0.00    +0.000 HD
ATOM     15  H   UNL     1      23.790   0.697  31.898  0.00  0.00    +0.000 HD
ENDBRANCH   5   6
BRANCH   2  16
ATOM     16  O2* UNL     1      25.091  -2.487  25.875  0.00  0.00    +0.000 OA
ATOM     17  H2* UNL     1      24.355  -3.089  25.626  0.00  0.00    +0.000 HD
ENDBRANCH   2  16
BRANCH   3  18
ATOM     18  O3* UNL     1      27.237  -3.840  24.653  0.00  0.00    +0.000 OA
ATOM     19  H3* UNL     1      28.051  -4.317  24.406  0.00  0.00    +0.000 HD
ENDBRANCH   3  18
BRANCH   4  20
ATOM     20  C5* UNL     1      29.558  -4.145  26.606  0.00  0.00    +0.000 C 
BRANCH  20  21
ATOM     21  O5* UNL     1      30.818  -4.467  26.330  0.00  0.00    +0.000 OA
ATOM     22  H5* UNL     1      31.055  -4.148  25.442  0.00  0.00    +0.000 HD
ENDBRANCH  20  21
ENDBRANCH   4  20
TORSDOF 5
ENDMDL
MODEL 5
REMARK VINA RESULT:      -5.2     33.691     34.687
REMARK  Name = 5azacytidine.pdbqt.pdb
REMARK  5 active torsions:
REMARK  status: ('A' for Active; 'I' for Inactive)
REMARK    1  A    between atoms: C2*_2  and  O2*_16
REMARK    2  A    between atoms: C3*_3  and  O3*_21
REMARK    3  A    between atoms: C4*_4  and  C5*_18
REMARK    4  A    between atoms: C1*_5  and  N_6
REMARK    5  A    between atoms: C5*_18  and  O5*_19
REMARK                            x       y       z     vdW  Elec       q    Type
REMARK                         _______ _______ _______ _____ _____    ______ ____
ROOT
ATOM      1  O4* UNL     1      29.009  -3.076  27.534  0.00  0.00    +0.000 OA
ATOM      2  C2* UNL     1      27.357  -3.899  26.150  0.00  0.00    +0.000 A 
ATOM      3  C3* UNL     1      28.577  -3.829  25.405  0.00  0.00    +0.000 A 
ATOM      4  C4* UNL     1      29.596  -3.326  26.282  0.00  0.00    +0.000 A 
ATOM      5  C1* UNL     1      27.637  -3.403  27.476  0.00  0.00    +0.000 A 
ENDROOT
BRANCH   5   6
ATOM      6  N   UNL     1      26.815  -3.194  28.542  0.00  0.00    +0.000 N 
ATOM      7  C   UNL     1      25.694  -2.374  28.595  0.00  0.00    +0.000 A 
ATOM      8  O   UNL     1      25.312  -1.683  27.653  0.00  0.00    +0.000 OA
ATOM      9  N   UNL     1      25.026  -2.369  29.817  0.00  0.00    +0.000 NA
ATOM     10  C   UNL     1      25.459  -3.096  30.816  0.00  0.00    +0.000 A 
ATOM     11  N   UNL     1      26.594  -3.888  30.766  0.00  0.00    +0.000 NA
ATOM     12  C   UNL     1      27.050  -3.816  29.695  0.00  0.00    +0.000 A 
ATOM     13  N   UNL     1      24.773  -3.062  31.986  0.00  0.00    +0.000 N 
ATOM     14  H   UNL     1      25.327  -3.283  32.803  0.00  0.00    +0.000 HD
ATOM     15  H   UNL     1      24.176  -2.249  32.082  0.00  0.00    +0.000 HD
ENDBRANCH   5   6
BRANCH   2  16
ATOM     16  O2* UNL     1      26.159  -3.777  25.502  0.00  0.00    +0.000 OA
ATOM     17  H2* UNL     1      25.725  -4.647  25.365  0.00  0.00    +0.000 HD
ENDBRANCH   2  16
BRANCH   3  18
ATOM     18  O3* UNL     1      28.571  -3.563  24.064  0.00  0.00    +0.000 OA
ATOM     19  H3* UNL     1      28.292  -4.357  23.570  0.00  0.00    +0.000 HD
ENDBRANCH   3  18
BRANCH   4  20
ATOM     20  C5* UNL     1      30.868  -2.835  25.932  0.00  0.00    +0.000 C 
BRANCH  20  21
ATOM     21  O5* UNL     1      32.073  -2.378  25.607  0.00  0.00    +0.000 OA
ATOM     22  H5* UNL     1      32.220  -2.478  24.650  0.00  0.00    +0.000 HD
ENDBRANCH  20  21
ENDBRANCH   4  20
TORSDOF 5
ENDMDL
MODEL 6
REMARK VINA RESULT:      -5.0     25.615     27.034
REMARK  Name = 5azacytidine.pdbqt.pdb
REMARK  5 active torsions:
REMARK  status: ('A' for Active; 'I' for Inactive)
REMARK    1  A    between atoms: C2*_2  and  O2*_16
REMARK    2  A    between atoms: C3*_3  and  O3*_21
REMARK    3  A    between atoms: C4*_4  and  C5*_18
REMARK    4  A    between atoms: C1*_5  and  N_6
REMARK    5  A    between atoms: C5*_18  and  O5*_19
REMARK                            x       y       z     vdW  Elec       q    Type
REMARK                         _______ _______ _______ _____ _____    ______ ____
ROOT
ATOM      1  O4* UNL     1      27.055  -5.331  13.384  0.00  0.00    +0.000 OA
ATOM      2  C2* UNL     1      28.496  -3.568  13.017  0.00  0.00    +0.000 A 
ATOM      3  C3* UNL     1      29.101  -4.760  12.504  0.00  0.00    +0.000 A 
ATOM      4  C4* UNL     1      28.188  -5.844  12.730  0.00  0.00    +0.000 A 
ATOM      5  C1* UNL     1      27.225  -3.945  13.585  0.00  0.00    +0.000 A 
ENDROOT
BRANCH   5   6
ATOM      6  N   UNL     1      26.295  -3.210  14.259  0.00  0.00    +0.000 N 
ATOM      7  C   UNL     1      24.949  -3.062  13.946  0.00  0.00    +0.000 A 
ATOM      8  O   UNL     1      24.420  -3.573  12.962  0.00  0.00    +0.000 OA
ATOM      9  N   UNL     1      24.224  -2.264  14.827  0.00  0.00    +0.000 NA
ATOM     10  C   UNL     1      24.810  -1.710  15.859  0.00  0.00    +0.000 A 
ATOM     11  N   UNL     1      26.158  -1.838  16.148  0.00  0.00    +0.000 NA
ATOM     12  C   UNL     1      26.645  -2.534  15.351  0.00  0.00    +0.000 A 
ATOM     13  N   UNL     1      24.062  -0.944  16.693  0.00  0.00    +0.000 N 
ATOM     14  H   UNL     1      24.586  -0.241  17.198  0.00  0.00    +0.000 HD
ATOM     15  H   UNL     1      23.199  -0.615  16.276  0.00  0.00    +0.000 HD
ENDBRANCH   5   6
BRANCH   2  16
ATOM     16  O2* UNL     1      29.287  -2.547  13.466  0.00  0.00    +0.000 OA
ATOM     17  H2* UNL     1      28.756  -1.787  13.789  0.00  0.00    +0.000 HD
ENDBRANCH   2  16
BRANCH   3  18
ATOM     18  O3* UNL     1      30.457  -4.930  12.527  0.00  0.00    +0.000 OA
ATOM     19  H3* UNL     1      30.689  -5.798  12.147  0.00  0.00    +0.000 HD
ENDBRANCH   3  18
BRANCH   4  20
ATOM     20  C5* UNL     1      28.453  -7.224  12.648  0.00  0.00    +0.000 C 
BRANCH  20  21
ATOM     21  O5* UNL     1      28.697  -8.529  12.563  0.00  0.00    +0.000 OA
ATOM     22  H5* UNL     1      29.474  -8.686  12.000  0.00  0.00    +0.000 HD
ENDBRANCH  20  21
ENDBRANCH   4  20
TORSDOF 5
ENDMDL
MODEL 7
REMARK VINA RESULT:      -5.0     24.386     26.103
REMARK  Name = 5azacytidine.pdbqt.pdb
REMARK  5 active torsions:
REMARK  status: ('A' for Active; 'I' for Inactive)
REMARK    1  A    between atoms: C2*_2  and  O2*_16
REMARK    2  A    between atoms: C3*_3  and  O3*_21
REMARK    3  A    between atoms: C4*_4  and  C5*_18
REMARK    4  A    between atoms: C1*_5  and  N_6
REMARK    5  A    between atoms: C5*_18  and  O5*_19
REMARK                            x       y       z     vdW  Elec       q    Type
REMARK                         _______ _______ _______ _____ _____    ______ ____
ROOT
ATOM      1  O4* UNL     1      26.324  -3.929  12.686  0.00  0.00    +0.000 OA
ATOM      2  C2* UNL     1      27.169  -2.526  14.310  0.00  0.00    +0.000 A 
ATOM      3  C3* UNL     1      28.267  -3.111  13.602  0.00  0.00    +0.000 A 
ATOM      4  C4* UNL     1      27.725  -3.971  12.589  0.00  0.00    +0.000 A 
ATOM      5  C1* UNL     1      25.958  -3.066  13.740  0.00  0.00    +0.000 A 
ENDROOT
BRANCH   5   6
ATOM      6  N   UNL     1      24.652  -2.894  14.092  0.00  0.00    +0.000 N 
ATOM      7  C   UNL     1      23.896  -1.733  13.985  0.00  0.00    +0.000 A 
ATOM      8  O   UNL     1      24.344  -0.666  13.571  0.00  0.00    +0.000 OA
ATOM      9  N   UNL     1      22.573  -1.852  14.402  0.00  0.00    +0.000 NA
ATOM     10  C   UNL     1      22.119  -2.992  14.858  0.00  0.00    +0.000 A 
ATOM     11  N   UNL     1      22.886  -4.137  14.990  0.00  0.00    +0.000 NA
ATOM     12  C   UNL     1      23.960  -3.912  14.598  0.00  0.00    +0.000 A 
ATOM     13  N   UNL     1      20.822  -3.061  15.249  0.00  0.00    +0.000 N 
ATOM     14  H   UNL     1      20.630  -3.775  15.938  0.00  0.00    +0.000 HD
ATOM     15  H   UNL     1      20.409  -2.156  15.446  0.00  0.00    +0.000 HD
ENDBRANCH   5   6
BRANCH   2  16
ATOM     16  O2* UNL     1      27.326  -2.156  15.617  0.00  0.00    +0.000 OA
ATOM     17  H2* UNL     1      26.744  -1.402  15.857  0.00  0.00    +0.000 HD
ENDBRANCH   2  16
BRANCH   3  18
ATOM     18  O3* UNL     1      29.451  -3.378  14.232  0.00  0.00    +0.000 OA
ATOM     19  H3* UNL     1      30.016  -3.926  13.655  0.00  0.00    +0.000 HD
ENDBRANCH   3  18
BRANCH   4  20
ATOM     20  C5* UNL     1      28.403  -4.952  11.840  0.00  0.00    +0.000 C 
BRANCH  20  21
ATOM     21  O5* UNL     1      29.050  -5.877  11.139  0.00  0.00    +0.000 OA
ATOM     22  H5* UNL     1      29.308  -5.518  10.273  0.00  0.00    +0.000 HD
ENDBRANCH  20  21
ENDBRANCH   4  20
TORSDOF 5
ENDMDL
MODEL 8
REMARK VINA RESULT:      -4.9     27.143     28.350
REMARK  Name = 5azacytidine.pdbqt.pdb
REMARK  5 active torsions:
REMARK  status: ('A' for Active; 'I' for Inactive)
REMARK    1  A    between atoms: C2*_2  and  O2*_16
REMARK    2  A    between atoms: C3*_3  and  O3*_21
REMARK    3  A    between atoms: C4*_4  and  C5*_18
REMARK    4  A    between atoms: C1*_5  and  N_6
REMARK    5  A    between atoms: C5*_18  and  O5*_19
REMARK                            x       y       z     vdW  Elec       q    Type
REMARK                         _______ _______ _______ _____ _____    ______ ____
ROOT
ATOM      1  O4* UNL     1      24.324  18.447  31.495  0.00  0.00    +0.000 OA
ATOM      2  C2* UNL     1      23.490  19.472  29.604  0.00  0.00    +0.000 A 
ATOM      3  C3* UNL     1      24.604  20.237  30.078  0.00  0.00    +0.000 A 
ATOM      4  C4* UNL     1      25.117  19.581  31.247  0.00  0.00    +0.000 A 
ATOM      5  C1* UNL     1      23.312  18.367  30.514  0.00  0.00    +0.000 A 
ENDROOT
BRANCH   5   6
ATOM      6  N   UNL     1      22.361  17.392  30.559  0.00  0.00    +0.000 N 
ATOM      7  C   UNL     1      22.368  16.176  29.886  0.00  0.00    +0.000 A 
ATOM      8  O   UNL     1      23.257  15.834  29.110  0.00  0.00    +0.000 OA
ATOM      9  N   UNL     1      21.270  15.358  30.137  0.00  0.00    +0.000 NA
ATOM     10  C   UNL     1      20.322  15.748  30.951  0.00  0.00    +0.000 A 
ATOM     11  N   UNL     1      20.306  16.973  31.596  0.00  0.00    +0.000 NA
ATOM     12  C   UNL     1      21.278  17.553  31.316  0.00  0.00    +0.000 A 
ATOM     13  N   UNL     1      19.273  14.915  31.168  0.00  0.00    +0.000 N 
ATOM     14  H   UNL     1      18.419  15.381  31.445  0.00  0.00    +0.000 HD
ATOM     15  H   UNL     1      19.160  14.210  30.450  0.00  0.00    +0.000 HD
ENDBRANCH   5   6
BRANCH   2  16
ATOM     16  O2* UNL     1      22.484  20.095  28.918  0.00  0.00    +0.000 OA
ATOM     17  H2* UNL     1      22.063  19.497  28.262  0.00  0.00    +0.000 HD
ENDBRANCH   2  16
BRANCH   3  18
ATOM     18  O3* UNL     1      24.644  21.595  29.925  0.00  0.00    +0.000 OA
ATOM     19  H3* UNL     1      24.197  21.848  29.096  0.00  0.00    +0.000 HD
ENDBRANCH   3  18
BRANCH   4  20
ATOM     20  C5* UNL     1      26.016  20.097  32.199  0.00  0.00    +0.000 C 
BRANCH  20  21
ATOM     21  O5* UNL     1      26.871  20.588  33.091  0.00  0.00    +0.000 OA
ATOM     22  H5* UNL     1      26.839  21.560  33.084  0.00  0.00    +0.000 HD
ENDBRANCH  20  21
ENDBRANCH   4  20
TORSDOF 5
ENDMDL
MODEL 9
REMARK VINA RESULT:      -4.8     27.550     28.765
REMARK  Name = 5azacytidine.pdbqt.pdb
REMARK  5 active torsions:
REMARK  status: ('A' for Active; 'I' for Inactive)
REMARK    1  A    between atoms: C2*_2  and  O2*_16
REMARK    2  A    between atoms: C3*_3  and  O3*_21
REMARK    3  A    between atoms: C4*_4  and  C5*_18
REMARK    4  A    between atoms: C1*_5  and  N_6
REMARK    5  A    between atoms: C5*_18  and  O5*_19
REMARK                            x       y       z     vdW  Elec       q    Type
REMARK                         _______ _______ _______ _____ _____    ______ ____
ROOT
ATOM      1  O4* UNL     1      21.129  18.680  31.281  0.00  0.00    +0.000 OA
ATOM      2  C2* UNL     1      23.244  18.433  30.394  0.00  0.00    +0.000 A 
ATOM      3  C3* UNL     1      22.810  19.776  30.159  0.00  0.00    +0.000 A 
ATOM      4  C4* UNL     1      21.499  19.917  30.726  0.00  0.00    +0.000 A 
ATOM      5  C1* UNL     1      22.172  17.750  31.077  0.00  0.00    +0.000 A 
ENDROOT
BRANCH   5   6
ATOM      6  N   UNL     1      22.044  16.450  31.464  0.00  0.00    +0.000 N 
ATOM      7  C   UNL     1      21.938  15.962  32.761  0.00  0.00    +0.000 A 
ATOM      8  O   UNL     1      21.981  16.676  33.761  0.00  0.00    +0.000 OA
ATOM      9  N   UNL     1      21.796  14.581  32.861  0.00  0.00    +0.000 NA
ATOM     10  C   UNL     1      21.773  13.835  31.785  0.00  0.00    +0.000 A 
ATOM     11  N   UNL     1      21.909  14.324  30.497  0.00  0.00    +0.000 NA
ATOM     12  C   UNL     1      22.006  15.484  30.548  0.00  0.00    +0.000 A 
ATOM     13  N   UNL     1      21.628  12.494  31.932  0.00  0.00    +0.000 N 
ATOM     14  H   UNL     1      22.011  11.946  31.172  0.00  0.00    +0.000 HD
ATOM     15  H   UNL     1      21.863  12.160  32.859  0.00  0.00    +0.000 HD
ENDBRANCH   5   6
BRANCH   2  16
ATOM     16  O2* UNL     1      24.124  17.844  29.528  0.00  0.00    +0.000 OA
ATOM     17  H2* UNL     1      23.702  17.623  28.670  0.00  0.00    +0.000 HD
ENDBRANCH   2  16
BRANCH   3  18
ATOM     18  O3* UNL     1      23.199  20.459  29.041  0.00  0.00    +0.000 OA
ATOM     19  H3* UNL     1      23.815  21.174  29.287  0.00  0.00    +0.000 HD
ENDBRANCH   3  18
BRANCH   4  20
ATOM     20  C5* UNL     1      20.573  20.954  30.507  0.00  0.00    +0.000 C 
BRANCH  20  21
ATOM     21  O5* UNL     1      19.706  21.940  30.296  0.00  0.00    +0.000 OA
ATOM     22  H5* UNL     1      19.164  21.744  29.512  0.00  0.00    +0.000 HD
ENDBRANCH  20  21
ENDBRANCH   4  20
TORSDOF 5
ENDMDL
