MODEL 1
REMARK VINA RESULT:      -7.2      0.000      0.000
REMARK  Name = 60953_Capecitabine.pdbqt.pdb
REMARK  6 active torsions:
REMARK  status: ('A' for Active; 'I' for Inactive)
REMARK    1  A    between atoms: N_4  and  C_16
REMARK    2  A    between atoms: C_11  and  O_23
REMARK    3  A    between atoms: C_14  and  O_19
REMARK    4  A    between atoms: C_15  and  O_21
REMARK    5  A    between atoms: O_23  and  C_24
REMARK    6  A    between atoms: C_25  and  C_26
REMARK                            x       y       z     vdW  Elec       q    Type
REMARK                         _______ _______ _______ _____ _____    ______ ____
ROOT
ATOM      1  F   UNL     1      41.721  -4.701   8.658  0.00  0.00    +0.000 F 
ATOM      2  O   UNL     1      45.766  -4.045  12.108  0.00  0.00    +0.000 OA
ATOM      3  O   UNL     1      45.684  -7.687   9.178  0.00  0.00    +0.000 OA
ATOM      4  N   UNL     1      43.655  -3.390  11.393  0.00  0.00    +0.000 N 
ATOM      5  N   UNL     1      44.743  -5.344  10.525  0.00  0.00    +0.000 NA
ATOM      6  N   UNL     1      43.648  -6.605   8.863  0.00  0.00    +0.000 N 
ATOM      7  C   UNL     1      42.642  -3.727  10.570  0.00  0.00    +0.000 C 
ATOM      8  C   UNL     1      44.785  -4.248  11.397  0.00  0.00    +0.000 C 
ATOM      9  C   UNL     1      42.471  -4.722   9.773  0.00  0.00    +0.000 C 
ATOM     10  C   UNL     1      43.710  -5.564   9.767  0.00  0.00    +0.000 C 
ATOM     11  C   UNL     1      44.610  -7.559   8.611  0.00  0.00    +0.000 C 
ATOM     12  H   UNL     1      42.825  -6.691   8.284  0.00  0.00    +0.000 HD
ENDROOT
BRANCH   4  16
ATOM     13  O   UNL     1      42.478  -2.192  13.136  0.00  0.00    +0.000 OA
ATOM     14  C   UNL     1      44.224  -1.018  12.192  0.00  0.00    +0.000 A 
ATOM     15  C   UNL     1      43.583  -0.174  13.153  0.00  0.00    +0.000 A 
ATOM     16  C   UNL     1      43.506  -2.271  12.170  0.00  0.00    +0.000 A 
ATOM     17  C   UNL     1      42.507  -0.925  13.740  0.00  0.00    +0.000 A 
ATOM     18  C   UNL     1      41.369  -0.491  14.599  0.00  0.00    +0.000 C 
BRANCH  14  19
ATOM     19  O   UNL     1      44.858  -0.455  11.121  0.00  0.00    +0.000 OA
ATOM     20  H   UNL     1      45.253   0.419  11.341  0.00  0.00    +0.000 HD
ENDBRANCH  14  19
BRANCH  15  21
ATOM     21  O   UNL     1      43.562   1.187  12.997  0.00  0.00    +0.000 OA
ATOM     22  H   UNL     1      42.647   1.500  12.857  0.00  0.00    +0.000 HD
ENDBRANCH  15  21
ENDBRANCH   4  16
BRANCH  11  23
ATOM     23  O   UNL     1      44.158  -8.373   7.611  0.00  0.00    +0.000 OA
BRANCH  23  24
ATOM     24  C   UNL     1      45.083  -8.815   6.762  0.00  0.00    +0.000 C 
ATOM     25  C   UNL     1      46.147  -9.321   5.782  0.00  0.00    +0.000 C 
BRANCH  25  26
ATOM     26  C   UNL     1      47.209  -9.827   4.802  0.00  0.00    +0.000 C 
ATOM     27  C   UNL     1      48.274 -10.326   3.821  0.00  0.00    +0.000 C 
ATOM     28  C   UNL     1      49.348 -10.816   2.843  0.00  0.00    +0.000 C 
ENDBRANCH  25  26
ENDBRANCH  23  24
ENDBRANCH  11  23
TORSDOF 6
ENDMDL
MODEL 2
REMARK VINA RESULT:      -6.9      3.293      4.045
REMARK  Name = 60953_Capecitabine.pdbqt.pdb
REMARK  6 active torsions:
REMARK  status: ('A' for Active; 'I' for Inactive)
REMARK    1  A    between atoms: N_4  and  C_16
REMARK    2  A    between atoms: C_11  and  O_23
REMARK    3  A    between atoms: C_14  and  O_19
REMARK    4  A    between atoms: C_15  and  O_21
REMARK    5  A    between atoms: O_23  and  C_24
REMARK    6  A    between atoms: C_25  and  C_26
REMARK                            x       y       z     vdW  Elec       q    Type
REMARK                         _______ _______ _______ _____ _____    ______ ____
ROOT
ATOM      1  F   UNL     1      47.126  -7.734  10.023  0.00  0.00    +0.000 F 
ATOM      2  O   UNL     1      42.029  -6.095   9.854  0.00  0.00    +0.000 OA
ATOM      3  O   UNL     1      43.625  -9.272   6.818  0.00  0.00    +0.000 OA
ATOM      4  N   UNL     1      44.165  -5.815  10.723  0.00  0.00    +0.000 N 
ATOM      5  N   UNL     1      43.715  -7.326   8.914  0.00  0.00    +0.000 NA
ATOM      6  N   UNL     1      45.493  -8.594   8.029  0.00  0.00    +0.000 N 
ATOM      7  C   UNL     1      45.446  -6.215  10.588  0.00  0.00    +0.000 C 
ATOM      8  C   UNL     1      43.223  -6.386   9.829  0.00  0.00    +0.000 C 
ATOM      9  C   UNL     1      46.017  -7.021   9.764  0.00  0.00    +0.000 C 
ATOM     10  C   UNL     1      44.976  -7.641   8.883  0.00  0.00    +0.000 C 
ATOM     11  C   UNL     1      44.813  -9.344   7.096  0.00  0.00    +0.000 C 
ATOM     12  H   UNL     1      46.478  -8.809   8.088  0.00  0.00    +0.000 HD
ENDROOT
BRANCH   4  16
ATOM     13  O   UNL     1      43.688  -5.266  13.031  0.00  0.00    +0.000 OA
ATOM     14  C   UNL     1      43.686  -3.453  11.605  0.00  0.00    +0.000 A 
ATOM     15  C   UNL     1      43.330  -2.996  12.914  0.00  0.00    +0.000 A 
ATOM     16  C   UNL     1      43.882  -4.882  11.686  0.00  0.00    +0.000 A 
ATOM     17  C   UNL     1      43.349  -4.135  13.791  0.00  0.00    +0.000 A 
ATOM     18  C   UNL     1      42.835  -4.306  15.179  0.00  0.00    +0.000 C 
BRANCH  14  19
ATOM     19  O   UNL     1      43.222  -2.781  10.510  0.00  0.00    +0.000 OA
ATOM     20  H   UNL     1      42.255  -2.610  10.562  0.00  0.00    +0.000 HD
ENDBRANCH  14  19
BRANCH  15  21
ATOM     21  O   UNL     1      42.500  -1.920  13.085  0.00  0.00    +0.000 OA
ATOM     22  H   UNL     1      42.748  -1.422  13.888  0.00  0.00    +0.000 HD
ENDBRANCH  15  21
ENDBRANCH   4  16
BRANCH  11  23
ATOM     23  O   UNL     1      45.699 -10.197   6.499  0.00  0.00    +0.000 OA
BRANCH  23  24
ATOM     24  C   UNL     1      46.563 -10.798   7.315  0.00  0.00    +0.000 C 
ATOM     25  C   UNL     1      47.558 -11.489   8.253  0.00  0.00    +0.000 C 
BRANCH  25  26
ATOM     26  C   UNL     1      48.555 -12.179   9.188  0.00  0.00    +0.000 C 
ATOM     27  C   UNL     1      49.546 -12.874  10.127  0.00  0.00    +0.000 C 
ATOM     28  C   UNL     1      50.530 -13.579  11.066  0.00  0.00    +0.000 C 
ENDBRANCH  25  26
ENDBRANCH  23  24
ENDBRANCH  11  23
TORSDOF 6
ENDMDL
MODEL 3
REMARK VINA RESULT:      -6.9      2.510      3.634
REMARK  Name = 60953_Capecitabine.pdbqt.pdb
REMARK  6 active torsions:
REMARK  status: ('A' for Active; 'I' for Inactive)
REMARK    1  A    between atoms: N_4  and  C_16
REMARK    2  A    between atoms: C_11  and  O_23
REMARK    3  A    between atoms: C_14  and  O_19
REMARK    4  A    between atoms: C_15  and  O_21
REMARK    5  A    between atoms: O_23  and  C_24
REMARK    6  A    between atoms: C_25  and  C_26
REMARK                            x       y       z     vdW  Elec       q    Type
REMARK                         _______ _______ _______ _____ _____    ______ ____
ROOT
ATOM      1  F   UNL     1      47.211  -8.169   9.475  0.00  0.00    +0.000 F 
ATOM      2  O   UNL     1      42.186  -6.312   9.452  0.00  0.00    +0.000 OA
ATOM      3  O   UNL     1      43.494  -9.720   6.531  0.00  0.00    +0.000 OA
ATOM      4  N   UNL     1      44.373  -6.082  10.202  0.00  0.00    +0.000 N 
ATOM      5  N   UNL     1      43.770  -7.668   8.505  0.00  0.00    +0.000 NA
ATOM      6  N   UNL     1      45.446  -9.062   7.613  0.00  0.00    +0.000 N 
ATOM      7  C   UNL     1      45.627  -6.546  10.031  0.00  0.00    +0.000 C 
ATOM      8  C   UNL     1      43.364  -6.658   9.388  0.00  0.00    +0.000 C 
ATOM      9  C   UNL     1      46.122  -7.422   9.228  0.00  0.00    +0.000 C 
ATOM     10  C   UNL     1      45.014  -8.041   8.434  0.00  0.00    +0.000 C 
ATOM     11  C   UNL     1      44.689  -9.831   6.756  0.00  0.00    +0.000 C 
ATOM     12  H   UNL     1      46.423  -9.318   7.638  0.00  0.00    +0.000 HD
ENDROOT
BRANCH   4  16
ATOM     13  O   UNL     1      44.452  -5.299  12.491  0.00  0.00    +0.000 OA
ATOM     14  C   UNL     1      43.669  -3.740  10.983  0.00  0.00    +0.000 A 
ATOM     15  C   UNL     1      43.602  -3.171  12.294  0.00  0.00    +0.000 A 
ATOM     16  C   UNL     1      44.177  -5.085  11.122  0.00  0.00    +0.000 A 
ATOM     17  C   UNL     1      44.106  -4.150  13.218  0.00  0.00    +0.000 A 
ATOM     18  C   UNL     1      44.047  -4.207  14.706  0.00  0.00    +0.000 C 
BRANCH  14  19
ATOM     19  O   UNL     1      42.786  -3.327  10.025  0.00  0.00    +0.000 OA
ATOM     20  H   UNL     1      41.866  -3.271  10.368  0.00  0.00    +0.000 HD
ENDBRANCH  14  19
BRANCH  15  21
ATOM     21  O   UNL     1      42.644  -2.246  12.615  0.00  0.00    +0.000 OA
ATOM     22  H   UNL     1      42.057  -2.592  13.314  0.00  0.00    +0.000 HD
ENDBRANCH  15  21
ENDBRANCH   4  16
BRANCH  11  23
ATOM     23  O   UNL     1      45.508 -10.755   6.169  0.00  0.00    +0.000 OA
BRANCH  23  24
ATOM     24  C   UNL     1      46.233 -10.316   5.143  0.00  0.00    +0.000 C 
ATOM     25  C   UNL     1      47.070  -9.811   3.963  0.00  0.00    +0.000 C 
BRANCH  25  26
ATOM     26  C   UNL     1      47.908  -9.305   2.785  0.00  0.00    +0.000 C 
ATOM     27  C   UNL     1      48.749  -8.796   1.611  0.00  0.00    +0.000 C 
ATOM     28  C   UNL     1      49.602  -8.284   0.445  0.00  0.00    +0.000 C 
ENDBRANCH  25  26
ENDBRANCH  23  24
ENDBRANCH  11  23
TORSDOF 6
ENDMDL
MODEL 4
REMARK VINA RESULT:      -6.8      3.805      6.008
REMARK  Name = 60953_Capecitabine.pdbqt.pdb
REMARK  6 active torsions:
REMARK  status: ('A' for Active; 'I' for Inactive)
REMARK    1  A    between atoms: N_4  and  C_16
REMARK    2  A    between atoms: C_11  and  O_23
REMARK    3  A    between atoms: C_14  and  O_19
REMARK    4  A    between atoms: C_15  and  O_21
REMARK    5  A    between atoms: O_23  and  C_24
REMARK    6  A    between atoms: C_25  and  C_26
REMARK                            x       y       z     vdW  Elec       q    Type
REMARK                         _______ _______ _______ _____ _____    ______ ____
ROOT
ATOM      1  F   UNL     1      46.663  -2.744  14.422  0.00  0.00    +0.000 F 
ATOM      2  O   UNL     1      42.660   0.816  14.457  0.00  0.00    +0.000 OA
ATOM      3  O   UNL     1      41.794  -3.758  14.030  0.00  0.00    +0.000 OA
ATOM      4  N   UNL     1      44.947   0.417  14.365  0.00  0.00    +0.000 N 
ATOM      5  N   UNL     1      43.338  -1.355  14.199  0.00  0.00    +0.000 NA
ATOM      6  N   UNL     1      44.112  -3.570  13.981  0.00  0.00    +0.000 N 
ATOM      7  C   UNL     1      45.867  -0.558  14.223  0.00  0.00    +0.000 C 
ATOM      8  C   UNL     1      43.586   0.017  14.342  0.00  0.00    +0.000 C 
ATOM      9  C   UNL     1      45.760  -1.826  14.037  0.00  0.00    +0.000 C 
ATOM     10  C   UNL     1      44.313  -2.208  14.079  0.00  0.00    +0.000 C 
ATOM     11  C   UNL     1      42.913  -4.246  13.985  0.00  0.00    +0.000 C 
ATOM     12  H   UNL     1      44.922  -4.172  13.926  0.00  0.00    +0.000 HD
ENDROOT
BRANCH   4  16
ATOM     13  O   UNL     1      45.444   2.331  15.762  0.00  0.00    +0.000 OA
ATOM     14  C   UNL     1      45.834   2.671  13.514  0.00  0.00    +0.000 A 
ATOM     15  C   UNL     1      46.107   3.892  14.208  0.00  0.00    +0.000 A 
ATOM     16  C   UNL     1      45.393   1.706  14.496  0.00  0.00    +0.000 A 
ATOM     17  C   UNL     1      45.872   3.659  15.607  0.00  0.00    +0.000 A 
ATOM     18  C   UNL     1      45.756   4.609  16.749  0.00  0.00    +0.000 C 
BRANCH  14  19
ATOM     19  O   UNL     1      45.422   2.715  12.213  0.00  0.00    +0.000 OA
ATOM     20  H   UNL     1      45.813   1.990  11.675  0.00  0.00    +0.000 HD
ENDBRANCH  14  19
BRANCH  15  21
ATOM     21  O   UNL     1      45.925   5.106  13.600  0.00  0.00    +0.000 OA
ATOM     22  H   UNL     1      45.433   5.712  14.188  0.00  0.00    +0.000 HD
ENDBRANCH  15  21
ENDBRANCH   4  16
BRANCH  11  23
ATOM     23  O   UNL     1      43.172  -5.586  13.914  0.00  0.00    +0.000 OA
BRANCH  23  24
ATOM     24  C   UNL     1      43.600  -6.031  12.734  0.00  0.00    +0.000 C 
ATOM     25  C   UNL     1      44.090  -6.542  11.375  0.00  0.00    +0.000 C 
BRANCH  25  26
ATOM     26  C   UNL     1      44.577  -7.053  10.016  0.00  0.00    +0.000 C 
ATOM     27  C   UNL     1      45.061  -7.569   8.658  0.00  0.00    +0.000 C 
ATOM     28  C   UNL     1      45.534  -8.094   7.298  0.00  0.00    +0.000 C 
ENDBRANCH  25  26
ENDBRANCH  23  24
ENDBRANCH  11  23
TORSDOF 6
ENDMDL
MODEL 5
REMARK VINA RESULT:      -6.7     33.864     35.068
REMARK  Name = 60953_Capecitabine.pdbqt.pdb
REMARK  6 active torsions:
REMARK  status: ('A' for Active; 'I' for Inactive)
REMARK    1  A    between atoms: N_4  and  C_16
REMARK    2  A    between atoms: C_11  and  O_23
REMARK    3  A    between atoms: C_14  and  O_19
REMARK    4  A    between atoms: C_15  and  O_21
REMARK    5  A    between atoms: O_23  and  C_24
REMARK    6  A    between atoms: C_25  and  C_26
REMARK                            x       y       z     vdW  Elec       q    Type
REMARK                         _______ _______ _______ _____ _____    ______ ____
ROOT
ATOM      1  F   UNL     1      21.554  23.757   0.845  0.00  0.00    +0.000 F 
ATOM      2  O   UNL     1      23.556  19.317   3.074  0.00  0.00    +0.000 OA
ATOM      3  O   UNL     1      26.309  22.253   0.696  0.00  0.00    +0.000 OA
ATOM      4  N   UNL     1      21.684  20.564   2.496  0.00  0.00    +0.000 N 
ATOM      5  N   UNL     1      23.886  21.153   1.747  0.00  0.00    +0.000 NA
ATOM      6  N   UNL     1      24.153  23.084   0.424  0.00  0.00    +0.000 N 
ATOM      7  C   UNL     1      21.280  21.641   1.793  0.00  0.00    +0.000 C 
ATOM      8  C   UNL     1      23.072  20.275   2.475  0.00  0.00    +0.000 C 
ATOM      9  C   UNL     1      21.918  22.481   1.056  0.00  0.00    +0.000 C 
ATOM     10  C   UNL     1      23.382  22.171   1.113  0.00  0.00    +0.000 C 
ATOM     11  C   UNL     1      25.522  23.089   0.277  0.00  0.00    +0.000 C 
ATOM     12  H   UNL     1      23.691  23.869  -0.015  0.00  0.00    +0.000 HD
ENDROOT
BRANCH   4  16
ATOM     13  O   UNL     1      19.777  20.453   3.983  0.00  0.00    +0.000 OA
ATOM     14  C   UNL     1      20.484  18.405   3.194  0.00  0.00    +0.000 A 
ATOM     15  C   UNL     1      19.401  18.187   4.103  0.00  0.00    +0.000 A 
ATOM     16  C   UNL     1      20.729  19.828   3.147  0.00  0.00    +0.000 A 
ATOM     17  C   UNL     1      18.965  19.473   4.575  0.00  0.00    +0.000 A 
ATOM     18  C   UNL     1      18.060  19.844   5.698  0.00  0.00    +0.000 C 
BRANCH  14  19
ATOM     19  O   UNL     1      21.435  17.436   3.037  0.00  0.00    +0.000 OA
ATOM     20  H   UNL     1      21.843  17.459   2.143  0.00  0.00    +0.000 HD
ENDBRANCH  14  19
BRANCH  15  21
ATOM     21  O   UNL     1      19.323  17.039   4.847  0.00  0.00    +0.000 OA
ATOM     22  H   UNL     1      18.753  16.383   4.403  0.00  0.00    +0.000 HD
ENDBRANCH  15  21
ENDBRANCH   4  16
BRANCH  11  23
ATOM     23  O   UNL     1      25.875  24.196  -0.442  0.00  0.00    +0.000 OA
BRANCH  23  24
ATOM     24  C   UNL     1      27.050  24.131  -1.065  0.00  0.00    +0.000 C 
ATOM     25  C   UNL     1      28.403  24.054  -1.780  0.00  0.00    +0.000 C 
BRANCH  25  26
ATOM     26  C   UNL     1      29.756  23.977  -2.494  0.00  0.00    +0.000 C 
ATOM     27  C   UNL     1      31.111  23.904  -3.203  0.00  0.00    +0.000 C 
ATOM     28  C   UNL     1      32.474  23.834  -3.901  0.00  0.00    +0.000 C 
ENDBRANCH  25  26
ENDBRANCH  23  24
ENDBRANCH  11  23
TORSDOF 6
ENDMDL
MODEL 6
REMARK VINA RESULT:      -6.4      2.970      4.350
REMARK  Name = 60953_Capecitabine.pdbqt.pdb
REMARK  6 active torsions:
REMARK  status: ('A' for Active; 'I' for Inactive)
REMARK    1  A    between atoms: N_4  and  C_16
REMARK    2  A    between atoms: C_11  and  O_23
REMARK    3  A    between atoms: C_14  and  O_19
REMARK    4  A    between atoms: C_15  and  O_21
REMARK    5  A    between atoms: O_23  and  C_24
REMARK    6  A    between atoms: C_25  and  C_26
REMARK                            x       y       z     vdW  Elec       q    Type
REMARK                         _______ _______ _______ _____ _____    ______ ____
ROOT
ATOM      1  F   UNL     1      46.981  -8.427   9.182  0.00  0.00    +0.000 F 
ATOM      2  O   UNL     1      42.140  -6.177   8.730  0.00  0.00    +0.000 OA
ATOM      3  O   UNL     1      43.219 -10.041   6.329  0.00  0.00    +0.000 OA
ATOM      4  N   UNL     1      44.318  -6.032   9.525  0.00  0.00    +0.000 N 
ATOM      5  N   UNL     1      43.623  -7.774   8.028  0.00  0.00    +0.000 NA
ATOM      6  N   UNL     1      45.193  -9.410   7.388  0.00  0.00    +0.000 N 
ATOM      7  C   UNL     1      45.531  -6.618   9.462  0.00  0.00    +0.000 C 
ATOM      8  C   UNL     1      43.284  -6.625   8.756  0.00  0.00    +0.000 C 
ATOM      9  C   UNL     1      45.967  -7.631   8.800  0.00  0.00    +0.000 C 
ATOM     10  C   UNL     1      44.830  -8.256   8.052  0.00  0.00    +0.000 C 
ATOM     11  C   UNL     1      44.394 -10.220   6.612  0.00  0.00    +0.000 C 
ATOM     12  H   UNL     1      46.143  -9.740   7.482  0.00  0.00    +0.000 HD
ENDROOT
BRANCH   4  16
ATOM     13  O   UNL     1      45.269  -4.018  10.472  0.00  0.00    +0.000 OA
ATOM     14  C   UNL     1      43.080  -4.411  11.083  0.00  0.00    +0.000 A 
ATOM     15  C   UNL     1      43.531  -3.233  11.759  0.00  0.00    +0.000 A 
ATOM     16  C   UNL     1      44.187  -4.909  10.300  0.00  0.00    +0.000 A 
ATOM     17  C   UNL     1      44.891  -2.996  11.357  0.00  0.00    +0.000 A 
ATOM     18  C   UNL     1      45.926  -2.080  11.912  0.00  0.00    +0.000 C 
BRANCH  14  19
ATOM     19  O   UNL     1      42.108  -5.183  11.654  0.00  0.00    +0.000 OA
ATOM     20  H   UNL     1      42.182  -5.208  12.634  0.00  0.00    +0.000 HD
ENDBRANCH  14  19
BRANCH  15  21
ATOM     21  O   UNL     1      43.031  -2.888  12.987  0.00  0.00    +0.000 OA
ATOM     22  H   UNL     1      42.496  -2.074  12.921  0.00  0.00    +0.000 HD
ENDBRANCH  15  21
ENDBRANCH   4  16
BRANCH  11  23
ATOM     23  O   UNL     1      45.143 -11.279   6.180  0.00  0.00    +0.000 OA
BRANCH  23  24
ATOM     24  C   UNL     1      46.369 -11.368   6.693  0.00  0.00    +0.000 C 
ATOM     25  C   UNL     1      47.780 -11.470   7.280  0.00  0.00    +0.000 C 
BRANCH  25  26
ATOM     26  C   UNL     1      49.192 -11.574   7.865  0.00  0.00    +0.000 C 
ATOM     27  C   UNL     1      50.600 -11.678   8.457  0.00  0.00    +0.000 C 
ATOM     28  C   UNL     1      52.004 -11.785   9.061  0.00  0.00    +0.000 C 
ENDBRANCH  25  26
ENDBRANCH  23  24
ENDBRANCH  11  23
TORSDOF 6
ENDMDL
MODEL 7
REMARK VINA RESULT:      -6.3     34.148     36.307
REMARK  Name = 60953_Capecitabine.pdbqt.pdb
REMARK  6 active torsions:
REMARK  status: ('A' for Active; 'I' for Inactive)
REMARK    1  A    between atoms: N_4  and  C_16
REMARK    2  A    between atoms: C_11  and  O_23
REMARK    3  A    between atoms: C_14  and  O_19
REMARK    4  A    between atoms: C_15  and  O_21
REMARK    5  A    between atoms: O_23  and  C_24
REMARK    6  A    between atoms: C_25  and  C_26
REMARK                            x       y       z     vdW  Elec       q    Type
REMARK                         _______ _______ _______ _____ _____    ______ ____
ROOT
ATOM      1  F   UNL     1      21.527  23.880   0.872  0.00  0.00    +0.000 F 
ATOM      2  O   UNL     1      23.580  19.419   3.014  0.00  0.00    +0.000 OA
ATOM      3  O   UNL     1      26.290  22.408   0.652  0.00  0.00    +0.000 OA
ATOM      4  N   UNL     1      21.693  20.663   2.474  0.00  0.00    +0.000 N 
ATOM      5  N   UNL     1      23.884  21.277   1.712  0.00  0.00    +0.000 NA
ATOM      6  N   UNL     1      24.125  23.229   0.415  0.00  0.00    +0.000 N 
ATOM      7  C   UNL     1      21.276  21.748   1.792  0.00  0.00    +0.000 C 
ATOM      8  C   UNL     1      23.084  20.383   2.435  0.00  0.00    +0.000 C 
ATOM      9  C   UNL     1      21.901  22.603   1.061  0.00  0.00    +0.000 C 
ATOM     10  C   UNL     1      23.368  22.301   1.098  0.00  0.00    +0.000 C 
ATOM     11  C   UNL     1      25.493  23.245   0.254  0.00  0.00    +0.000 C 
ATOM     12  H   UNL     1      23.654  24.017  -0.008  0.00  0.00    +0.000 HD
ENDROOT
BRANCH   4  16
ATOM     13  O   UNL     1      19.815  20.516   3.993  0.00  0.00    +0.000 OA
ATOM     14  C   UNL     1      20.505  18.488   3.139  0.00  0.00    +0.000 A 
ATOM     15  C   UNL     1      19.438  18.248   4.063  0.00  0.00    +0.000 A 
ATOM     16  C   UNL     1      20.750  19.911   3.124  0.00  0.00    +0.000 A 
ATOM     17  C   UNL     1      19.012  19.522   4.574  0.00  0.00    +0.000 A 
ATOM     18  C   UNL     1      18.128  19.866   5.723  0.00  0.00    +0.000 C 
BRANCH  14  19
ATOM     19  O   UNL     1      21.451  17.523   2.941  0.00  0.00    +0.000 OA
ATOM     20  H   UNL     1      22.318  17.766   3.337  0.00  0.00    +0.000 HD
ENDBRANCH  14  19
BRANCH  15  21
ATOM     21  O   UNL     1      19.373  17.082   4.779  0.00  0.00    +0.000 OA
ATOM     22  H   UNL     1      19.055  17.256   5.686  0.00  0.00    +0.000 HD
ENDBRANCH  15  21
ENDBRANCH   4  16
BRANCH  11  23
ATOM     23  O   UNL     1      25.832  24.364  -0.453  0.00  0.00    +0.000 OA
BRANCH  23  24
ATOM     24  C   UNL     1      25.828  25.505   0.233  0.00  0.00    +0.000 C 
ATOM     25  C   UNL     1      25.824  26.817   1.025  0.00  0.00    +0.000 C 
BRANCH  25  26
ATOM     26  C   UNL     1      25.817  28.127   1.818  0.00  0.00    +0.000 C 
ATOM     27  C   UNL     1      25.805  29.439   2.607  0.00  0.00    +0.000 C 
ATOM     28  C   UNL     1      25.779  30.753   3.396  0.00  0.00    +0.000 C 
ENDBRANCH  25  26
ENDBRANCH  23  24
ENDBRANCH  11  23
TORSDOF 6
ENDMDL
MODEL 8
REMARK VINA RESULT:      -6.0     35.827     37.924
REMARK  Name = 60953_Capecitabine.pdbqt.pdb
REMARK  6 active torsions:
REMARK  status: ('A' for Active; 'I' for Inactive)
REMARK    1  A    between atoms: N_4  and  C_16
REMARK    2  A    between atoms: C_11  and  O_23
REMARK    3  A    between atoms: C_14  and  O_19
REMARK    4  A    between atoms: C_15  and  O_21
REMARK    5  A    between atoms: O_23  and  C_24
REMARK    6  A    between atoms: C_25  and  C_26
REMARK                            x       y       z     vdW  Elec       q    Type
REMARK                         _______ _______ _______ _____ _____    ______ ____
ROOT
ATOM      1  F   UNL     1      21.501  16.284  35.393  0.00  0.00    +0.000 F 
ATOM      2  O   UNL     1      21.928  15.491  30.112  0.00  0.00    +0.000 OA
ATOM      3  O   UNL     1      21.101  11.918  33.011  0.00  0.00    +0.000 OA
ATOM      4  N   UNL     1      22.162  16.935  31.917  0.00  0.00    +0.000 N 
ATOM      5  N   UNL     1      21.706  14.597  32.208  0.00  0.00    +0.000 NA
ATOM      6  N   UNL     1      21.444  13.758  34.394  0.00  0.00    +0.000 N 
ATOM      7  C   UNL     1      22.154  16.988  33.264  0.00  0.00    +0.000 C 
ATOM      8  C   UNL     1      21.938  15.663  31.329  0.00  0.00    +0.000 C 
ATOM      9  C   UNL     1      22.005  16.080  34.164  0.00  0.00    +0.000 C 
ATOM     10  C   UNL     1      21.713  14.771  33.497  0.00  0.00    +0.000 C 
ATOM     11  C   UNL     1      21.143  12.444  34.114  0.00  0.00    +0.000 C 
ATOM     12  H   UNL     1      21.435  13.980  35.380  0.00  0.00    +0.000 HD
ENDROOT
BRANCH   4  16
ATOM     13  O   UNL     1      21.496  19.173  31.282  0.00  0.00    +0.000 OA
ATOM     14  C   UNL     1      23.488  18.477  30.351  0.00  0.00    +0.000 A 
ATOM     15  C   UNL     1      23.186  19.781  29.845  0.00  0.00    +0.000 A 
ATOM     16  C   UNL     1      22.407  18.095  31.230  0.00  0.00    +0.000 A 
ATOM     17  C   UNL     1      21.950  20.204  30.444  0.00  0.00    +0.000 A 
ATOM     18  C   UNL     1      21.044  21.339  30.113  0.00  0.00    +0.000 C 
BRANCH  14  19
ATOM     19  O   UNL     1      24.228  17.616  29.591  0.00  0.00    +0.000 OA
ATOM     20  H   UNL     1      23.863  17.515  28.684  0.00  0.00    +0.000 HD
ENDBRANCH  14  19
BRANCH  15  21
ATOM     21  O   UNL     1      23.594  20.165  28.595  0.00  0.00    +0.000 OA
ATOM     22  H   UNL     1      23.195  19.591  27.914  0.00  0.00    +0.000 HD
ENDBRANCH  15  21
ENDBRANCH   4  16
BRANCH  11  23
ATOM     23  O   UNL     1      20.904  11.795  35.293  0.00  0.00    +0.000 OA
BRANCH  23  24
ATOM     24  C   UNL     1      21.574  10.659  35.474  0.00  0.00    +0.000 C 
ATOM     25  C   UNL     1      22.346   9.352  35.681  0.00  0.00    +0.000 C 
BRANCH  25  26
ATOM     26  C   UNL     1      23.119   8.046  35.886  0.00  0.00    +0.000 C 
ATOM     27  C   UNL     1      23.886   6.736  36.087  0.00  0.00    +0.000 C 
ATOM     28  C   UNL     1      24.647   5.419  36.280  0.00  0.00    +0.000 C 
ENDBRANCH  25  26
ENDBRANCH  23  24
ENDBRANCH  11  23
TORSDOF 6
ENDMDL
MODEL 9
REMARK VINA RESULT:      -5.8     21.365     24.975
REMARK  Name = 60953_Capecitabine.pdbqt.pdb
REMARK  6 active torsions:
REMARK  status: ('A' for Active; 'I' for Inactive)
REMARK    1  A    between atoms: N_4  and  C_16
REMARK    2  A    between atoms: C_11  and  O_23
REMARK    3  A    between atoms: C_14  and  O_19
REMARK    4  A    between atoms: C_15  and  O_21
REMARK    5  A    between atoms: O_23  and  C_24
REMARK    6  A    between atoms: C_25  and  C_26
REMARK                            x       y       z     vdW  Elec       q    Type
REMARK                         _______ _______ _______ _____ _____    ______ ____
ROOT
ATOM      1  F   UNL     1      23.713  -2.596  25.793  0.00  0.00    +0.000 F 
ATOM      2  O   UNL     1      28.143  -2.581  28.805  0.00  0.00    +0.000 OA
ATOM      3  O   UNL     1      28.168  -4.447  24.519  0.00  0.00    +0.000 OA
ATOM      4  N   UNL     1      25.855  -2.208  28.658  0.00  0.00    +0.000 N 
ATOM      5  N   UNL     1      27.092  -3.248  26.884  0.00  0.00    +0.000 NA
ATOM      6  N   UNL     1      25.950  -3.865  24.918  0.00  0.00    +0.000 N 
ATOM      7  C   UNL     1      24.783  -2.379  27.857  0.00  0.00    +0.000 C 
ATOM      8  C   UNL     1      27.099  -2.678  28.164  0.00  0.00    +0.000 C 
ATOM      9  C   UNL     1      24.647  -2.927  26.701  0.00  0.00    +0.000 C 
ATOM     10  C   UNL     1      25.992  -3.352  26.198  0.00  0.00    +0.000 C 
ATOM     11  C   UNL     1      27.002  -4.345  24.169  0.00  0.00    +0.000 C 
ATOM     12  H   UNL     1      25.063  -3.881  24.435  0.00  0.00    +0.000 HD
ENDROOT
BRANCH   4  16
ATOM     13  O   UNL     1      25.429  -2.409  31.032  0.00  0.00    +0.000 OA
ATOM     14  C   UNL     1      25.588  -0.235  30.277  0.00  0.00    +0.000 A 
ATOM     15  C   UNL     1      25.274  -0.205  31.673  0.00  0.00    +0.000 A 
ATOM     16  C   UNL     1      25.656  -1.623  29.881  0.00  0.00    +0.000 A 
ATOM     17  C   UNL     1      25.191  -1.566  32.129  0.00  0.00    +0.000 A 
ATOM     18  C   UNL     1      24.664  -2.139  33.399  0.00  0.00    +0.000 C 
BRANCH  14  19
ATOM     19  O   UNL     1      25.185   0.795  29.476  0.00  0.00    +0.000 OA
ATOM     20  H   UNL     1      24.262   0.678  29.157  0.00  0.00    +0.000 HD
ENDBRANCH  14  19
BRANCH  15  21
ATOM     21  O   UNL     1      24.543   0.821  32.211  0.00  0.00    +0.000 OA
ATOM     22  H   UNL     1      23.643   0.517  32.438  0.00  0.00    +0.000 HD
ENDBRANCH  15  21
ENDBRANCH   4  16
BRANCH  11  23
ATOM     23  O   UNL     1      26.525  -4.714  22.942  0.00  0.00    +0.000 OA
BRANCH  23  24
ATOM     24  C   UNL     1      27.027  -5.840  22.440  0.00  0.00    +0.000 C 
ATOM     25  C   UNL     1      27.607  -7.135  21.862  0.00  0.00    +0.000 C 
BRANCH  25  26
ATOM     26  C   UNL     1      28.189  -8.428  21.284  0.00  0.00    +0.000 C 
ATOM     27  C   UNL     1      28.765  -9.721  20.699  0.00  0.00    +0.000 C 
ATOM     28  C   UNL     1      29.338 -11.011  20.102  0.00  0.00    +0.000 C 
ENDBRANCH  25  26
ENDBRANCH  23  24
ENDBRANCH  11  23
TORSDOF 6
ENDMDL
