MODEL 1
REMARK VINA RESULT:      -6.4      0.000      0.000
REMARK  Name = 6223_Gliotoxin.pdbqt.pdb
REMARK  3 active torsions:
REMARK  status: ('A' for Active; 'I' for Inactive)
REMARK    1  A    between atoms: C_10  and  C_21
REMARK    2  A    between atoms: C_14  and  O_19
REMARK    3  A    between atoms: C_21  and  O_22
REMARK                            x       y       z     vdW  Elec       q    Type
REMARK                         _______ _______ _______ _____ _____    ______ ____
ROOT
ATOM      1  S   UNL     1      46.857  -4.679  12.931  0.00  0.00    +0.000 S 
ATOM      2  S   UNL     1      46.770  -2.969  14.084  0.00  0.00    +0.000 S 
ATOM      3  O   UNL     1      43.158  -2.739  13.876  0.00  0.00    +0.000 OA
ATOM      4  O   UNL     1      46.508  -2.975   9.831  0.00  0.00    +0.000 OA
ATOM      5  N   UNL     1      44.277  -4.002  12.316  0.00  0.00    +0.000 N 
ATOM      6  N   UNL     1      45.806  -1.826  11.759  0.00  0.00    +0.000 N 
ATOM      7  C   UNL     1      45.599  -4.276  11.671  0.00  0.00    +0.000 C 
ATOM      8  C   UNL     1      43.328  -4.961  11.957  0.00  0.00    +0.000 A 
ATOM      9  C   UNL     1      45.272  -5.418  10.820  0.00  0.00    +0.000 C 
ATOM     10  C   UNL     1      45.429  -2.018  13.199  0.00  0.00    +0.000 C 
ATOM     11  C   UNL     1      43.937  -5.840  10.899  0.00  0.00    +0.000 A 
ATOM     12  C   UNL     1      44.156  -2.923  13.181  0.00  0.00    +0.000 C 
ATOM     13  C   UNL     1      46.003  -2.986  10.955  0.00  0.00    +0.000 C 
ATOM     14  C   UNL     1      42.122  -5.410  12.693  0.00  0.00    +0.000 A 
ATOM     15  C   UNL     1      43.468  -7.055  10.902  0.00  0.00    +0.000 A 
ATOM     16  C   UNL     1      41.803  -6.780  12.395  0.00  0.00    +0.000 A 
ATOM     17  C   UNL     1      46.118  -0.467  11.319  0.00  0.00    +0.000 C 
ATOM     18  C   UNL     1      42.274  -7.626  11.682  0.00  0.00    +0.000 A 
ENDROOT
BRANCH  14  19
ATOM     19  O   UNL     1      41.707  -4.836  13.860  0.00  0.00    +0.000 OA
ATOM     20  H   UNL     1      40.733  -4.781  13.937  0.00  0.00    +0.000 HD
ENDBRANCH  14  19
BRANCH  10  21
ATOM     21  C   UNL     1      45.168  -0.760  13.948  0.00  0.00    +0.000 C 
BRANCH  21  22
ATOM     22  O   UNL     1      44.917   0.363  14.626  0.00  0.00    +0.000 OA
ATOM     23  H   UNL     1      44.534   1.048  14.046  0.00  0.00    +0.000 HD
ENDBRANCH  21  22
ENDBRANCH  10  21
TORSDOF 3
ENDMDL
MODEL 2
REMARK VINA RESULT:      -6.4      2.170      5.454
REMARK  Name = 6223_Gliotoxin.pdbqt.pdb
REMARK  3 active torsions:
REMARK  status: ('A' for Active; 'I' for Inactive)
REMARK    1  A    between atoms: C_10  and  C_21
REMARK    2  A    between atoms: C_14  and  O_19
REMARK    3  A    between atoms: C_21  and  O_22
REMARK                            x       y       z     vdW  Elec       q    Type
REMARK                         _______ _______ _______ _____ _____    ______ ____
ROOT
ATOM      1  S   UNL     1      46.317  -4.466  11.907  0.00  0.00    +0.000 S 
ATOM      2  S   UNL     1      44.970  -5.230  10.542  0.00  0.00    +0.000 S 
ATOM      3  O   UNL     1      42.544  -2.598  11.117  0.00  0.00    +0.000 OA
ATOM      4  O   UNL     1      44.636  -5.764  14.756  0.00  0.00    +0.000 OA
ATOM      5  N   UNL     1      44.163  -2.976  12.705  0.00  0.00    +0.000 N 
ATOM      6  N   UNL     1      43.380  -5.577  12.776  0.00  0.00    +0.000 N 
ATOM      7  C   UNL     1      45.169  -3.950  13.230  0.00  0.00    +0.000 C 
ATOM      8  C   UNL     1      44.312  -1.721  13.297  0.00  0.00    +0.000 A 
ATOM      9  C   UNL     1      45.826  -3.154  14.263  0.00  0.00    +0.000 C 
ATOM     10  C   UNL     1      43.357  -4.917  11.429  0.00  0.00    +0.000 C 
ATOM     11  C   UNL     1      45.335  -1.848  14.394  0.00  0.00    +0.000 A 
ATOM     12  C   UNL     1      43.277  -3.384  11.715  0.00  0.00    +0.000 C 
ATOM     13  C   UNL     1      44.378  -5.169  13.708  0.00  0.00    +0.000 C 
ATOM     14  C   UNL     1      43.948  -0.385  12.771  0.00  0.00    +0.000 A 
ATOM     15  C   UNL     1      45.997  -0.749  14.614  0.00  0.00    +0.000 A 
ATOM     16  C   UNL     1      44.812   0.639  13.292  0.00  0.00    +0.000 A 
ATOM     17  C   UNL     1      42.489  -6.718  12.984  0.00  0.00    +0.000 C 
ATOM     18  C   UNL     1      45.738   0.661  14.059  0.00  0.00    +0.000 A 
ENDROOT
BRANCH  14  19
ATOM     19  O   UNL     1      43.289  -0.206  11.589  0.00  0.00    +0.000 OA
ATOM     20  H   UNL     1      43.414   0.688  11.211  0.00  0.00    +0.000 HD
ENDBRANCH  14  19
BRANCH  10  21
ATOM     21  C   UNL     1      42.240  -5.345  10.544  0.00  0.00    +0.000 C 
BRANCH  21  22
ATOM     22  O   UNL     1      41.233  -5.710   9.746  0.00  0.00    +0.000 OA
ATOM     23  H   UNL     1      40.369  -5.532  10.163  0.00  0.00    +0.000 HD
ENDBRANCH  21  22
ENDBRANCH  10  21
TORSDOF 3
ENDMDL
MODEL 3
REMARK VINA RESULT:      -6.3      3.377      5.091
REMARK  Name = 6223_Gliotoxin.pdbqt.pdb
REMARK  3 active torsions:
REMARK  status: ('A' for Active; 'I' for Inactive)
REMARK    1  A    between atoms: C_10  and  C_21
REMARK    2  A    between atoms: C_14  and  O_19
REMARK    3  A    between atoms: C_21  and  O_22
REMARK                            x       y       z     vdW  Elec       q    Type
REMARK                         _______ _______ _______ _____ _____    ______ ____
ROOT
ATOM      1  S   UNL     1      46.166  -1.933  13.819  0.00  0.00    +0.000 S 
ATOM      2  S   UNL     1      47.697  -0.747  13.105  0.00  0.00    +0.000 S 
ATOM      3  O   UNL     1      45.524   2.093  12.506  0.00  0.00    +0.000 OA
ATOM      4  O   UNL     1      44.901  -2.769  10.605  0.00  0.00    +0.000 OA
ATOM      5  N   UNL     1      44.585   0.005  12.706  0.00  0.00    +0.000 N 
ATOM      6  N   UNL     1      46.259  -0.854  10.746  0.00  0.00    +0.000 N 
ATOM      7  C   UNL     1      44.837  -1.469  12.657  0.00  0.00    +0.000 C 
ATOM      8  C   UNL     1      43.308   0.287  13.195  0.00  0.00    +0.000 A 
ATOM      9  C   UNL     1      43.534  -1.996  13.056  0.00  0.00    +0.000 C 
ATOM     10  C   UNL     1      46.829   0.143  11.711  0.00  0.00    +0.000 C 
ATOM     11  C   UNL     1      42.570  -1.017  13.337  0.00  0.00    +0.000 A 
ATOM     12  C   UNL     1      45.597   0.878  12.330  0.00  0.00    +0.000 C 
ATOM     13  C   UNL     1      45.290  -1.780  11.229  0.00  0.00    +0.000 C 
ATOM     14  C   UNL     1      42.815   1.499  13.890  0.00  0.00    +0.000 A 
ATOM     15  C   UNL     1      41.675  -1.006  14.282  0.00  0.00    +0.000 A 
ATOM     16  C   UNL     1      41.744   1.187  14.797  0.00  0.00    +0.000 A 
ATOM     17  C   UNL     1      46.863  -0.927   9.416  0.00  0.00    +0.000 C 
ATOM     18  C   UNL     1      41.154   0.185  15.103  0.00  0.00    +0.000 A 
ENDROOT
BRANCH  14  19
ATOM     19  O   UNL     1      43.582   2.613  14.074  0.00  0.00    +0.000 OA
ATOM     20  H   UNL     1      44.478   2.412  14.412  0.00  0.00    +0.000 HD
ENDBRANCH  14  19
BRANCH  10  21
ATOM     21  C   UNL     1      47.776   1.121  11.111  0.00  0.00    +0.000 C 
BRANCH  21  22
ATOM     22  O   UNL     1      48.622   2.011  10.586  0.00  0.00    +0.000 OA
ATOM     23  H   UNL     1      48.275   2.919  10.667  0.00  0.00    +0.000 HD
ENDBRANCH  21  22
ENDBRANCH  10  21
TORSDOF 3
ENDMDL
MODEL 4
REMARK VINA RESULT:      -6.1     36.249     37.496
REMARK  Name = 6223_Gliotoxin.pdbqt.pdb
REMARK  3 active torsions:
REMARK  status: ('A' for Active; 'I' for Inactive)
REMARK    1  A    between atoms: C_10  and  C_21
REMARK    2  A    between atoms: C_14  and  O_19
REMARK    3  A    between atoms: C_21  and  O_22
REMARK                            x       y       z     vdW  Elec       q    Type
REMARK                         _______ _______ _______ _____ _____    ______ ____
ROOT
ATOM      1  S   UNL     1      11.741   6.527  30.704  0.00  0.00    +0.000 S 
ATOM      2  S   UNL     1      11.883   7.611  32.454  0.00  0.00    +0.000 S 
ATOM      3  O   UNL     1      14.360   9.891  31.110  0.00  0.00    +0.000 OA
ATOM      4  O   UNL     1      14.704   4.647  31.266  0.00  0.00    +0.000 OA
ATOM      5  N   UNL     1      14.045   7.864  30.073  0.00  0.00    +0.000 N 
ATOM      6  N   UNL     1      14.476   6.656  32.469  0.00  0.00    +0.000 N 
ATOM      7  C   UNL     1      13.500   6.478  30.217  0.00  0.00    +0.000 C 
ATOM      8  C   UNL     1      14.403   8.135  28.752  0.00  0.00    +0.000 A 
ATOM      9  C   UNL     1      13.694   5.952  28.869  0.00  0.00    +0.000 C 
ATOM     10  C   UNL     1      13.719   7.950  32.509  0.00  0.00    +0.000 C 
ATOM     11  C   UNL     1      14.271   6.858  27.967  0.00  0.00    +0.000 A 
ATOM     12  C   UNL     1      14.090   8.694  31.186  0.00  0.00    +0.000 C 
ATOM     13  C   UNL     1      14.309   5.813  31.332  0.00  0.00    +0.000 C 
ATOM     14  C   UNL     1      14.477   9.436  28.047  0.00  0.00    +0.000 A 
ATOM     15  C   UNL     1      13.985   7.048  26.712  0.00  0.00    +0.000 A 
ATOM     16  C   UNL     1      14.213   9.289  26.641  0.00  0.00    +0.000 A 
ATOM     17  C   UNL     1      15.203   6.261  33.675  0.00  0.00    +0.000 C 
ATOM     18  C   UNL     1      13.966   8.363  25.915  0.00  0.00    +0.000 A 
ENDROOT
BRANCH  14  19
ATOM     19  O   UNL     1      14.276  10.632  28.672  0.00  0.00    +0.000 OA
ATOM     20  H   UNL     1      15.109  11.074  28.935  0.00  0.00    +0.000 HD
ENDBRANCH  14  19
BRANCH  10  21
ATOM     21  C   UNL     1      14.007   8.805  33.691  0.00  0.00    +0.000 C 
BRANCH  21  22
ATOM     22  O   UNL     1      14.282   9.579  34.744  0.00  0.00    +0.000 OA
ATOM     23  H   UNL     1      14.525  10.482  34.465  0.00  0.00    +0.000 HD
ENDBRANCH  21  22
ENDBRANCH  10  21
TORSDOF 3
ENDMDL
MODEL 5
REMARK VINA RESULT:      -6.1     34.973     36.620
REMARK  Name = 6223_Gliotoxin.pdbqt.pdb
REMARK  3 active torsions:
REMARK  status: ('A' for Active; 'I' for Inactive)
REMARK    1  A    between atoms: C_10  and  C_21
REMARK    2  A    between atoms: C_14  and  O_19
REMARK    3  A    between atoms: C_21  and  O_22
REMARK                            x       y       z     vdW  Elec       q    Type
REMARK                         _______ _______ _______ _____ _____    ______ ____
ROOT
ATOM      1  S   UNL     1      22.875  25.913   0.765  0.00  0.00    +0.000 S 
ATOM      2  S   UNL     1      22.884  23.982   0.034  0.00  0.00    +0.000 S 
ATOM      3  O   UNL     1      24.058  22.562   3.156  0.00  0.00    +0.000 OA
ATOM      4  O   UNL     1      26.377  26.395   0.403  0.00  0.00    +0.000 OA
ATOM      5  N   UNL     1      24.365  24.809   2.779  0.00  0.00    +0.000 N 
ATOM      6  N   UNL     1      25.610  24.172   0.449  0.00  0.00    +0.000 N 
ATOM      7  C   UNL     1      24.415  25.889   1.744  0.00  0.00    +0.000 C 
ATOM      8  C   UNL     1      24.370  25.340   4.069  0.00  0.00    +0.000 A 
ATOM      9  C   UNL     1      24.568  27.078   2.579  0.00  0.00    +0.000 C 
ATOM     10  C   UNL     1      24.438  23.315   0.827  0.00  0.00    +0.000 C 
ATOM     11  C   UNL     1      24.602  26.823   3.957  0.00  0.00    +0.000 A 
ATOM     12  C   UNL     1      24.276  23.484   2.372  0.00  0.00    +0.000 C 
ATOM     13  C   UNL     1      25.588  25.546   0.823  0.00  0.00    +0.000 C 
ATOM     14  C   UNL     1      23.830  24.766   5.324  0.00  0.00    +0.000 A 
ATOM     15  C   UNL     1      24.062  27.507   4.924  0.00  0.00    +0.000 A 
ATOM     16  C   UNL     1      23.412  25.795   6.237  0.00  0.00    +0.000 A 
ATOM     17  C   UNL     1      26.620  23.583  -0.429  0.00  0.00    +0.000 C 
ATOM     18  C   UNL     1      23.417  26.997   6.222  0.00  0.00    +0.000 A 
ENDROOT
BRANCH  14  19
ATOM     19  O   UNL     1      23.298  23.511   5.397  0.00  0.00    +0.000 OA
ATOM     20  H   UNL     1      22.498  23.399   4.846  0.00  0.00    +0.000 HD
ENDBRANCH  14  19
BRANCH  10  21
ATOM     21  C   UNL     1      24.573  21.878   0.467  0.00  0.00    +0.000 C 
BRANCH  21  22
ATOM     22  O   UNL     1      24.683  20.591   0.130  0.00  0.00    +0.000 OA
ATOM     23  H   UNL     1      24.498  20.009   0.891  0.00  0.00    +0.000 HD
ENDBRANCH  21  22
ENDBRANCH  10  21
TORSDOF 3
ENDMDL
MODEL 6
REMARK VINA RESULT:      -5.8     22.185     24.049
REMARK  Name = 6223_Gliotoxin.pdbqt.pdb
REMARK  3 active torsions:
REMARK  status: ('A' for Active; 'I' for Inactive)
REMARK    1  A    between atoms: C_10  and  C_21
REMARK    2  A    between atoms: C_14  and  O_19
REMARK    3  A    between atoms: C_21  and  O_22
REMARK                            x       y       z     vdW  Elec       q    Type
REMARK                         _______ _______ _______ _____ _____    ______ ____
ROOT
ATOM      1  S   UNL     1      26.412  -5.686  28.580  0.00  0.00    +0.000 S 
ATOM      2  S   UNL     1      28.297  -5.954  27.783  0.00  0.00    +0.000 S 
ATOM      3  O   UNL     1      29.401  -2.619  28.679  0.00  0.00    +0.000 OA
ATOM      4  O   UNL     1      25.168  -3.840  25.809  0.00  0.00    +0.000 OA
ATOM      5  N   UNL     1      27.144  -3.048  28.579  0.00  0.00    +0.000 N 
ATOM      6  N   UNL     1      27.505  -3.957  26.044  0.00  0.00    +0.000 N 
ATOM      7  C   UNL     1      26.088  -3.968  28.055  0.00  0.00    +0.000 C 
ATOM      8  C   UNL     1      26.617  -2.135  29.493  0.00  0.00    +0.000 A 
ATOM      9  C   UNL     1      24.889  -3.409  28.675  0.00  0.00    +0.000 C 
ATOM     10  C   UNL     1      28.598  -4.276  27.021  0.00  0.00    +0.000 C 
ATOM     11  C   UNL     1      25.120  -2.295  29.493  0.00  0.00    +0.000 A 
ATOM     12  C   UNL     1      28.459  -3.220  28.164  0.00  0.00    +0.000 C 
ATOM     13  C   UNL     1      26.167  -3.887  26.529  0.00  0.00    +0.000 C 
ATOM     14  C   UNL     1      27.288  -1.429  30.610  0.00  0.00    +0.000 A 
ATOM     15  C   UNL     1      24.567  -1.994  30.632  0.00  0.00    +0.000 A 
ATOM     16  C   UNL     1      26.372  -1.144  31.680  0.00  0.00    +0.000 A 
ATOM     17  C   UNL     1      27.861  -3.910  24.626  0.00  0.00    +0.000 C 
ATOM     18  C   UNL     1      25.198  -1.329  31.866  0.00  0.00    +0.000 A 
ENDROOT
BRANCH  14  19
ATOM     19  O   UNL     1      28.630  -1.520  30.846  0.00  0.00    +0.000 OA
ATOM     20  H   UNL     1      28.842  -1.982  31.682  0.00  0.00    +0.000 HD
ENDBRANCH  14  19
BRANCH  10  21
ATOM     21  C   UNL     1      29.971  -4.254  26.451  0.00  0.00    +0.000 C 
BRANCH  21  22
ATOM     22  O   UNL     1      31.210  -4.246  25.953  0.00  0.00    +0.000 OA
ATOM     23  H   UNL     1      31.567  -5.152  25.876  0.00  0.00    +0.000 HD
ENDBRANCH  21  22
ENDBRANCH  10  21
TORSDOF 3
ENDMDL
MODEL 7
REMARK VINA RESULT:      -5.7     35.363     37.305
REMARK  Name = 6223_Gliotoxin.pdbqt.pdb
REMARK  3 active torsions:
REMARK  status: ('A' for Active; 'I' for Inactive)
REMARK    1  A    between atoms: C_10  and  C_21
REMARK    2  A    between atoms: C_14  and  O_19
REMARK    3  A    between atoms: C_21  and  O_22
REMARK                            x       y       z     vdW  Elec       q    Type
REMARK                         _______ _______ _______ _____ _____    ______ ____
ROOT
ATOM      1  S   UNL     1      21.589  15.729  35.379  0.00  0.00    +0.000 S 
ATOM      2  S   UNL     1      21.176  13.804  36.001  0.00  0.00    +0.000 S 
ATOM      3  O   UNL     1      20.664  12.580  32.627  0.00  0.00    +0.000 OA
ATOM      4  O   UNL     1      18.186  16.628  34.888  0.00  0.00    +0.000 OA
ATOM      5  N   UNL     1      20.532  14.842  33.015  0.00  0.00    +0.000 N 
ATOM      6  N   UNL     1      18.681  14.330  34.936  0.00  0.00    +0.000 N 
ATOM      7  C   UNL     1      20.350  15.906  34.051  0.00  0.00    +0.000 C 
ATOM      8  C   UNL     1      20.910  15.387  31.787  0.00  0.00    +0.000 A 
ATOM      9  C   UNL     1      20.547  17.116  33.257  0.00  0.00    +0.000 C 
ATOM     10  C   UNL     1      19.804  13.342  34.822  0.00  0.00    +0.000 C 
ATOM     11  C   UNL     1      20.829  16.886  31.903  0.00  0.00    +0.000 A 
ATOM     12  C   UNL     1      20.364  13.511  33.373  0.00  0.00    +0.000 C 
ATOM     13  C   UNL     1      18.953  15.696  34.639  0.00  0.00    +0.000 C 
ATOM     14  C   UNL     1      21.677  14.769  30.680  0.00  0.00    +0.000 A 
ATOM     15  C   UNL     1      21.668  17.512  31.130  0.00  0.00    +0.000 A 
ATOM     16  C   UNL     1      22.425  15.752  29.944  0.00  0.00    +0.000 A 
ATOM     17  C   UNL     1      17.422  13.856  35.512  0.00  0.00    +0.000 C 
ATOM     18  C   UNL     1      22.554  16.945  30.009  0.00  0.00    +0.000 A 
ENDROOT
BRANCH  14  19
ATOM     19  O   UNL     1      22.063  13.459  30.685  0.00  0.00    +0.000 OA
ATOM     20  H   UNL     1      22.018  13.042  29.801  0.00  0.00    +0.000 HD
ENDBRANCH  14  19
BRANCH  10  21
ATOM     21  C   UNL     1      19.420  11.927  35.074  0.00  0.00    +0.000 C 
BRANCH  21  22
ATOM     22  O   UNL     1      19.057  10.663  35.303  0.00  0.00    +0.000 OA
ATOM     23  H   UNL     1      18.539  10.303  34.559  0.00  0.00    +0.000 HD
ENDBRANCH  21  22
ENDBRANCH  10  21
TORSDOF 3
ENDMDL
MODEL 8
REMARK VINA RESULT:      -5.5      2.560      5.423
REMARK  Name = 6223_Gliotoxin.pdbqt.pdb
REMARK  3 active torsions:
REMARK  status: ('A' for Active; 'I' for Inactive)
REMARK    1  A    between atoms: C_10  and  C_21
REMARK    2  A    between atoms: C_14  and  O_19
REMARK    3  A    between atoms: C_21  and  O_22
REMARK                            x       y       z     vdW  Elec       q    Type
REMARK                         _______ _______ _______ _____ _____    ______ ____
ROOT
ATOM      1  S   UNL     1      46.820  -0.824  11.158  0.00  0.00    +0.000 S 
ATOM      2  S   UNL     1      46.188  -2.501  10.135  0.00  0.00    +0.000 S 
ATOM      3  O   UNL     1      43.073  -2.729  11.977  0.00  0.00    +0.000 OA
ATOM      4  O   UNL     1      47.912  -2.609  14.030  0.00  0.00    +0.000 OA
ATOM      5  N   UNL     1      44.803  -1.510  12.875  0.00  0.00    +0.000 N 
ATOM      6  N   UNL     1      46.385  -3.704  12.616  0.00  0.00    +0.000 N 
ATOM      7  C   UNL     1      46.277  -1.257  12.845  0.00  0.00    +0.000 C 
ATOM      8  C   UNL     1      44.138  -0.560  13.652  0.00  0.00    +0.000 A 
ATOM      9  C   UNL     1      46.394  -0.138  13.777  0.00  0.00    +0.000 C 
ATOM     10  C   UNL     1      45.391  -3.473  11.516  0.00  0.00    +0.000 C 
ATOM     11  C   UNL     1      45.179   0.290  14.330  0.00  0.00    +0.000 A 
ATOM     12  C   UNL     1      44.281  -2.566  12.138  0.00  0.00    +0.000 C 
ATOM     13  C   UNL     1      46.946  -2.567  13.266  0.00  0.00    +0.000 C 
ATOM     14  C   UNL     1      42.736  -0.089  13.564  0.00  0.00    +0.000 A 
ATOM     15  C   UNL     1      44.779   1.505  14.572  0.00  0.00    +0.000 A 
ATOM     16  C   UNL     1      42.610   1.273  14.007  0.00  0.00    +0.000 A 
ATOM     17  C   UNL     1      46.845  -5.076  12.832  0.00  0.00    +0.000 C 
ATOM     18  C   UNL     1      43.367   2.100  14.442  0.00  0.00    +0.000 A 
ENDROOT
BRANCH  14  19
ATOM     19  O   UNL     1      41.823  -0.631  12.706  0.00  0.00    +0.000 OA
ATOM     20  H   UNL     1      42.224  -1.232  12.047  0.00  0.00    +0.000 HD
ENDBRANCH  14  19
BRANCH  10  21
ATOM     21  C   UNL     1      44.796  -4.710  10.942  0.00  0.00    +0.000 C 
BRANCH  21  22
ATOM     22  O   UNL     1      44.246  -5.813  10.429  0.00  0.00    +0.000 OA
ATOM     23  H   UNL     1      44.001  -6.446  11.131  0.00  0.00    +0.000 HD
ENDBRANCH  21  22
ENDBRANCH  10  21
TORSDOF 3
ENDMDL
MODEL 9
REMARK VINA RESULT:      -5.4     35.827     37.670
REMARK  Name = 6223_Gliotoxin.pdbqt.pdb
REMARK  3 active torsions:
REMARK  status: ('A' for Active; 'I' for Inactive)
REMARK    1  A    between atoms: C_10  and  C_21
REMARK    2  A    between atoms: C_14  and  O_19
REMARK    3  A    between atoms: C_21  and  O_22
REMARK                            x       y       z     vdW  Elec       q    Type
REMARK                         _______ _______ _______ _____ _____    ______ ____
ROOT
ATOM      1  S   UNL     1      23.571  19.471  32.078  0.00  0.00    +0.000 S 
ATOM      2  S   UNL     1      22.438  20.858  33.104  0.00  0.00    +0.000 S 
ATOM      3  O   UNL     1      19.412  18.870  32.906  0.00  0.00    +0.000 OA
ATOM      4  O   UNL     1      22.392  20.429  28.865  0.00  0.00    +0.000 OA
ATOM      5  N   UNL     1      21.122  18.431  31.434  0.00  0.00    +0.000 N 
ATOM      6  N   UNL     1      21.071  21.049  30.709  0.00  0.00    +0.000 N 
ATOM      7  C   UNL     1      22.370  18.962  30.802  0.00  0.00    +0.000 C 
ATOM      8  C   UNL     1      20.946  17.075  31.154  0.00  0.00    +0.000 A 
ATOM      9  C   UNL     1      22.820  17.800  30.039  0.00  0.00    +0.000 C 
ATOM     10  C   UNL     1      20.829  20.761  32.162  0.00  0.00    +0.000 C 
ATOM     11  C   UNL     1      22.000  16.670  30.158  0.00  0.00    +0.000 A 
ATOM     12  C   UNL     1      20.348  19.276  32.220  0.00  0.00    +0.000 C 
ATOM     13  C   UNL     1      21.950  20.189  29.990  0.00  0.00    +0.000 C 
ATOM     14  C   UNL     1      20.220  16.042  31.929  0.00  0.00    +0.000 A 
ATOM     15  C   UNL     1      22.348  15.419  30.253  0.00  0.00    +0.000 A 
ATOM     16  C   UNL     1      20.792  14.738  31.734  0.00  0.00    +0.000 A 
ATOM     17  C   UNL     1      20.527  22.294  30.169  0.00  0.00    +0.000 C 
ATOM     18  C   UNL     1      21.701  14.297  31.081  0.00  0.00    +0.000 A 
ENDROOT
BRANCH  14  19
ATOM     19  O   UNL     1      19.501  16.326  33.054  0.00  0.00    +0.000 OA
ATOM     20  H   UNL     1      19.481  17.282  33.266  0.00  0.00    +0.000 HD
ENDBRANCH  14  19
BRANCH  10  21
ATOM     21  C   UNL     1      19.841  21.658  32.819  0.00  0.00    +0.000 C 
BRANCH  21  22
ATOM     22  O   UNL     1      18.953  22.451  33.425  0.00  0.00    +0.000 OA
ATOM     23  H   UNL     1      19.235  22.669  34.333  0.00  0.00    +0.000 HD
ENDBRANCH  21  22
ENDBRANCH  10  21
TORSDOF 3
ENDMDL
