MODEL 1
REMARK VINA RESULT:      -7.2      0.000      0.000
REMARK  Name = 6256_Trifluridine.pdbqt.pdb
REMARK  5 active torsions:
REMARK  status: ('A' for Active; 'I' for Inactive)
REMARK    1  A    between atoms: N_3  and  C1*_11
REMARK    2  A    between atoms: C_7  and  C_23
REMARK    3  A    between atoms: C3*_12  and  O3*_15
REMARK    4  A    between atoms: C4*_14  and  C5*_17
REMARK    5  A    between atoms: C5*_17  and  O5*_18
REMARK                            x       y       z     vdW  Elec       q    Type
REMARK                         _______ _______ _______ _____ _____    ______ ____
ROOT
ATOM      1  O   UNL     1      40.986  -5.136  10.267  0.00  0.00    +0.000 OA
ATOM      2  O   UNL     1      43.839  -7.726   7.773  0.00  0.00    +0.000 OA
ATOM      3  N   UNL     1      43.202  -5.423  11.050  0.00  0.00    +0.000 N 
ATOM      4  N   UNL     1      42.462  -6.415   9.059  0.00  0.00    +0.000 N 
ATOM      5  C   UNL     1      44.358  -6.037  10.727  0.00  0.00    +0.000 A 
ATOM      6  C   UNL     1      42.116  -5.598  10.163  0.00  0.00    +0.000 A 
ATOM      7  C   UNL     1      44.763  -6.793   9.760  0.00  0.00    +0.000 A 
ATOM      8  C   UNL     1      43.684  -7.035   8.770  0.00  0.00    +0.000 A 
ATOM      9  H   UNL     1      41.718  -6.573   8.394  0.00  0.00    +0.000 HD
ENDROOT
BRANCH   3  11
ATOM     10  O4* UNL     1      43.819  -3.469  12.336  0.00  0.00    +0.000 OA
ATOM     11  C1* UNL     1      43.140  -4.685  12.197  0.00  0.00    +0.000 A 
ATOM     12  C3* UNL     1      42.697  -3.942  14.306  0.00  0.00    +0.000 A 
ATOM     13  C2* UNL     1      42.462  -4.986  13.395  0.00  0.00    +0.000 A 
ATOM     14  C4* UNL     1      43.555  -3.002  13.630  0.00  0.00    +0.000 A 
BRANCH  12  15
ATOM     15  O3* UNL     1      42.761  -4.106  15.661  0.00  0.00    +0.000 OA
ATOM     16  H3* UNL     1      42.283  -4.906  15.939  0.00  0.00    +0.000 HD
ENDBRANCH  12  15
BRANCH  14  17
ATOM     17  C5* UNL     1      44.237  -1.904  14.191  0.00  0.00    +0.000 C 
BRANCH  17  18
ATOM     18  O5* UNL     1      44.883  -0.870  14.722  0.00  0.00    +0.000 OA
ATOM     19  H5* UNL     1      45.691  -0.682  14.214  0.00  0.00    +0.000 HD
ENDBRANCH  17  18
ENDBRANCH  14  17
ENDBRANCH   3  11
BRANCH   7  23
ATOM     20  F   UNL     1      46.706  -6.938   8.443  0.00  0.00    +0.000 F 
ATOM     21  F   UNL     1      46.914  -7.218  10.587  0.00  0.00    +0.000 F 
ATOM     22  F   UNL     1      45.979  -8.771   9.393  0.00  0.00    +0.000 F 
ATOM     23  C   UNL     1      46.070  -7.426   9.539  0.00  0.00    +0.000 C 
ENDBRANCH   7  23
TORSDOF 5
ENDMDL
MODEL 2
REMARK VINA RESULT:      -6.9      2.787      3.797
REMARK  Name = 6256_Trifluridine.pdbqt.pdb
REMARK  5 active torsions:
REMARK  status: ('A' for Active; 'I' for Inactive)
REMARK    1  A    between atoms: N_3  and  C1*_11
REMARK    2  A    between atoms: C_7  and  C_23
REMARK    3  A    between atoms: C3*_12  and  O3*_15
REMARK    4  A    between atoms: C4*_14  and  C5*_17
REMARK    5  A    between atoms: C5*_17  and  O5*_18
REMARK                            x       y       z     vdW  Elec       q    Type
REMARK                         _______ _______ _______ _____ _____    ______ ____
ROOT
ATOM      1  O   UNL     1      45.669  -4.730  13.233  0.00  0.00    +0.000 OA
ATOM      2  O   UNL     1      44.108  -7.642  10.048  0.00  0.00    +0.000 OA
ATOM      3  N   UNL     1      43.776  -4.083  11.966  0.00  0.00    +0.000 N 
ATOM      4  N   UNL     1      44.837  -6.147  11.629  0.00  0.00    +0.000 N 
ATOM      5  C   UNL     1      42.971  -4.529  10.980  0.00  0.00    +0.000 A 
ATOM      6  C   UNL     1      44.828  -4.937  12.366  0.00  0.00    +0.000 A 
ATOM      7  C   UNL     1      42.902  -5.598  10.256  0.00  0.00    +0.000 A 
ATOM      8  C   UNL     1      43.975  -6.563  10.607  0.00  0.00    +0.000 A 
ATOM      9  H   UNL     1      45.573  -6.793  11.877  0.00  0.00    +0.000 HD
ENDROOT
BRANCH   3  11
ATOM     10  O4* UNL     1      42.592  -2.656  13.518  0.00  0.00    +0.000 OA
ATOM     11  C1* UNL     1      43.541  -2.853  12.510  0.00  0.00    +0.000 A 
ATOM     12  C3* UNL     1      43.569  -0.625  12.986  0.00  0.00    +0.000 A 
ATOM     13  C2* UNL     1      44.135  -1.621  12.172  0.00  0.00    +0.000 A 
ATOM     14  C4* UNL     1      42.598  -1.288  13.820  0.00  0.00    +0.000 A 
BRANCH  12  15
ATOM     15  O3* UNL     1      43.394   0.674  12.601  0.00  0.00    +0.000 OA
ATOM     16  H3* UNL     1      43.301   0.742  11.635  0.00  0.00    +0.000 HD
ENDBRANCH  12  15
BRANCH  14  17
ATOM     17  C5* UNL     1      41.626  -0.692  14.648  0.00  0.00    +0.000 C 
BRANCH  17  18
ATOM     18  O5* UNL     1      40.712  -0.128  15.432  0.00  0.00    +0.000 OA
ATOM     19  H5* UNL     1      39.870  -0.034  14.953  0.00  0.00    +0.000 HD
ENDBRANCH  17  18
ENDBRANCH  14  17
ENDBRANCH   3  11
BRANCH   7  23
ATOM     20  F   UNL     1      40.948  -6.734   9.610  0.00  0.00    +0.000 F 
ATOM     21  F   UNL     1      41.391  -4.847   8.631  0.00  0.00    +0.000 F 
ATOM     22  F   UNL     1      42.578  -6.601   8.156  0.00  0.00    +0.000 F 
ATOM     23  C   UNL     1      41.969  -5.951   9.179  0.00  0.00    +0.000 C 
ENDBRANCH   7  23
TORSDOF 5
ENDMDL
MODEL 3
REMARK VINA RESULT:      -6.4      3.105      4.126
REMARK  Name = 6256_Trifluridine.pdbqt.pdb
REMARK  5 active torsions:
REMARK  status: ('A' for Active; 'I' for Inactive)
REMARK    1  A    between atoms: N_3  and  C1*_11
REMARK    2  A    between atoms: C_7  and  C_23
REMARK    3  A    between atoms: C3*_12  and  O3*_15
REMARK    4  A    between atoms: C4*_14  and  C5*_17
REMARK    5  A    between atoms: C5*_17  and  O5*_18
REMARK                            x       y       z     vdW  Elec       q    Type
REMARK                         _______ _______ _______ _____ _____    ______ ____
ROOT
ATOM      1  O   UNL     1      45.387  -4.304  13.410  0.00  0.00    +0.000 OA
ATOM      2  O   UNL     1      43.234  -7.529  10.955  0.00  0.00    +0.000 OA
ATOM      3  N   UNL     1      43.923  -3.600  11.687  0.00  0.00    +0.000 N 
ATOM      4  N   UNL     1      44.275  -5.871  12.151  0.00  0.00    +0.000 N 
ATOM      5  C   UNL     1      43.103  -4.096  10.739  0.00  0.00    +0.000 A 
ATOM      6  C   UNL     1      44.600  -4.537  12.499  0.00  0.00    +0.000 A 
ATOM      7  C   UNL     1      42.750  -5.277  10.349  0.00  0.00    +0.000 A 
ATOM      8  C   UNL     1      43.415  -6.336  11.150  0.00  0.00    +0.000 A 
ATOM      9  H   UNL     1      44.736  -6.581  12.703  0.00  0.00    +0.000 HD
ENDROOT
BRANCH   3  11
ATOM     10  O4* UNL     1      45.209  -1.575  11.382  0.00  0.00    +0.000 OA
ATOM     11  C1* UNL     1      44.058  -2.246  11.806  0.00  0.00    +0.000 A 
ATOM     12  C3* UNL     1      43.726  -0.043  12.286  0.00  0.00    +0.000 A 
ATOM     13  C2* UNL     1      43.152  -1.324  12.367  0.00  0.00    +0.000 A 
ATOM     14  C4* UNL     1      45.019  -0.218  11.673  0.00  0.00    +0.000 A 
BRANCH  12  15
ATOM     15  O3* UNL     1      43.506   0.955  13.193  0.00  0.00    +0.000 OA
ATOM     16  H3* UNL     1      42.596   1.292  13.127  0.00  0.00    +0.000 HD
ENDBRANCH  12  15
BRANCH  14  17
ATOM     17  C5* UNL     1      46.055   0.731  11.569  0.00  0.00    +0.000 C 
BRANCH  17  18
ATOM     18  O5* UNL     1      47.035   1.625  11.475  0.00  0.00    +0.000 OA
ATOM     19  H5* UNL     1      47.217   2.017  12.346  0.00  0.00    +0.000 HD
ENDBRANCH  17  18
ENDBRANCH  14  17
ENDBRANCH   3  11
BRANCH   7  23
ATOM     20  F   UNL     1      40.730  -6.304   9.722  0.00  0.00    +0.000 F 
ATOM     21  F   UNL     1      41.414  -4.614   8.542  0.00  0.00    +0.000 F 
ATOM     22  F   UNL     1      42.443  -6.518   8.377  0.00  0.00    +0.000 F 
ATOM     23  C   UNL     1      41.847  -5.684   9.264  0.00  0.00    +0.000 C 
ENDBRANCH   7  23
TORSDOF 5
ENDMDL
MODEL 4
REMARK VINA RESULT:      -6.1      3.891      5.213
REMARK  Name = 6256_Trifluridine.pdbqt.pdb
REMARK  5 active torsions:
REMARK  status: ('A' for Active; 'I' for Inactive)
REMARK    1  A    between atoms: N_3  and  C1*_11
REMARK    2  A    between atoms: C_7  and  C_23
REMARK    3  A    between atoms: C3*_12  and  O3*_15
REMARK    4  A    between atoms: C4*_14  and  C5*_17
REMARK    5  A    between atoms: C5*_17  and  O5*_18
REMARK                            x       y       z     vdW  Elec       q    Type
REMARK                         _______ _______ _______ _____ _____    ______ ____
ROOT
ATOM      1  O   UNL     1      45.259  -6.861   8.268  0.00  0.00    +0.000 OA
ATOM      2  O   UNL     1      42.184  -7.896  11.514  0.00  0.00    +0.000 OA
ATOM      3  N   UNL     1      45.299  -5.610  10.280  0.00  0.00    +0.000 N 
ATOM      4  N   UNL     1      43.750  -7.336   9.933  0.00  0.00    +0.000 N 
ATOM      5  C   UNL     1      44.666  -5.511  11.466  0.00  0.00    +0.000 A 
ATOM      6  C   UNL     1      44.833  -6.604   9.389  0.00  0.00    +0.000 A 
ATOM      7  C   UNL     1      43.683  -6.121  12.042  0.00  0.00    +0.000 A 
ATOM      8  C   UNL     1      43.124  -7.190  11.176  0.00  0.00    +0.000 A 
ATOM      9  H   UNL     1      43.379  -8.059   9.333  0.00  0.00    +0.000 HD
ENDROOT
BRANCH   3  11
ATOM     10  O4* UNL     1      46.134  -3.387   9.824  0.00  0.00    +0.000 OA
ATOM     11  C1* UNL     1      46.331  -4.760  10.004  0.00  0.00    +0.000 A 
ATOM     12  C3* UNL     1      48.380  -3.875   9.541  0.00  0.00    +0.000 A 
ATOM     13  C2* UNL     1      47.694  -5.069   9.824  0.00  0.00    +0.000 A 
ATOM     14  C4* UNL     1      47.387  -2.830   9.537  0.00  0.00    +0.000 A 
BRANCH  12  15
ATOM     15  O3* UNL     1      49.487  -3.797   8.744  0.00  0.00    +0.000 OA
ATOM     16  H3* UNL     1      50.033  -3.027   8.982  0.00  0.00    +0.000 HD
ENDBRANCH  12  15
BRANCH  14  17
ATOM     17  C5* UNL     1      47.542  -1.500   9.099  0.00  0.00    +0.000 C 
BRANCH  17  18
ATOM     18  O5* UNL     1      47.687  -0.246   8.682  0.00  0.00    +0.000 OA
ATOM     19  H5* UNL     1      46.836   0.104   8.366  0.00  0.00    +0.000 HD
ENDBRANCH  17  18
ENDBRANCH  14  17
ENDBRANCH   3  11
BRANCH   7  23
ATOM     20  F   UNL     1      43.185  -6.962  14.180  0.00  0.00    +0.000 F 
ATOM     21  F   UNL     1      43.649  -4.847  14.008  0.00  0.00    +0.000 F 
ATOM     22  F   UNL     1      41.748  -5.589  13.266  0.00  0.00    +0.000 F 
ATOM     23  C   UNL     1      43.067  -5.891  13.355  0.00  0.00    +0.000 C 
ENDBRANCH   7  23
TORSDOF 5
ENDMDL
MODEL 5
REMARK VINA RESULT:      -5.9     35.057     36.078
REMARK  Name = 6256_Trifluridine.pdbqt.pdb
REMARK  5 active torsions:
REMARK  status: ('A' for Active; 'I' for Inactive)
REMARK    1  A    between atoms: N_3  and  C1*_11
REMARK    2  A    between atoms: C_7  and  C_23
REMARK    3  A    between atoms: C3*_12  and  O3*_15
REMARK    4  A    between atoms: C4*_14  and  C5*_17
REMARK    5  A    between atoms: C5*_17  and  O5*_18
REMARK                            x       y       z     vdW  Elec       q    Type
REMARK                         _______ _______ _______ _____ _____    ______ ____
ROOT
ATOM      1  O   UNL     1      23.604  21.485   0.913  0.00  0.00    +0.000 OA
ATOM      2  O   UNL     1      21.014  17.828   1.903  0.00  0.00    +0.000 OA
ATOM      3  N   UNL     1      22.141  21.626   2.770  0.00  0.00    +0.000 N 
ATOM      4  N   UNL     1      22.287  19.685   1.463  0.00  0.00    +0.000 N 
ATOM      5  C   UNL     1      21.230  20.898   3.446  0.00  0.00    +0.000 A 
ATOM      6  C   UNL     1      22.759  21.006   1.661  0.00  0.00    +0.000 A 
ATOM      7  C   UNL     1      20.739  19.706   3.342  0.00  0.00    +0.000 A 
ATOM      8  C   UNL     1      21.332  18.971   2.196  0.00  0.00    +0.000 A 
ATOM      9  H   UNL     1      22.698  19.198   0.679  0.00  0.00    +0.000 HD
ENDROOT
BRANCH   3  11
ATOM     10  O4* UNL     1      22.774  23.196   4.498  0.00  0.00    +0.000 OA
ATOM     11  C1* UNL     1      22.409  22.901   3.180  0.00  0.00    +0.000 A 
ATOM     12  C3* UNL     1      22.690  25.161   3.275  0.00  0.00    +0.000 A 
ATOM     13  C2* UNL     1      22.345  24.091   2.429  0.00  0.00    +0.000 A 
ATOM     14  C4* UNL     1      22.948  24.584   4.570  0.00  0.00    +0.000 A 
BRANCH  12  15
ATOM     15  O3* UNL     1      22.187  26.426   3.155  0.00  0.00    +0.000 OA
ATOM     16  H3* UNL     1      22.531  27.005   3.858  0.00  0.00    +0.000 HD
ENDBRANCH  12  15
BRANCH  14  17
ATOM     17  C5* UNL     1      23.122  25.262   5.793  0.00  0.00    +0.000 C 
BRANCH  17  18
ATOM     18  O5* UNL     1      23.285  25.899   6.949  0.00  0.00    +0.000 OA
ATOM     19  H5* UNL     1      24.135  25.650   7.352  0.00  0.00    +0.000 HD
ENDBRANCH  17  18
ENDBRANCH  14  17
ENDBRANCH   3  11
BRANCH   7  23
ATOM     20  F   UNL     1      20.215  18.001   4.873  0.00  0.00    +0.000 F 
ATOM     21  F   UNL     1      19.143  19.882   5.048  0.00  0.00    +0.000 F 
ATOM     22  F   UNL     1      18.696  18.546   3.396  0.00  0.00    +0.000 F 
ATOM     23  C   UNL     1      19.713  19.033   4.149  0.00  0.00    +0.000 C 
ENDBRANCH   7  23
TORSDOF 5
ENDMDL
MODEL 6
REMARK VINA RESULT:      -5.8     35.839     37.138
REMARK  Name = 6256_Trifluridine.pdbqt.pdb
REMARK  5 active torsions:
REMARK  status: ('A' for Active; 'I' for Inactive)
REMARK    1  A    between atoms: N_3  and  C1*_11
REMARK    2  A    between atoms: C_7  and  C_23
REMARK    3  A    between atoms: C3*_12  and  O3*_15
REMARK    4  A    between atoms: C4*_14  and  C5*_17
REMARK    5  A    between atoms: C5*_17  and  O5*_18
REMARK                            x       y       z     vdW  Elec       q    Type
REMARK                         _______ _______ _______ _____ _____    ______ ____
ROOT
ATOM      1  O   UNL     1      21.542  24.095   0.889  0.00  0.00    +0.000 OA
ATOM      2  O   UNL     1      22.101  27.673   3.708  0.00  0.00    +0.000 OA
ATOM      3  N   UNL     1      22.537  23.703   3.002  0.00  0.00    +0.000 N 
ATOM      4  N   UNL     1      21.842  25.845   2.346  0.00  0.00    +0.000 N 
ATOM      5  C   UNL     1      22.905  24.352   4.124  0.00  0.00    +0.000 A 
ATOM      6  C   UNL     1      21.943  24.480   1.981  0.00  0.00    +0.000 A 
ATOM      7  C   UNL     1      22.858  25.574   4.543  0.00  0.00    +0.000 A 
ATOM      8  C   UNL     1      22.245  26.472   3.531  0.00  0.00    +0.000 A 
ATOM      9  H   UNL     1      21.425  26.444   1.648  0.00  0.00    +0.000 HD
ENDROOT
BRANCH   3  11
ATOM     10  O4* UNL     1      21.723  21.426   3.031  0.00  0.00    +0.000 OA
ATOM     11  C1* UNL     1      22.758  22.359   2.908  0.00  0.00    +0.000 A 
ATOM     12  C3* UNL     1      23.722  20.304   2.702  0.00  0.00    +0.000 A 
ATOM     13  C2* UNL     1      23.981  21.686   2.717  0.00  0.00    +0.000 A 
ATOM     14  C4* UNL     1      22.303  20.157   2.908  0.00  0.00    +0.000 A 
BRANCH  12  15
ATOM     15  O3* UNL     1      24.599  19.355   3.144  0.00  0.00    +0.000 OA
ATOM     16  H3* UNL     1      24.141  18.671   3.663  0.00  0.00    +0.000 HD
ENDBRANCH  12  15
BRANCH  14  17
ATOM     17  C5* UNL     1      21.594  18.971   3.182  0.00  0.00    +0.000 C 
BRANCH  17  18
ATOM     18  O5* UNL     1      20.921  17.853   3.438  0.00  0.00    +0.000 OA
ATOM     19  H5* UNL     1      20.342  17.979   4.210  0.00  0.00    +0.000 HD
ENDBRANCH  17  18
ENDBRANCH  14  17
ENDBRANCH   3  11
BRANCH   7  23
ATOM     20  F   UNL     1      22.360  26.873   6.438  0.00  0.00    +0.000 F 
ATOM     21  F   UNL     1      23.726  25.203   6.687  0.00  0.00    +0.000 F 
ATOM     22  F   UNL     1      24.393  26.980   5.634  0.00  0.00    +0.000 F 
ATOM     23  C   UNL     1      23.326  26.160   5.805  0.00  0.00    +0.000 C 
ENDBRANCH   7  23
TORSDOF 5
ENDMDL
MODEL 7
REMARK VINA RESULT:      -5.8     16.849     18.854
REMARK  Name = 6256_Trifluridine.pdbqt.pdb
REMARK  5 active torsions:
REMARK  status: ('A' for Active; 'I' for Inactive)
REMARK    1  A    between atoms: N_3  and  C1*_11
REMARK    2  A    between atoms: C_7  and  C_23
REMARK    3  A    between atoms: C3*_12  and  O3*_15
REMARK    4  A    between atoms: C4*_14  and  C5*_17
REMARK    5  A    between atoms: C5*_17  and  O5*_18
REMARK                            x       y       z     vdW  Elec       q    Type
REMARK                         _______ _______ _______ _____ _____    ______ ____
ROOT
ATOM      1  O   UNL     1      39.759   7.234  19.314  0.00  0.00    +0.000 OA
ATOM      2  O   UNL     1      39.853  10.476  22.562  0.00  0.00    +0.000 OA
ATOM      3  N   UNL     1      38.543   9.230  18.931  0.00  0.00    +0.000 N 
ATOM      4  N   UNL     1      39.773   8.896  20.899  0.00  0.00    +0.000 N 
ATOM      5  C   UNL     1      38.255  10.411  19.513  0.00  0.00    +0.000 A 
ATOM      6  C   UNL     1      39.379   8.349  19.653  0.00  0.00    +0.000 A 
ATOM      7  C   UNL     1      38.559  10.989  20.628  0.00  0.00    +0.000 A 
ATOM      8  C   UNL     1      39.442  10.134  21.462  0.00  0.00    +0.000 A 
ATOM      9  H   UNL     1      40.372   8.303  21.456  0.00  0.00    +0.000 HD
ENDROOT
BRANCH   3  11
ATOM     10  O4* UNL     1      37.130   7.887  17.499  0.00  0.00    +0.000 OA
ATOM     11  C1* UNL     1      38.017   8.949  17.702  0.00  0.00    +0.000 A 
ATOM     12  C3* UNL     1      37.515   8.952  15.479  0.00  0.00    +0.000 A 
ATOM     13  C2* UNL     1      38.266   9.598  16.477  0.00  0.00    +0.000 A 
ATOM     14  C4* UNL     1      36.814   7.876  16.134  0.00  0.00    +0.000 A 
BRANCH  12  15
ATOM     15  O3* UNL     1      37.904   8.846  14.174  0.00  0.00    +0.000 OA
ATOM     16  H3* UNL     1      37.182   9.100  13.573  0.00  0.00    +0.000 HD
ENDBRANCH  12  15
BRANCH  14  17
ATOM     17  C5* UNL     1      36.105   6.820  15.530  0.00  0.00    +0.000 C 
BRANCH  17  18
ATOM     18  O5* UNL     1      35.437   5.820  14.962  0.00  0.00    +0.000 OA
ATOM     19  H5* UNL     1      34.560   5.726  15.371  0.00  0.00    +0.000 HD
ENDBRANCH  17  18
ENDBRANCH  14  17
ENDBRANCH   3  11
BRANCH   7  23
ATOM     20  F   UNL     1      39.027  13.283  20.846  0.00  0.00    +0.000 F 
ATOM     21  F   UNL     1      36.947  12.689  20.654  0.00  0.00    +0.000 F 
ATOM     22  F   UNL     1      38.006  12.290  22.506  0.00  0.00    +0.000 F 
ATOM     23  C   UNL     1      38.149  12.296  21.158  0.00  0.00    +0.000 C 
ENDBRANCH   7  23
TORSDOF 5
ENDMDL
MODEL 8
REMARK VINA RESULT:      -5.7      3.547      4.280
REMARK  Name = 6256_Trifluridine.pdbqt.pdb
REMARK  5 active torsions:
REMARK  status: ('A' for Active; 'I' for Inactive)
REMARK    1  A    between atoms: N_3  and  C1*_11
REMARK    2  A    between atoms: C_7  and  C_23
REMARK    3  A    between atoms: C3*_12  and  O3*_15
REMARK    4  A    between atoms: C4*_14  and  C5*_17
REMARK    5  A    between atoms: C5*_17  and  O5*_18
REMARK                            x       y       z     vdW  Elec       q    Type
REMARK                         _______ _______ _______ _____ _____    ______ ____
ROOT
ATOM      1  O   UNL     1      46.874  -6.216   9.048  0.00  0.00    +0.000 OA
ATOM      2  O   UNL     1      42.528  -7.244   7.994  0.00  0.00    +0.000 OA
ATOM      3  N   UNL     1      45.164  -5.438  10.491  0.00  0.00    +0.000 N 
ATOM      4  N   UNL     1      44.680  -6.704   8.577  0.00  0.00    +0.000 N 
ATOM      5  C   UNL     1      43.824  -5.457  10.634  0.00  0.00    +0.000 A 
ATOM      6  C   UNL     1      45.696  -6.112   9.368  0.00  0.00    +0.000 A 
ATOM      7  C   UNL     1      42.831  -5.958   9.976  0.00  0.00    +0.000 A 
ATOM      8  C   UNL     1      43.294  -6.691   8.770  0.00  0.00    +0.000 A 
ATOM      9  H   UNL     1      45.009  -7.198   7.760  0.00  0.00    +0.000 HD
ENDROOT
BRANCH   3  11
ATOM     10  O4* UNL     1      46.634  -5.453  12.411  0.00  0.00    +0.000 OA
ATOM     11  C1* UNL     1      45.923  -4.777  11.414  0.00  0.00    +0.000 A 
ATOM     12  C3* UNL     1      46.955  -3.173  12.661  0.00  0.00    +0.000 A 
ATOM     13  C2* UNL     1      46.104  -3.388  11.563  0.00  0.00    +0.000 A 
ATOM     14  C4* UNL     1      47.274  -4.477  13.187  0.00  0.00    +0.000 A 
BRANCH  12  15
ATOM     15  O3* UNL     1      46.892  -2.081  13.479  0.00  0.00    +0.000 OA
ATOM     16  H3* UNL     1      47.537  -2.150  14.204  0.00  0.00    +0.000 HD
ENDBRANCH  12  15
BRANCH  14  17
ATOM     17  C5* UNL     1      47.917  -4.778  14.403  0.00  0.00    +0.000 C 
BRANCH  17  18
ATOM     18  O5* UNL     1      48.523  -5.067  15.551  0.00  0.00    +0.000 OA
ATOM     19  H5* UNL     1      48.043  -5.774  16.016  0.00  0.00    +0.000 HD
ENDBRANCH  17  18
ENDBRANCH  14  17
ENDBRANCH   3  11
BRANCH   7  23
ATOM     20  F   UNL     1      41.107  -5.647  11.543  0.00  0.00    +0.000 F 
ATOM     21  F   UNL     1      40.804  -4.868   9.538  0.00  0.00    +0.000 F 
ATOM     22  F   UNL     1      40.733  -7.012   9.875  0.00  0.00    +0.000 F 
ATOM     23  C   UNL     1      41.388  -5.881  10.236  0.00  0.00    +0.000 C 
ENDBRANCH   7  23
TORSDOF 5
ENDMDL
MODEL 9
REMARK VINA RESULT:      -5.3     35.842     37.232
REMARK  Name = 6256_Trifluridine.pdbqt.pdb
REMARK  5 active torsions:
REMARK  status: ('A' for Active; 'I' for Inactive)
REMARK    1  A    between atoms: N_3  and  C1*_11
REMARK    2  A    between atoms: C_7  and  C_23
REMARK    3  A    between atoms: C3*_12  and  O3*_15
REMARK    4  A    between atoms: C4*_14  and  C5*_17
REMARK    5  A    between atoms: C5*_17  and  O5*_18
REMARK                            x       y       z     vdW  Elec       q    Type
REMARK                         _______ _______ _______ _____ _____    ______ ____
ROOT
ATOM      1  O   UNL     1      22.469  19.786  29.057  0.00  0.00    +0.000 OA
ATOM      2  O   UNL     1      26.363  20.866  31.232  0.00  0.00    +0.000 OA
ATOM      3  N   UNL     1      23.294  18.273  30.682  0.00  0.00    +0.000 N 
ATOM      4  N   UNL     1      24.409  20.274  30.184  0.00  0.00    +0.000 N 
ATOM      5  C   UNL     1      24.316  18.117  31.546  0.00  0.00    +0.000 A 
ATOM      6  C   UNL     1      23.294  19.449  29.899  0.00  0.00    +0.000 A 
ATOM      7  C   UNL     1      25.364  18.800  31.870  0.00  0.00    +0.000 A 
ATOM      8  C   UNL     1      25.451  20.063  31.095  0.00  0.00    +0.000 A 
ATOM      9  H   UNL     1      24.456  21.129  29.648  0.00  0.00    +0.000 HD
ENDROOT
BRANCH   3  11
ATOM     10  O4* UNL     1      21.129  17.394  31.306  0.00  0.00    +0.000 OA
ATOM     11  C1* UNL     1      22.335  17.304  30.604  0.00  0.00    +0.000 A 
ATOM     12  C3* UNL     1      21.169  15.407  30.117  0.00  0.00    +0.000 A 
ATOM     13  C2* UNL     1      22.374  16.093  29.885  0.00  0.00    +0.000 A 
ATOM     14  C4* UNL     1      20.402  16.232  31.017  0.00  0.00    +0.000 A 
BRANCH  12  15
ATOM     15  O3* UNL     1      21.052  14.046  30.140  0.00  0.00    +0.000 OA
ATOM     16  H3* UNL     1      20.117  13.776  30.142  0.00  0.00    +0.000 HD
ENDBRANCH  12  15
BRANCH  14  17
ATOM     17  C5* UNL     1      19.224  15.885  31.707  0.00  0.00    +0.000 C 
BRANCH  17  18
ATOM     18  O5* UNL     1      18.113  15.559  32.362  0.00  0.00    +0.000 OA
ATOM     19  H5* UNL     1      18.069  14.596  32.491  0.00  0.00    +0.000 HD
ENDBRANCH  17  18
ENDBRANCH  14  17
ENDBRANCH   3  11
BRANCH   7  23
ATOM     20  F   UNL     1      26.828  19.588  33.533  0.00  0.00    +0.000 F 
ATOM     21  F   UNL     1      26.028  17.581  33.758  0.00  0.00    +0.000 F 
ATOM     22  F   UNL     1      27.531  17.969  32.240  0.00  0.00    +0.000 F 
ATOM     23  C   UNL     1      26.431  18.496  32.833  0.00  0.00    +0.000 C 
ENDBRANCH   7  23
TORSDOF 5
ENDMDL
