MODEL 1
REMARK VINA RESULT:      -5.8      0.000      0.000
REMARK  Name = 6323266_Tipiracil.pdbqt.pdb
REMARK  2 active torsions:
REMARK  status: ('A' for Active; 'I' for Inactive)
REMARK    1  A    between atoms: C_6  and  C_12
REMARK    2  A    between atoms: C_12  and  N_13
REMARK                            x       y       z     vdW  Elec       q    Type
REMARK                         _______ _______ _______ _____ _____    ______ ____
ROOT
ATOM      1 CL   UNL     1      35.326   8.778  20.042  0.00  0.00    +0.000 Cl
ATOM      2  O   UNL     1      33.916   7.283  17.850  0.00  0.00    +0.000 OA
ATOM      3  O   UNL     1      37.044   7.811  14.617  0.00  0.00    +0.000 OA
ATOM      4  N   UNL     1      37.430   8.717  16.661  0.00  0.00    +0.000 N 
ATOM      5  N   UNL     1      35.489   7.543  16.245  0.00  0.00    +0.000 N 
ATOM      6  C   UNL     1      37.051   8.961  17.956  0.00  0.00    +0.000 A 
ATOM      7  C   UNL     1      35.883   8.512  18.435  0.00  0.00    +0.000 A 
ATOM      8  C   UNL     1      35.007   7.733  17.514  0.00  0.00    +0.000 A 
ATOM      9  C   UNL     1      36.678   8.011  15.769  0.00  0.00    +0.000 A 
ATOM     10  H   UNL     1      38.321   9.073  16.321  0.00  0.00    +0.000 HD
ATOM     11  H   UNL     1      34.911   7.018  15.604  0.00  0.00    +0.000 HD
ENDROOT
BRANCH   6  12
ATOM     12  C   UNL     1      37.972   9.714  18.733  0.00  0.00    +0.000 C 
BRANCH  12  13
ATOM     13  N   UNL     1      38.811  10.527  19.591  0.00  0.00    +0.000 N 
ATOM     14  N   UNL     1      37.134  12.246  20.166  0.00  0.00    +0.000 NA
ATOM     15  C   UNL     1      39.601   9.845  20.616  0.00  0.00    +0.000 C 
ATOM     16  C   UNL     1      39.663  10.293  22.072  0.00  0.00    +0.000 C 
ATOM     17  C   UNL     1      38.661  11.387  21.701  0.00  0.00    +0.000 C 
ATOM     18  C   UNL     1      38.126  11.461  20.359  0.00  0.00    +0.000 C 
ATOM     19  H   UNL     1      36.906  12.762  21.023  0.00  0.00    +0.000 HD
ENDBRANCH  12  13
ENDBRANCH   6  12
TORSDOF 2
ENDMDL
MODEL 2
REMARK VINA RESULT:      -5.4      2.049      2.701
REMARK  Name = 6323266_Tipiracil.pdbqt.pdb
REMARK  2 active torsions:
REMARK  status: ('A' for Active; 'I' for Inactive)
REMARK    1  A    between atoms: C_6  and  C_12
REMARK    2  A    between atoms: C_12  and  N_13
REMARK                            x       y       z     vdW  Elec       q    Type
REMARK                         _______ _______ _______ _____ _____    ______ ____
ROOT
ATOM      1 CL   UNL     1      36.468   9.523  20.361  0.00  0.00    +0.000 Cl
ATOM      2  O   UNL     1      34.066   8.251  19.080  0.00  0.00    +0.000 OA
ATOM      3  O   UNL     1      36.009   7.031  15.175  0.00  0.00    +0.000 OA
ATOM      4  N   UNL     1      37.270   8.100  16.729  0.00  0.00    +0.000 N 
ATOM      5  N   UNL     1      35.047   7.637  17.137  0.00  0.00    +0.000 N 
ATOM      6  C   UNL     1      37.411   8.696  17.956  0.00  0.00    +0.000 A 
ATOM      7  C   UNL     1      36.381   8.787  18.808  0.00  0.00    +0.000 A 
ATOM      8  C   UNL     1      35.073   8.215  18.379  0.00  0.00    +0.000 A 
ATOM      9  C   UNL     1      36.103   7.556  16.278  0.00  0.00    +0.000 A 
ATOM     10  H   UNL     1      38.067   8.048  16.099  0.00  0.00    +0.000 HD
ATOM     11  H   UNL     1      34.171   7.243  16.827  0.00  0.00    +0.000 HD
ENDROOT
BRANCH   6  12
ATOM     12  C   UNL     1      38.707   9.202  18.245  0.00  0.00    +0.000 C 
BRANCH  12  13
ATOM     13  N   UNL     1      40.039   9.748  18.416  0.00  0.00    +0.000 N 
ATOM     14  N   UNL     1      40.792   9.529  16.074  0.00  0.00    +0.000 NA
ATOM     15  C   UNL     1      40.171  11.003  19.156  0.00  0.00    +0.000 C 
ATOM     16  C   UNL     1      40.999  12.187  18.669  0.00  0.00    +0.000 C 
ATOM     17  C   UNL     1      41.293  11.370  17.410  0.00  0.00    +0.000 C 
ATOM     18  C   UNL     1      40.694  10.065  17.232  0.00  0.00    +0.000 C 
ATOM     19  H   UNL     1      41.355  10.115  15.448  0.00  0.00    +0.000 HD
ENDBRANCH  12  13
ENDBRANCH   6  12
TORSDOF 2
ENDMDL
MODEL 3
REMARK VINA RESULT:      -5.2     24.765     26.031
REMARK  Name = 6323266_Tipiracil.pdbqt.pdb
REMARK  2 active torsions:
REMARK  status: ('A' for Active; 'I' for Inactive)
REMARK    1  A    between atoms: C_6  and  C_12
REMARK    2  A    between atoms: C_12  and  N_13
REMARK                            x       y       z     vdW  Elec       q    Type
REMARK                         _______ _______ _______ _____ _____    ______ ____
ROOT
ATOM      1 CL   UNL     1      22.771  26.218   4.384  0.00  0.00    +0.000 Cl
ATOM      2  O   UNL     1      24.506  28.441   5.421  0.00  0.00    +0.000 OA
ATOM      3  O   UNL     1      28.323  27.325   3.253  0.00  0.00    +0.000 OA
ATOM      4  N   UNL     1      26.481  26.036   2.945  0.00  0.00    +0.000 N 
ATOM      5  N   UNL     1      26.405  27.882   4.326  0.00  0.00    +0.000 N 
ATOM      6  C   UNL     1      25.163  25.749   3.192  0.00  0.00    +0.000 A 
ATOM      7  C   UNL     1      24.427  26.510   4.013  0.00  0.00    +0.000 A 
ATOM      8  C   UNL     1      25.087  27.684   4.649  0.00  0.00    +0.000 A 
ATOM      9  C   UNL     1      27.143  27.095   3.492  0.00  0.00    +0.000 A 
ATOM     10  H   UNL     1      27.019  25.439   2.320  0.00  0.00    +0.000 HD
ATOM     11  H   UNL     1      26.872  28.672   4.747  0.00  0.00    +0.000 HD
ENDROOT
BRANCH   6  12
ATOM     12  C   UNL     1      24.650  24.603   2.525  0.00  0.00    +0.000 C 
BRANCH  12  13
ATOM     13  N   UNL     1      24.039  23.511   1.793  0.00  0.00    +0.000 N 
ATOM     14  N   UNL     1      24.578  21.700   3.382  0.00  0.00    +0.000 NA
ATOM     15  C   UNL     1      22.684  23.710   1.279  0.00  0.00    +0.000 C 
ATOM     16  C   UNL     1      21.558  22.698   1.452  0.00  0.00    +0.000 C 
ATOM     17  C   UNL     1      22.542  21.851   2.261  0.00  0.00    +0.000 C 
ATOM     18  C   UNL     1      23.879  22.339   2.522  0.00  0.00    +0.000 C 
ATOM     19  H   UNL     1      24.073  20.873   3.721  0.00  0.00    +0.000 HD
ENDBRANCH  12  13
ENDBRANCH   6  12
TORSDOF 2
ENDMDL
MODEL 4
REMARK VINA RESULT:      -5.1     23.428     24.727
REMARK  Name = 6323266_Tipiracil.pdbqt.pdb
REMARK  2 active torsions:
REMARK  status: ('A' for Active; 'I' for Inactive)
REMARK    1  A    between atoms: C_6  and  C_12
REMARK    2  A    between atoms: C_12  and  N_13
REMARK                            x       y       z     vdW  Elec       q    Type
REMARK                         _______ _______ _______ _____ _____    ______ ____
ROOT
ATOM      1 CL   UNL     1      13.550   6.292  30.004  0.00  0.00    +0.000 Cl
ATOM      2  O   UNL     1      13.368   9.284  29.793  0.00  0.00    +0.000 OA
ATOM      3  O   UNL     1      14.475   9.675  25.418  0.00  0.00    +0.000 OA
ATOM      4  N   UNL     1      14.400   7.602  26.339  0.00  0.00    +0.000 N 
ATOM      5  N   UNL     1      13.912   9.468  27.605  0.00  0.00    +0.000 N 
ATOM      6  C   UNL     1      14.184   6.773  27.410  0.00  0.00    +0.000 A 
ATOM      7  C   UNL     1      13.832   7.259  28.607  0.00  0.00    +0.000 A 
ATOM      8  C   UNL     1      13.679   8.736  28.740  0.00  0.00    +0.000 A 
ATOM      9  C   UNL     1      14.274   8.960  26.393  0.00  0.00    +0.000 A 
ATOM     10  H   UNL     1      14.670   7.208  25.441  0.00  0.00    +0.000 HD
ATOM     11  H   UNL     1      13.813  10.471  27.673  0.00  0.00    +0.000 HD
ENDROOT
BRANCH   6  12
ATOM     12  C   UNL     1      14.363   5.386  27.155  0.00  0.00    +0.000 C 
BRANCH  12  13
ATOM     13  N   UNL     1      14.668   3.986  26.931  0.00  0.00    +0.000 N 
ATOM     14  N   UNL     1      15.637   4.213  24.672  0.00  0.00    +0.000 NA
ATOM     15  C   UNL     1      15.356   3.260  27.999  0.00  0.00    +0.000 C 
ATOM     16  C   UNL     1      16.573   2.372  27.766  0.00  0.00    +0.000 C 
ATOM     17  C   UNL     1      16.502   2.784  26.295  0.00  0.00    +0.000 C 
ATOM     18  C   UNL     1      15.509   3.739  25.854  0.00  0.00    +0.000 C 
ATOM     19  H   UNL     1      16.428   3.774  24.187  0.00  0.00    +0.000 HD
ENDBRANCH  12  13
ENDBRANCH   6  12
TORSDOF 2
ENDMDL
MODEL 5
REMARK VINA RESULT:      -4.9     23.780     25.079
REMARK  Name = 6323266_Tipiracil.pdbqt.pdb
REMARK  2 active torsions:
REMARK  status: ('A' for Active; 'I' for Inactive)
REMARK    1  A    between atoms: C_6  and  C_12
REMARK    2  A    between atoms: C_12  and  N_13
REMARK                            x       y       z     vdW  Elec       q    Type
REMARK                         _______ _______ _______ _____ _____    ______ ____
ROOT
ATOM      1 CL   UNL     1      12.746   1.235   7.966  0.00  0.00    +0.000 Cl
ATOM      2  O   UNL     1      13.079  -0.993   9.954  0.00  0.00    +0.000 OA
ATOM      3  O   UNL     1      17.003   0.362  11.766  0.00  0.00    +0.000 OA
ATOM      4  N   UNL     1      16.080   1.612  10.112  0.00  0.00    +0.000 N 
ATOM      5  N   UNL     1      15.033  -0.303  10.860  0.00  0.00    +0.000 N 
ATOM      6  C   UNL     1      15.083   1.848   9.201  0.00  0.00    +0.000 A 
ATOM      7  C   UNL     1      14.036   1.019   9.086  0.00  0.00    +0.000 A 
ATOM      8  C   UNL     1      13.989  -0.169   9.983  0.00  0.00    +0.000 A 
ATOM      9  C   UNL     1      16.095   0.546  10.964  0.00  0.00    +0.000 A 
ATOM     10  H   UNL     1      16.867   2.255  10.177  0.00  0.00    +0.000 HD
ATOM     11  H   UNL     1      15.021  -1.102  11.478  0.00  0.00    +0.000 HD
ENDROOT
BRANCH   6  12
ATOM     12  C   UNL     1      15.245   3.013   8.404  0.00  0.00    +0.000 C 
BRANCH  12  13
ATOM     13  N   UNL     1      15.329   4.262   7.672  0.00  0.00    +0.000 N 
ATOM     14  N   UNL     1      16.149   5.678   9.520  0.00  0.00    +0.000 NA
ATOM     15  C   UNL     1      15.984   4.242   6.364  0.00  0.00    +0.000 C 
ATOM     16  C   UNL     1      17.040   5.253   5.933  0.00  0.00    +0.000 C 
ATOM     17  C   UNL     1      16.920   5.864   7.330  0.00  0.00    +0.000 C 
ATOM     18  C   UNL     1      16.043   5.265   8.313  0.00  0.00    +0.000 C 
ATOM     19  H   UNL     1      16.831   6.442   9.585  0.00  0.00    +0.000 HD
ENDBRANCH  12  13
ENDBRANCH   6  12
TORSDOF 2
ENDMDL
MODEL 6
REMARK VINA RESULT:      -4.9     23.462     25.201
REMARK  Name = 6323266_Tipiracil.pdbqt.pdb
REMARK  2 active torsions:
REMARK  status: ('A' for Active; 'I' for Inactive)
REMARK    1  A    between atoms: C_6  and  C_12
REMARK    2  A    between atoms: C_12  and  N_13
REMARK                            x       y       z     vdW  Elec       q    Type
REMARK                         _______ _______ _______ _____ _____    ______ ____
ROOT
ATOM      1 CL   UNL     1      14.961   3.129   4.246  0.00  0.00    +0.000 Cl
ATOM      2  O   UNL     1      16.953   4.962   2.943  0.00  0.00    +0.000 OA
ATOM      3  O   UNL     1      18.985   6.459   6.704  0.00  0.00    +0.000 OA
ATOM      4  N   UNL     1      17.289   4.965   6.906  0.00  0.00    +0.000 N 
ATOM      5  N   UNL     1      17.969   5.696   4.826  0.00  0.00    +0.000 N 
ATOM      6  C   UNL     1      16.326   4.162   6.351  0.00  0.00    +0.000 A 
ATOM      7  C   UNL     1      16.149   4.102   5.024  0.00  0.00    +0.000 A 
ATOM      8  C   UNL     1      17.036   4.938   4.167  0.00  0.00    +0.000 A 
ATOM      9  C   UNL     1      18.135   5.750   6.178  0.00  0.00    +0.000 A 
ATOM     10  H   UNL     1      17.401   4.995   7.917  0.00  0.00    +0.000 HD
ATOM     11  H   UNL     1      18.581   6.270   4.264  0.00  0.00    +0.000 HD
ENDROOT
BRANCH   6  12
ATOM     12  C   UNL     1      15.545   3.416   7.275  0.00  0.00    +0.000 C 
BRANCH  12  13
ATOM     13  N   UNL     1      14.840   2.677   8.304  0.00  0.00    +0.000 N 
ATOM     14  N   UNL     1      14.183   0.734   6.930  0.00  0.00    +0.000 NA
ATOM     15  C   UNL     1      15.499   2.519   9.601  0.00  0.00    +0.000 C 
ATOM     16  C   UNL     1      15.604   1.189  10.338  0.00  0.00    +0.000 C 
ATOM     17  C   UNL     1      14.902   0.552   9.138  0.00  0.00    +0.000 C 
ATOM     18  C   UNL     1      14.561   1.355   7.984  0.00  0.00    +0.000 C 
ATOM     19  H   UNL     1      14.127  -0.276   7.103  0.00  0.00    +0.000 HD
ENDBRANCH  12  13
ENDBRANCH   6  12
TORSDOF 2
ENDMDL
MODEL 7
REMARK VINA RESULT:      -4.8     21.865     23.566
REMARK  Name = 6323266_Tipiracil.pdbqt.pdb
REMARK  2 active torsions:
REMARK  status: ('A' for Active; 'I' for Inactive)
REMARK    1  A    between atoms: C_6  and  C_12
REMARK    2  A    between atoms: C_12  and  N_13
REMARK                            x       y       z     vdW  Elec       q    Type
REMARK                         _______ _______ _______ _____ _____    ______ ____
ROOT
ATOM      1 CL   UNL     1      21.212  20.974  33.174  0.00  0.00    +0.000 Cl
ATOM      2  O   UNL     1      20.591  23.835  33.850  0.00  0.00    +0.000 OA
ATOM      3  O   UNL     1      21.014  25.571  29.687  0.00  0.00    +0.000 OA
ATOM      4  N   UNL     1      21.354  23.346  29.977  0.00  0.00    +0.000 N 
ATOM      5  N   UNL     1      20.795  24.691  31.766  0.00  0.00    +0.000 N 
ATOM      6  C   UNL     1      21.407  22.235  30.780  0.00  0.00    +0.000 A 
ATOM      7  C   UNL     1      21.161  22.314  32.094  0.00  0.00    +0.000 A 
ATOM      8  C   UNL     1      20.826  23.652  32.659  0.00  0.00    +0.000 A 
ATOM      9  C   UNL     1      21.051  24.596  30.430  0.00  0.00    +0.000 A 
ATOM     10  H   UNL     1      21.549  23.259  28.982  0.00  0.00    +0.000 HD
ATOM     11  H   UNL     1      20.570  25.607  32.127  0.00  0.00    +0.000 HD
ENDROOT
BRANCH   6  12
ATOM     12  C   UNL     1      21.737  21.019  30.122  0.00  0.00    +0.000 C 
BRANCH  12  13
ATOM     13  N   UNL     1      22.137  19.745  29.558  0.00  0.00    +0.000 N 
ATOM     14  N   UNL     1      24.367  20.427  28.743  0.00  0.00    +0.000 NA
ATOM     15  C   UNL     1      21.947  18.548  30.376  0.00  0.00    +0.000 C 
ATOM     16  C   UNL     1      23.021  17.486  30.582  0.00  0.00    +0.000 C 
ATOM     17  C   UNL     1      23.946  18.363  29.737  0.00  0.00    +0.000 C 
ATOM     18  C   UNL     1      23.488  19.645  29.248  0.00  0.00    +0.000 C 
ATOM     19  H   UNL     1      25.286  19.971  28.715  0.00  0.00    +0.000 HD
ENDBRANCH  12  13
ENDBRANCH   6  12
TORSDOF 2
ENDMDL
MODEL 8
REMARK VINA RESULT:      -4.7     24.979     26.654
REMARK  Name = 6323266_Tipiracil.pdbqt.pdb
REMARK  2 active torsions:
REMARK  status: ('A' for Active; 'I' for Inactive)
REMARK    1  A    between atoms: C_6  and  C_12
REMARK    2  A    between atoms: C_12  and  N_13
REMARK                            x       y       z     vdW  Elec       q    Type
REMARK                         _______ _______ _______ _____ _____    ______ ____
ROOT
ATOM      1 CL   UNL     1      29.869   6.713  -6.522  0.00  0.00    +0.000 Cl
ATOM      2  O   UNL     1      32.677   6.236  -5.565  0.00  0.00    +0.000 OA
ATOM      3  O   UNL     1      34.117  10.529  -5.672  0.00  0.00    +0.000 OA
ATOM      4  N   UNL     1      31.980  10.083  -6.294  0.00  0.00    +0.000 N 
ATOM      5  N   UNL     1      33.384   8.384  -5.612  0.00  0.00    +0.000 N 
ATOM      6  C   UNL     1      30.951   9.201  -6.503  0.00  0.00    +0.000 A 
ATOM      7  C   UNL     1      31.103   7.889  -6.280  0.00  0.00    +0.000 A 
ATOM      8  C   UNL     1      32.430   7.416  -5.794  0.00  0.00    +0.000 A 
ATOM      9  C   UNL     1      33.216   9.716  -5.848  0.00  0.00    +0.000 A 
ATOM     10  H   UNL     1      31.839  11.075  -6.475  0.00  0.00    +0.000 HD
ATOM     11  H   UNL     1      34.291   8.085  -5.283  0.00  0.00    +0.000 HD
ENDROOT
BRANCH   6  12
ATOM     12  C   UNL     1      29.737   9.776  -6.967  0.00  0.00    +0.000 C 
BRANCH  12  13
ATOM     13  N   UNL     1      28.482  10.256  -7.512  0.00  0.00    +0.000 N 
ATOM     14  N   UNL     1      27.734   8.139  -8.541  0.00  0.00    +0.000 NA
ATOM     15  C   UNL     1      27.612  11.037  -6.632  0.00  0.00    +0.000 C 
ATOM     16  C   UNL     1      26.118  10.778  -6.476  0.00  0.00    +0.000 C 
ATOM     17  C   UNL     1      26.296   9.598  -7.432  0.00  0.00    +0.000 C 
ATOM     18  C   UNL     1      27.611   9.258  -7.932  0.00  0.00    +0.000 C 
ATOM     19  H   UNL     1      26.825   7.671  -8.629  0.00  0.00    +0.000 HD
ENDBRANCH  12  13
ENDBRANCH   6  12
TORSDOF 2
ENDMDL
MODEL 9
REMARK VINA RESULT:      -4.6     24.690     25.659
REMARK  Name = 6323266_Tipiracil.pdbqt.pdb
REMARK  2 active torsions:
REMARK  status: ('A' for Active; 'I' for Inactive)
REMARK    1  A    between atoms: C_6  and  C_12
REMARK    2  A    between atoms: C_12  and  N_13
REMARK                            x       y       z     vdW  Elec       q    Type
REMARK                         _______ _______ _______ _____ _____    ______ ____
ROOT
ATOM      1 CL   UNL     1      20.981  24.341   1.227  0.00  0.00    +0.000 Cl
ATOM      2  O   UNL     1      20.816  21.562   0.097  0.00  0.00    +0.000 OA
ATOM      3  O   UNL     1      23.803  19.579   2.865  0.00  0.00    +0.000 OA
ATOM      4  N   UNL     1      23.381  21.793   3.128  0.00  0.00    +0.000 N 
ATOM      5  N   UNL     1      22.302  20.578   1.491  0.00  0.00    +0.000 N 
ATOM      6  C   UNL     1      22.724  22.940   2.763  0.00  0.00    +0.000 A 
ATOM      7  C   UNL     1      21.843  22.947   1.754  0.00  0.00    +0.000 A 
ATOM      8  C   UNL     1      21.597  21.663   1.038  0.00  0.00    +0.000 A 
ATOM      9  C   UNL     1      23.199  20.587   2.517  0.00  0.00    +0.000 A 
ATOM     10  H   UNL     1      24.048  21.816   3.896  0.00  0.00    +0.000 HD
ATOM     11  H   UNL     1      22.150  19.698   1.019  0.00  0.00    +0.000 HD
ENDROOT
BRANCH   6  12
ATOM     12  C   UNL     1      23.046  24.098   3.523  0.00  0.00    +0.000 C 
BRANCH  12  13
ATOM     13  N   UNL     1      23.498  25.260   4.262  0.00  0.00    +0.000 N 
ATOM     14  N   UNL     1      21.764  26.840   3.491  0.00  0.00    +0.000 NA
ATOM     15  C   UNL     1      23.809  25.086   5.681  0.00  0.00    +0.000 C 
ATOM     16  C   UNL     1      23.305  26.019   6.777  0.00  0.00    +0.000 C 
ATOM     17  C   UNL     1      22.549  26.776   5.683  0.00  0.00    +0.000 C 
ATOM     18  C   UNL     1      22.585  26.306   4.315  0.00  0.00    +0.000 C 
ATOM     19  H   UNL     1      21.228  27.589   3.945  0.00  0.00    +0.000 HD
ENDBRANCH  12  13
ENDBRANCH   6  12
TORSDOF 2
ENDMDL
