MODEL 1
REMARK VINA RESULT:      -6.7      0.000      0.000
REMARK  Name = 6325056_Deoxyelephantopin.pdbqt.pdb
REMARK  3 active torsions:
REMARK  status: ('A' for Active; 'I' for Inactive)
REMARK    1  A    between atoms: C_6  and  O_20
REMARK    2  A    between atoms: O_20  and  C_22
REMARK    3  A    between atoms: C_22  and  C_23
REMARK                            x       y       z     vdW  Elec       q    Type
REMARK                         _______ _______ _______ _____ _____    ______ ____
ROOT
ATOM      1  O   UNL     1      14.234   9.586  27.034  0.00  0.00    +0.000 OA
ATOM      2  O   UNL     1      12.579   7.917  33.117  0.00  0.00    +0.000 OA
ATOM      3  O   UNL     1      14.988   8.992  24.947  0.00  0.00    +0.000 OA
ATOM      4  O   UNL     1      11.865   5.801  32.482  0.00  0.00    +0.000 OA
ATOM      5  C   UNL     1      14.059   7.446  28.014  0.00  0.00    +0.000 C 
ATOM      6  C   UNL     1      13.750   6.364  28.950  0.00  0.00    +0.000 C 
ATOM      7  C   UNL     1      13.896   8.878  28.194  0.00  0.00    +0.000 C 
ATOM      8  C   UNL     1      13.955   6.459  30.351  0.00  0.00    +0.000 C 
ATOM      9  C   UNL     1      14.538   7.316  26.654  0.00  0.00    +0.000 C 
ATOM     10  C   UNL     1      14.018   6.658  31.767  0.00  0.00    +0.000 C 
ATOM     11  C   UNL     1      13.538   9.605  29.353  0.00  0.00    +0.000 C 
ATOM     12  C   UNL     1      13.712   8.655  32.712  0.00  0.00    +0.000 C 
ATOM     13  C   UNL     1      13.429   9.717  31.801  0.00  0.00    +0.000 C 
ATOM     14  C   UNL     1      13.258  10.338  30.543  0.00  0.00    +0.000 C 
ATOM     15  C   UNL     1      14.714   7.760  32.288  0.00  0.00    +0.000 C 
ATOM     16  C   UNL     1      14.627   8.681  26.069  0.00  0.00    +0.000 C 
ATOM     17  C   UNL     1      12.709   6.679  32.504  0.00  0.00    +0.000 C 
ATOM     18  C   UNL     1      14.914   6.188  26.041  0.00  0.00    +0.000 C 
ATOM     19  C   UNL     1      13.047  11.816  30.468  0.00  0.00    +0.000 C 
ENDROOT
BRANCH   6  20
ATOM     20  O   UNL     1      13.472   5.076  28.462  0.00  0.00    +0.000 OA
BRANCH  20  22
ATOM     21  O   UNL     1      12.811   3.613  30.112  0.00  0.00    +0.000 OA
ATOM     22  C   UNL     1      13.678   4.050  29.359  0.00  0.00    +0.000 C 
BRANCH  22  23
ATOM     23  C   UNL     1      15.100   3.558  29.262  0.00  0.00    +0.000 C 
ATOM     24  C   UNL     1      15.974   3.300  30.478  0.00  0.00    +0.000 C 
ATOM     25  C   UNL     1      15.664   3.255  28.086  0.00  0.00    +0.000 C 
ENDBRANCH  22  23
ENDBRANCH  20  22
ENDBRANCH   6  20
TORSDOF 3
ENDMDL
MODEL 2
REMARK VINA RESULT:      -6.5      3.501      5.630
REMARK  Name = 6325056_Deoxyelephantopin.pdbqt.pdb
REMARK  3 active torsions:
REMARK  status: ('A' for Active; 'I' for Inactive)
REMARK    1  A    between atoms: C_6  and  O_20
REMARK    2  A    between atoms: O_20  and  C_22
REMARK    3  A    between atoms: C_22  and  C_23
REMARK                            x       y       z     vdW  Elec       q    Type
REMARK                         _______ _______ _______ _____ _____    ______ ____
ROOT
ATOM      1  O   UNL     1      13.156   6.558  27.553  0.00  0.00    +0.000 OA
ATOM      2  O   UNL     1      14.745   0.536  29.486  0.00  0.00    +0.000 OA
ATOM      3  O   UNL     1      13.673   8.474  26.397  0.00  0.00    +0.000 OA
ATOM      4  O   UNL     1      15.998   0.112  27.577  0.00  0.00    +0.000 OA
ATOM      5  C   UNL     1      15.006   5.222  26.952  0.00  0.00    +0.000 C 
ATOM      6  C   UNL     1      15.904   4.077  26.791  0.00  0.00    +0.000 C 
ATOM      7  C   UNL     1      13.769   5.308  27.706  0.00  0.00    +0.000 C 
ATOM      8  C   UNL     1      16.187   3.153  27.830  0.00  0.00    +0.000 C 
ATOM      9  C   UNL     1      15.125   6.521  26.324  0.00  0.00    +0.000 C 
ATOM     10  C   UNL     1      16.311   2.154  28.847  0.00  0.00    +0.000 C 
ATOM     11  C   UNL     1      13.185   4.370  28.589  0.00  0.00    +0.000 C 
ATOM     12  C   UNL     1      14.667   1.696  30.285  0.00  0.00    +0.000 C 
ATOM     13  C   UNL     1      13.476   2.459  30.101  0.00  0.00    +0.000 C 
ATOM     14  C   UNL     1      12.645   3.456  29.541  0.00  0.00    +0.000 C 
ATOM     15  C   UNL     1      15.866   2.426  30.150  0.00  0.00    +0.000 C 
ATOM     16  C   UNL     1      13.939   7.328  26.718  0.00  0.00    +0.000 C 
ATOM     17  C   UNL     1      15.727   0.804  28.542  0.00  0.00    +0.000 C 
ATOM     18  C   UNL     1      16.147   6.963  25.583  0.00  0.00    +0.000 C 
ATOM     19  C   UNL     1      11.297   3.718  30.133  0.00  0.00    +0.000 C 
ENDROOT
BRANCH   6  20
ATOM     20  O   UNL     1      16.732   3.991  25.658  0.00  0.00    +0.000 OA
BRANCH  20  22
ATOM     21  O   UNL     1      15.680   2.375  24.403  0.00  0.00    +0.000 OA
ATOM     22  C   UNL     1      16.680   2.793  24.980  0.00  0.00    +0.000 C 
BRANCH  22  23
ATOM     23  C   UNL     1      18.018   2.102  25.052  0.00  0.00    +0.000 C 
ATOM     24  C   UNL     1      18.201   0.618  24.779  0.00  0.00    +0.000 C 
ATOM     25  C   UNL     1      19.149   2.774  25.302  0.00  0.00    +0.000 C 
ENDBRANCH  22  23
ENDBRANCH  20  22
ENDBRANCH   6  20
TORSDOF 3
ENDMDL
MODEL 3
REMARK VINA RESULT:      -6.4      2.057      3.717
REMARK  Name = 6325056_Deoxyelephantopin.pdbqt.pdb
REMARK  3 active torsions:
REMARK  status: ('A' for Active; 'I' for Inactive)
REMARK    1  A    between atoms: C_6  and  O_20
REMARK    2  A    between atoms: O_20  and  C_22
REMARK    3  A    between atoms: C_22  and  C_23
REMARK                            x       y       z     vdW  Elec       q    Type
REMARK                         _______ _______ _______ _____ _____    ______ ____
ROOT
ATOM      1  O   UNL     1      15.291   5.339  25.286  0.00  0.00    +0.000 OA
ATOM      2  O   UNL     1      12.855   9.576  29.603  0.00  0.00    +0.000 OA
ATOM      3  O   UNL     1      15.928   3.199  24.746  0.00  0.00    +0.000 OA
ATOM      4  O   UNL     1      11.535   7.969  30.634  0.00  0.00    +0.000 OA
ATOM      5  C   UNL     1      14.384   4.951  27.430  0.00  0.00    +0.000 C 
ATOM      6  C   UNL     1      13.693   5.145  28.706  0.00  0.00    +0.000 C 
ATOM      7  C   UNL     1      14.680   5.929  26.399  0.00  0.00    +0.000 C 
ATOM      8  C   UNL     1      13.840   6.307  29.507  0.00  0.00    +0.000 C 
ATOM      9  C   UNL     1      14.869   3.704  26.879  0.00  0.00    +0.000 C 
ATOM     10  C   UNL     1      13.885   7.560  30.196  0.00  0.00    +0.000 C 
ATOM     11  C   UNL     1      14.511   7.334  26.415  0.00  0.00    +0.000 C 
ATOM     12  C   UNL     1      14.186   9.501  29.138  0.00  0.00    +0.000 C 
ATOM     13  C   UNL     1      14.309   9.401  27.720  0.00  0.00    +0.000 C 
ATOM     14  C   UNL     1      14.416   8.755  26.467  0.00  0.00    +0.000 C 
ATOM     15  C   UNL     1      14.869   8.505  29.865  0.00  0.00    +0.000 C 
ATOM     16  C   UNL     1      15.424   3.987  25.528  0.00  0.00    +0.000 C 
ATOM     17  C   UNL     1      12.614   8.360  30.226  0.00  0.00    +0.000 C 
ATOM     18  C   UNL     1      14.896   2.514  27.491  0.00  0.00    +0.000 C 
ATOM     19  C   UNL     1      14.696   9.560  25.239  0.00  0.00    +0.000 C 
ENDROOT
BRANCH   6  20
ATOM     20  O   UNL     1      13.043   4.061  29.321  0.00  0.00    +0.000 OA
BRANCH  20  22
ATOM     21  O   UNL     1      14.500   3.334  30.947  0.00  0.00    +0.000 OA
ATOM     22  C   UNL     1      13.416   3.813  30.623  0.00  0.00    +0.000 C 
BRANCH  22  23
ATOM     23  C   UNL     1      12.310   4.223  31.563  0.00  0.00    +0.000 C 
ATOM     24  C   UNL     1      12.558   4.652  33.000  0.00  0.00    +0.000 C 
ATOM     25  C   UNL     1      11.034   4.295  31.164  0.00  0.00    +0.000 C 
ENDBRANCH  22  23
ENDBRANCH  20  22
ENDBRANCH   6  20
TORSDOF 3
ENDMDL
MODEL 4
REMARK VINA RESULT:      -5.9      2.170      5.151
REMARK  Name = 6325056_Deoxyelephantopin.pdbqt.pdb
REMARK  3 active torsions:
REMARK  status: ('A' for Active; 'I' for Inactive)
REMARK    1  A    between atoms: C_6  and  O_20
REMARK    2  A    between atoms: O_20  and  C_22
REMARK    3  A    between atoms: C_22  and  C_23
REMARK                            x       y       z     vdW  Elec       q    Type
REMARK                         _______ _______ _______ _____ _____    ______ ____
ROOT
ATOM      1  O   UNL     1      12.806   8.768  29.085  0.00  0.00    +0.000 OA
ATOM      2  O   UNL     1      16.230   3.755  26.703  0.00  0.00    +0.000 OA
ATOM      3  O   UNL     1      11.366   9.620  30.659  0.00  0.00    +0.000 OA
ATOM      4  O   UNL     1      16.530   2.796  28.795  0.00  0.00    +0.000 OA
ATOM      5  C   UNL     1      13.126   6.605  29.973  0.00  0.00    +0.000 C 
ATOM      6  C   UNL     1      13.640   5.253  30.195  0.00  0.00    +0.000 C 
ATOM      7  C   UNL     1      13.450   7.537  28.909  0.00  0.00    +0.000 C 
ATOM      8  C   UNL     1      13.914   4.338  29.145  0.00  0.00    +0.000 C 
ATOM      9  C   UNL     1      12.220   7.346  30.824  0.00  0.00    +0.000 C 
ATOM     10  C   UNL     1      14.335   3.513  28.055  0.00  0.00    +0.000 C 
ATOM     11  C   UNL     1      14.224   7.338  27.741  0.00  0.00    +0.000 C 
ATOM     12  C   UNL     1      15.088   4.358  26.133  0.00  0.00    +0.000 C 
ATOM     13  C   UNL     1      15.138   5.782  26.078  0.00  0.00    +0.000 C 
ATOM     14  C   UNL     1      14.935   7.107  26.527  0.00  0.00    +0.000 C 
ATOM     15  C   UNL     1      13.936   3.827  26.747  0.00  0.00    +0.000 C 
ATOM     16  C   UNL     1      12.050   8.703  30.238  0.00  0.00    +0.000 C 
ATOM     17  C   UNL     1      15.810   3.261  27.930  0.00  0.00    +0.000 C 
ATOM     18  C   UNL     1      11.577   6.887  31.904  0.00  0.00    +0.000 C 
ATOM     19  C   UNL     1      15.223   8.253  25.612  0.00  0.00    +0.000 C 
ENDROOT
BRANCH   6  20
ATOM     20  O   UNL     1      13.642   4.709  31.492  0.00  0.00    +0.000 OA
BRANCH  20  22
ATOM     21  O   UNL     1      15.698   5.542  32.104  0.00  0.00    +0.000 OA
ATOM     22  C   UNL     1      14.879   4.627  32.093  0.00  0.00    +0.000 C 
BRANCH  22  23
ATOM     23  C   UNL     1      15.054   3.271  32.728  0.00  0.00    +0.000 C 
ATOM     24  C   UNL     1      14.966   3.038  34.227  0.00  0.00    +0.000 C 
ATOM     25  C   UNL     1      15.237   2.165  31.995  0.00  0.00    +0.000 C 
ENDBRANCH  22  23
ENDBRANCH  20  22
ENDBRANCH   6  20
TORSDOF 3
ENDMDL
MODEL 5
REMARK VINA RESULT:      -5.7      3.824      7.430
REMARK  Name = 6325056_Deoxyelephantopin.pdbqt.pdb
REMARK  3 active torsions:
REMARK  status: ('A' for Active; 'I' for Inactive)
REMARK    1  A    between atoms: C_6  and  O_20
REMARK    2  A    between atoms: O_20  and  C_22
REMARK    3  A    between atoms: C_22  and  C_23
REMARK                            x       y       z     vdW  Elec       q    Type
REMARK                         _______ _______ _______ _____ _____    ______ ____
ROOT
ATOM      1  O   UNL     1      14.221   4.584  30.073  0.00  0.00    +0.000 OA
ATOM      2  O   UNL     1      16.979   2.167  24.680  0.00  0.00    +0.000 OA
ATOM      3  O   UNL     1      13.446   4.282  32.214  0.00  0.00    +0.000 OA
ATOM      4  O   UNL     1      18.216   0.595  25.859  0.00  0.00    +0.000 OA
ATOM      5  C   UNL     1      15.137   2.445  29.678  0.00  0.00    +0.000 C 
ATOM      6  C   UNL     1      15.860   1.332  29.061  0.00  0.00    +0.000 C 
ATOM      7  C   UNL     1      14.885   3.772  29.145  0.00  0.00    +0.000 C 
ATOM      8  C   UNL     1      15.796   1.030  27.676  0.00  0.00    +0.000 C 
ATOM      9  C   UNL     1      14.568   2.488  31.008  0.00  0.00    +0.000 C 
ATOM     10  C   UNL     1      15.838   0.865  26.255  0.00  0.00    +0.000 C 
ATOM     11  C   UNL     1      15.139   4.286  27.852  0.00  0.00    +0.000 C 
ATOM     12  C   UNL     1      15.640   2.580  24.843  0.00  0.00    +0.000 C 
ATOM     13  C   UNL     1      15.487   3.857  25.462  0.00  0.00    +0.000 C 
ATOM     14  C   UNL     1      15.321   4.774  26.525  0.00  0.00    +0.000 C 
ATOM     15  C   UNL     1      14.909   1.537  25.446  0.00  0.00    +0.000 C 
ATOM     16  C   UNL     1      14.010   3.850  31.222  0.00  0.00    +0.000 C 
ATOM     17  C   UNL     1      17.156   1.129  25.585  0.00  0.00    +0.000 C 
ATOM     18  C   UNL     1      14.478   1.473  31.875  0.00  0.00    +0.000 C 
ATOM     19  C   UNL     1      15.071   6.217  26.228  0.00  0.00    +0.000 C 
ENDROOT
BRANCH   6  20
ATOM     20  O   UNL     1      16.452   0.348  29.872  0.00  0.00    +0.000 OA
BRANCH  20  22
ATOM     21  O   UNL     1      18.510   1.355  29.649  0.00  0.00    +0.000 OA
ATOM     22  C   UNL     1      17.749   0.606  30.258  0.00  0.00    +0.000 C 
BRANCH  22  23
ATOM     23  C   UNL     1      18.071  -0.152  31.520  0.00  0.00    +0.000 C 
ATOM     24  C   UNL     1      17.833   0.413  32.911  0.00  0.00    +0.000 C 
ATOM     25  C   UNL     1      18.535  -1.408  31.492  0.00  0.00    +0.000 C 
ENDBRANCH  22  23
ENDBRANCH  20  22
ENDBRANCH   6  20
TORSDOF 3
ENDMDL
MODEL 6
REMARK VINA RESULT:      -5.6      9.972     12.599
REMARK  Name = 6325056_Deoxyelephantopin.pdbqt.pdb
REMARK  3 active torsions:
REMARK  status: ('A' for Active; 'I' for Inactive)
REMARK    1  A    between atoms: C_6  and  O_20
REMARK    2  A    between atoms: O_20  and  C_22
REMARK    3  A    between atoms: C_22  and  C_23
REMARK                            x       y       z     vdW  Elec       q    Type
REMARK                         _______ _______ _______ _____ _____    ______ ____
ROOT
ATOM      1  O   UNL     1      18.037  17.453  34.127  0.00  0.00    +0.000 OA
ATOM      2  O   UNL     1      21.371  11.958  33.019  0.00  0.00    +0.000 OA
ATOM      3  O   UNL     1      17.743  19.703  33.773  0.00  0.00    +0.000 OA
ATOM      4  O   UNL     1      21.989  12.610  30.878  0.00  0.00    +0.000 OA
ATOM      5  C   UNL     1      19.821  17.048  32.636  0.00  0.00    +0.000 C 
ATOM      6  C   UNL     1      20.831  16.366  31.825  0.00  0.00    +0.000 C 
ATOM      7  C   UNL     1      18.909  16.484  33.614  0.00  0.00    +0.000 C 
ATOM      8  C   UNL     1      21.622  15.289  32.303  0.00  0.00    +0.000 C 
ATOM      9  C   UNL     1      19.459  18.448  32.586  0.00  0.00    +0.000 C 
ATOM     10  C   UNL     1      22.274  14.103  32.768  0.00  0.00    +0.000 C 
ATOM     11  C   UNL     1      18.852  15.173  34.142  0.00  0.00    +0.000 C 
ATOM     12  C   UNL     1      21.322  12.701  34.218  0.00  0.00    +0.000 C 
ATOM     13  C   UNL     1      20.006  13.064  34.633  0.00  0.00    +0.000 C 
ATOM     14  C   UNL     1      18.852  13.874  34.731  0.00  0.00    +0.000 C 
ATOM     15  C   UNL     1      22.234  13.771  34.131  0.00  0.00    +0.000 C 
ATOM     16  C   UNL     1      18.329  18.662  33.529  0.00  0.00    +0.000 C 
ATOM     17  C   UNL     1      21.913  12.820  32.075  0.00  0.00    +0.000 C 
ATOM     18  C   UNL     1      20.069  19.410  31.883  0.00  0.00    +0.000 C 
ATOM     19  C   UNL     1      17.749  13.486  35.662  0.00  0.00    +0.000 C 
ENDROOT
BRANCH   6  20
ATOM     20  O   UNL     1      21.242  16.927  30.604  0.00  0.00    +0.000 OA
BRANCH  20  22
ATOM     21  O   UNL     1      22.924  15.632  29.713  0.00  0.00    +0.000 OA
ATOM     22  C   UNL     1      22.549  16.672  30.249  0.00  0.00    +0.000 C 
BRANCH  22  23
ATOM     23  C   UNL     1      23.420  17.849  30.609  0.00  0.00    +0.000 C 
ATOM     24  C   UNL     1      23.734  18.976  29.638  0.00  0.00    +0.000 C 
ATOM     25  C   UNL     1      23.924  18.006  31.839  0.00  0.00    +0.000 C 
ENDBRANCH  22  23
ENDBRANCH  20  22
ENDBRANCH   6  20
TORSDOF 3
ENDMDL
MODEL 7
REMARK VINA RESULT:      -5.5     12.857     16.414
REMARK  Name = 6325056_Deoxyelephantopin.pdbqt.pdb
REMARK  3 active torsions:
REMARK  status: ('A' for Active; 'I' for Inactive)
REMARK    1  A    between atoms: C_6  and  O_20
REMARK    2  A    between atoms: O_20  and  C_22
REMARK    3  A    between atoms: C_22  and  C_23
REMARK                            x       y       z     vdW  Elec       q    Type
REMARK                         _______ _______ _______ _____ _____    ______ ____
ROOT
ATOM      1  O   UNL     1      19.475  17.582  32.796  0.00  0.00    +0.000 OA
ATOM      2  O   UNL     1      25.097  19.306  29.977  0.00  0.00    +0.000 OA
ATOM      3  O   UNL     1      17.864  17.937  34.395  0.00  0.00    +0.000 OA
ATOM      4  O   UNL     1      24.797  21.559  30.453  0.00  0.00    +0.000 OA
ATOM      5  C   UNL     1      20.836  19.472  33.180  0.00  0.00    +0.000 C 
ATOM      6  C   UNL     1      21.875  20.492  33.036  0.00  0.00    +0.000 C 
ATOM      7  C   UNL     1      20.630  18.267  32.398  0.00  0.00    +0.000 C 
ATOM      8  C   UNL     1      23.219  20.196  32.688  0.00  0.00    +0.000 C 
ATOM      9  C   UNL     1      19.723  19.482  34.107  0.00  0.00    +0.000 C 
ATOM     10  C   UNL     1      24.513  19.872  32.172  0.00  0.00    +0.000 C 
ATOM     11  C   UNL     1      21.450  17.690  31.400  0.00  0.00    +0.000 C 
ATOM     12  C   UNL     1      24.856  18.167  30.775  0.00  0.00    +0.000 C 
ATOM     13  C   UNL     1      23.684  17.435  30.418  0.00  0.00    +0.000 C 
ATOM     14  C   UNL     1      22.319  17.071  30.454  0.00  0.00    +0.000 C 
ATOM     15  C   UNL     1      24.936  18.534  32.133  0.00  0.00    +0.000 C 
ATOM     16  C   UNL     1      18.887  18.284  33.829  0.00  0.00    +0.000 C 
ATOM     17  C   UNL     1      24.843  20.393  30.802  0.00  0.00    +0.000 C 
ATOM     18  C   UNL     1      19.511  20.358  35.096  0.00  0.00    +0.000 C 
ATOM     19  C   UNL     1      21.852  15.867  29.701  0.00  0.00    +0.000 C 
ENDROOT
BRANCH   6  20
ATOM     20  O   UNL     1      21.640  21.800  33.493  0.00  0.00    +0.000 OA
BRANCH  20  22
ATOM     21  O   UNL     1      22.607  23.539  32.336  0.00  0.00    +0.000 OA
ATOM     22  C   UNL     1      21.662  22.776  32.521  0.00  0.00    +0.000 C 
BRANCH  22  23
ATOM     23  C   UNL     1      20.374  22.751  31.737  0.00  0.00    +0.000 C 
ATOM     24  C   UNL     1      20.300  22.335  30.277  0.00  0.00    +0.000 C 
ATOM     25  C   UNL     1      19.195  23.037  32.303  0.00  0.00    +0.000 C 
ENDBRANCH  22  23
ENDBRANCH  20  22
ENDBRANCH   6  20
TORSDOF 3
ENDMDL
MODEL 8
REMARK VINA RESULT:      -5.4     29.273     31.858
REMARK  Name = 6325056_Deoxyelephantopin.pdbqt.pdb
REMARK  3 active torsions:
REMARK  status: ('A' for Active; 'I' for Inactive)
REMARK    1  A    between atoms: C_6  and  O_20
REMARK    2  A    between atoms: O_20  and  C_22
REMARK    3  A    between atoms: C_22  and  C_23
REMARK                            x       y       z     vdW  Elec       q    Type
REMARK                         _______ _______ _______ _____ _____    ______ ____
ROOT
ATOM      1  O   UNL     1      44.223   2.472  19.561  0.00  0.00    +0.000 OA
ATOM      2  O   UNL     1      43.578   7.165  15.079  0.00  0.00    +0.000 OA
ATOM      3  O   UNL     1      44.146   1.798  21.755  0.00  0.00    +0.000 OA
ATOM      4  O   UNL     1      41.953   8.288  16.298  0.00  0.00    +0.000 OA
ATOM      5  C   UNL     1      43.458   4.692  19.803  0.00  0.00    +0.000 C 
ATOM      6  C   UNL     1      42.984   6.043  19.498  0.00  0.00    +0.000 C 
ATOM      7  C   UNL     1      43.925   3.665  18.890  0.00  0.00    +0.000 C 
ATOM      8  C   UNL     1      43.545   6.858  18.481  0.00  0.00    +0.000 C 
ATOM      9  C   UNL     1      43.499   4.052  21.101  0.00  0.00    +0.000 C 
ATOM     10  C   UNL     1      44.024   7.575  17.340  0.00  0.00    +0.000 C 
ATOM     11  C   UNL     1      44.179   3.742  17.500  0.00  0.00    +0.000 C 
ATOM     12  C   UNL     1      44.775   6.551  15.506  0.00  0.00    +0.000 C 
ATOM     13  C   UNL     1      44.723   5.125  15.548  0.00  0.00    +0.000 C 
ATOM     14  C   UNL     1      44.511   3.849  16.118  0.00  0.00    +0.000 C 
ATOM     15  C   UNL     1      45.203   7.164  16.700  0.00  0.00    +0.000 C 
ATOM     16  C   UNL     1      43.976   2.656  20.906  0.00  0.00    +0.000 C 
ATOM     17  C   UNL     1      43.053   7.773  16.211  0.00  0.00    +0.000 C 
ATOM     18  C   UNL     1      43.236   4.619  22.283  0.00  0.00    +0.000 C 
ATOM     19  C   UNL     1      44.892   2.622  15.354  0.00  0.00    +0.000 C 
ENDROOT
BRANCH   6  20
ATOM     20  O   UNL     1      42.109   6.693  20.385  0.00  0.00    +0.000 OA
BRANCH  20  22
ATOM     21  O   UNL     1      40.104   6.029  19.469  0.00  0.00    +0.000 OA
ATOM     22  C   UNL     1      40.838   6.915  19.901  0.00  0.00    +0.000 C 
BRANCH  22  23
ATOM     23  C   UNL     1      40.500   8.381  19.992  0.00  0.00    +0.000 C 
ATOM     24  C   UNL     1      39.732   9.125  18.912  0.00  0.00    +0.000 C 
ATOM     25  C   UNL     1      40.806   9.111  21.073  0.00  0.00    +0.000 C 
ENDBRANCH  22  23
ENDBRANCH  20  22
ENDBRANCH   6  20
TORSDOF 3
ENDMDL
MODEL 9
REMARK VINA RESULT:      -5.3      2.340      5.791
REMARK  Name = 6325056_Deoxyelephantopin.pdbqt.pdb
REMARK  3 active torsions:
REMARK  status: ('A' for Active; 'I' for Inactive)
REMARK    1  A    between atoms: C_6  and  O_20
REMARK    2  A    between atoms: O_20  and  C_22
REMARK    3  A    between atoms: C_22  and  C_23
REMARK                            x       y       z     vdW  Elec       q    Type
REMARK                         _______ _______ _______ _____ _____    ______ ____
ROOT
ATOM      1  O   UNL     1      14.397   3.716  31.981  0.00  0.00    +0.000 OA
ATOM      2  O   UNL     1      14.719   7.811  26.915  0.00  0.00    +0.000 OA
ATOM      3  O   UNL     1      14.619   1.597  32.839  0.00  0.00    +0.000 OA
ATOM      4  O   UNL     1      16.410   6.604  25.879  0.00  0.00    +0.000 OA
ATOM      5  C   UNL     1      15.159   3.333  29.780  0.00  0.00    +0.000 C 
ATOM      6  C   UNL     1      15.602   3.550  28.402  0.00  0.00    +0.000 C 
ATOM      7  C   UNL     1      14.643   4.300  30.732  0.00  0.00    +0.000 C 
ATOM      8  C   UNL     1      14.971   4.457  27.511  0.00  0.00    +0.000 C 
ATOM      9  C   UNL     1      15.206   2.095  30.529  0.00  0.00    +0.000 C 
ATOM     10  C   UNL     1      14.415   5.500  26.705  0.00  0.00    +0.000 C 
ATOM     11  C   UNL     1      14.300   5.659  30.539  0.00  0.00    +0.000 C 
ATOM     12  C   UNL     1      13.557   7.363  27.580  0.00  0.00    +0.000 C 
ATOM     13  C   UNL     1      13.622   7.447  29.002  0.00  0.00    +0.000 C 
ATOM     14  C   UNL     1      13.879   7.003  30.319  0.00  0.00    +0.000 C 
ATOM     15  C   UNL     1      13.200   6.097  27.075  0.00  0.00    +0.000 C 
ATOM     16  C   UNL     1      14.728   2.378  31.909  0.00  0.00    +0.000 C 
ATOM     17  C   UNL     1      15.310   6.666  26.399  0.00  0.00    +0.000 C 
ATOM     18  C   UNL     1      15.539   0.887  30.061  0.00  0.00    +0.000 C 
ATOM     19  C   UNL     1      13.460   7.845  31.482  0.00  0.00    +0.000 C 
ENDROOT
BRANCH   6  20
ATOM     20  O   UNL     1      16.527   2.668  27.818  0.00  0.00    +0.000 OA
BRANCH  20  22
ATOM     21  O   UNL     1      17.329   3.531  25.841  0.00  0.00    +0.000 OA
ATOM     22  C   UNL     1      16.617   2.733  26.445  0.00  0.00    +0.000 C 
BRANCH  22  23
ATOM     23  C   UNL     1      15.728   1.687  25.821  0.00  0.00    +0.000 C 
ATOM     24  C   UNL     1      15.699   0.239  26.283  0.00  0.00    +0.000 C 
ATOM     25  C   UNL     1      14.854   1.988  24.852  0.00  0.00    +0.000 C 
ENDBRANCH  22  23
ENDBRANCH  20  22
ENDBRANCH   6  20
TORSDOF 3
ENDMDL
