MODEL 1
REMARK VINA RESULT:      -6.3      0.000      0.000
REMARK  Name = 641785_Cardamonin.pdbqt.pdb
REMARK  6 active torsions:
REMARK  status: ('A' for Active; 'I' for Inactive)
REMARK    1  A    between atoms: C_1  and  C_14
REMARK    2  A    between atoms: C_2  and  O_7
REMARK    3  A    between atoms: C_3  and  O_9
REMARK    4  A    between atoms: C_6  and  O_11
REMARK    5  A    between atoms: C_14  and  C_15
REMARK    6  A    between atoms: C_16  and  C_17
REMARK                            x       y       z     vdW  Elec       q    Type
REMARK                         _______ _______ _______ _____ _____    ______ ____
ROOT
ATOM      1  C   UNL     1      21.774  14.180  32.062  0.00  0.00    +0.000 A 
ATOM      2  C   UNL     1      21.685  14.629  33.393  0.00  0.00    +0.000 A 
ATOM      3  C   UNL     1      22.067  12.822  31.820  0.00  0.00    +0.000 A 
ATOM      4  C   UNL     1      21.914  13.723  34.439  0.00  0.00    +0.000 A 
ATOM      5  C   UNL     1      22.303  11.937  32.872  0.00  0.00    +0.000 A 
ATOM      6  C   UNL     1      22.230  12.396  34.177  0.00  0.00    +0.000 A 
ENDROOT
BRANCH   2   7
ATOM      7  O   UNL     1      21.299  15.927  33.636  0.00  0.00    +0.000 OA
ATOM      8  C   UNL     1      22.210  16.716  34.349  0.00  0.00    +0.000 C 
ENDBRANCH   2   7
BRANCH   3   9
ATOM      9  O   UNL     1      22.146  12.275  30.565  0.00  0.00    +0.000 OA
ATOM     10  H   UNL     1      22.684  11.453  30.595  0.00  0.00    +0.000 HD
ENDBRANCH   3   9
BRANCH   6  11
ATOM     11  O   UNL     1      22.463  11.521  35.194  0.00  0.00    +0.000 OA
ATOM     12  H   UNL     1      21.678  10.957  35.310  0.00  0.00    +0.000 HD
ENDBRANCH   6  11
BRANCH   1  14
ATOM     13  O   UNL     1      20.683  14.822  30.075  0.00  0.00    +0.000 OA
ATOM     14  C   UNL     1      21.572  15.063  30.884  0.00  0.00    +0.000 C 
BRANCH  14  15
ATOM     15  C   UNL     1      22.463  16.170  30.636  0.00  0.00    +0.000 C 
ATOM     16  C   UNL     1      23.191  17.102  30.420  0.00  0.00    +0.000 C 
BRANCH  16  17
ATOM     17  C   UNL     1      24.061  18.203  30.166  0.00  0.00    +0.000 A 
ATOM     18  C   UNL     1      23.662  19.216  29.297  0.00  0.00    +0.000 A 
ATOM     19  C   UNL     1      25.307  18.263  30.785  0.00  0.00    +0.000 A 
ATOM     20  C   UNL     1      24.511  20.292  29.047  0.00  0.00    +0.000 A 
ATOM     21  C   UNL     1      26.156  19.339  30.535  0.00  0.00    +0.000 A 
ATOM     22  C   UNL     1      25.757  20.352  29.666  0.00  0.00    +0.000 A 
ENDBRANCH  16  17
ENDBRANCH  14  15
ENDBRANCH   1  14
TORSDOF 6
ENDMDL
MODEL 2
REMARK VINA RESULT:      -5.6     17.123     20.626
REMARK  Name = 641785_Cardamonin.pdbqt.pdb
REMARK  6 active torsions:
REMARK  status: ('A' for Active; 'I' for Inactive)
REMARK    1  A    between atoms: C_1  and  C_14
REMARK    2  A    between atoms: C_2  and  O_7
REMARK    3  A    between atoms: C_3  and  O_9
REMARK    4  A    between atoms: C_6  and  O_11
REMARK    5  A    between atoms: C_14  and  C_15
REMARK    6  A    between atoms: C_16  and  C_17
REMARK                            x       y       z     vdW  Elec       q    Type
REMARK                         _______ _______ _______ _____ _____    ______ ____
ROOT
ATOM      1  C   UNL     1      28.898  -3.825  26.227  0.00  0.00    +0.000 A 
ATOM      2  C   UNL     1      28.595  -4.125  24.885  0.00  0.00    +0.000 A 
ATOM      3  C   UNL     1      29.969  -2.951  26.502  0.00  0.00    +0.000 A 
ATOM      4  C   UNL     1      29.380  -3.568  23.864  0.00  0.00    +0.000 A 
ATOM      5  C   UNL     1      30.745  -2.415  25.476  0.00  0.00    +0.000 A 
ATOM      6  C   UNL     1      30.449  -2.733  24.161  0.00  0.00    +0.000 A 
ENDROOT
BRANCH   2   7
ATOM      7  O   UNL     1      27.489  -4.894  24.605  0.00  0.00    +0.000 OA
ATOM      8  C   UNL     1      26.595  -4.366  23.666  0.00  0.00    +0.000 C 
ENDBRANCH   2   7
BRANCH   3   9
ATOM      9  O   UNL     1      30.329  -2.568  27.770  0.00  0.00    +0.000 OA
ATOM     10  H   UNL     1      29.675  -2.913  28.418  0.00  0.00    +0.000 HD
ENDBRANCH   3   9
BRANCH   6  11
ATOM     11  O   UNL     1      31.216  -2.203  23.169  0.00  0.00    +0.000 OA
ATOM     12  H   UNL     1      32.144  -2.457  23.318  0.00  0.00    +0.000 HD
ENDBRANCH   6  11
BRANCH   1  14
ATOM     13  O   UNL     1      28.119  -5.590  27.578  0.00  0.00    +0.000 OA
ATOM     14  C   UNL     1      28.144  -4.380  27.380  0.00  0.00    +0.000 C 
BRANCH  14  15
ATOM     15  C   UNL     1      27.373  -3.514  28.237  0.00  0.00    +0.000 C 
ATOM     16  C   UNL     1      26.714  -2.799  28.944  0.00  0.00    +0.000 C 
BRANCH  16  17
ATOM     17  C   UNL     1      25.938  -1.947  29.784  0.00  0.00    +0.000 A 
ATOM     18  C   UNL     1      26.083  -0.564  29.694  0.00  0.00    +0.000 A 
ATOM     19  C   UNL     1      25.038  -2.498  30.693  0.00  0.00    +0.000 A 
ATOM     20  C   UNL     1      25.326   0.269  30.516  0.00  0.00    +0.000 A 
ATOM     21  C   UNL     1      24.282  -1.664  31.514  0.00  0.00    +0.000 A 
ATOM     22  C   UNL     1      24.427  -0.282  31.425  0.00  0.00    +0.000 A 
ENDBRANCH  16  17
ENDBRANCH  14  15
ENDBRANCH   1  14
TORSDOF 6
ENDMDL
MODEL 3
REMARK VINA RESULT:      -5.6     36.462     37.893
REMARK  Name = 641785_Cardamonin.pdbqt.pdb
REMARK  6 active torsions:
REMARK  status: ('A' for Active; 'I' for Inactive)
REMARK    1  A    between atoms: C_1  and  C_14
REMARK    2  A    between atoms: C_2  and  O_7
REMARK    3  A    between atoms: C_3  and  O_9
REMARK    4  A    between atoms: C_6  and  O_11
REMARK    5  A    between atoms: C_14  and  C_15
REMARK    6  A    between atoms: C_16  and  C_17
REMARK                            x       y       z     vdW  Elec       q    Type
REMARK                         _______ _______ _______ _____ _____    ______ ____
ROOT
ATOM      1  C   UNL     1      45.372  -4.086  12.041  0.00  0.00    +0.000 A 
ATOM      2  C   UNL     1      44.043  -4.328  12.438  0.00  0.00    +0.000 A 
ATOM      3  C   UNL     1      45.733  -2.787  11.630  0.00  0.00    +0.000 A 
ATOM      4  C   UNL     1      43.112  -3.280  12.390  0.00  0.00    +0.000 A 
ATOM      5  C   UNL     1      44.792  -1.759  11.578  0.00  0.00    +0.000 A 
ATOM      6  C   UNL     1      43.484  -2.015  11.953  0.00  0.00    +0.000 A 
ENDROOT
BRANCH   2   7
ATOM      7  O   UNL     1      43.710  -5.565  12.937  0.00  0.00    +0.000 OA
ATOM      8  C   UNL     1      42.340  -5.826  13.068  0.00  0.00    +0.000 C 
ENDBRANCH   2   7
BRANCH   3   9
ATOM      9  O   UNL     1      47.005  -2.436  11.254  0.00  0.00    +0.000 OA
ATOM     10  H   UNL     1      47.652  -2.785  11.906  0.00  0.00    +0.000 HD
ENDBRANCH   3   9
BRANCH   6  11
ATOM     11  O   UNL     1      42.575  -1.002  11.897  0.00  0.00    +0.000 OA
ATOM     12  H   UNL     1      42.777  -0.359  12.599  0.00  0.00    +0.000 HD
ENDBRANCH   6  11
BRANCH   1  14
ATOM     13  O   UNL     1      47.223  -5.215  12.963  0.00  0.00    +0.000 OA
ATOM     14  C   UNL     1      46.428  -5.131  12.033  0.00  0.00    +0.000 C 
BRANCH  14  15
ATOM     15  C   UNL     1      46.580  -6.012  10.901  0.00  0.00    +0.000 C 
ATOM     16  C   UNL     1      46.720  -6.735   9.951  0.00  0.00    +0.000 C 
BRANCH  16  17
ATOM     17  C   UNL     1      46.880  -7.595   8.825  0.00  0.00    +0.000 A 
ATOM     18  C   UNL     1      48.001  -8.419   8.734  0.00  0.00    +0.000 A 
ATOM     19  C   UNL     1      45.918  -7.610   7.818  0.00  0.00    +0.000 A 
ATOM     20  C   UNL     1      48.159  -9.258   7.634  0.00  0.00    +0.000 A 
ATOM     21  C   UNL     1      46.076  -8.451   6.718  0.00  0.00    +0.000 A 
ATOM     22  C   UNL     1      47.197  -9.273   6.627  0.00  0.00    +0.000 A 
ENDBRANCH  16  17
ENDBRANCH  14  15
ENDBRANCH   1  14
TORSDOF 6
ENDMDL
MODEL 4
REMARK VINA RESULT:      -5.5     13.173     14.645
REMARK  Name = 641785_Cardamonin.pdbqt.pdb
REMARK  6 active torsions:
REMARK  status: ('A' for Active; 'I' for Inactive)
REMARK    1  A    between atoms: C_1  and  C_14
REMARK    2  A    between atoms: C_2  and  O_7
REMARK    3  A    between atoms: C_3  and  O_9
REMARK    4  A    between atoms: C_6  and  O_11
REMARK    5  A    between atoms: C_14  and  C_15
REMARK    6  A    between atoms: C_16  and  C_17
REMARK                            x       y       z     vdW  Elec       q    Type
REMARK                         _______ _______ _______ _____ _____    ______ ____
ROOT
ATOM      1  C   UNL     1      15.888   1.962  28.879  0.00  0.00    +0.000 A 
ATOM      2  C   UNL     1      15.085   1.986  30.035  0.00  0.00    +0.000 A 
ATOM      3  C   UNL     1      17.237   1.571  28.997  0.00  0.00    +0.000 A 
ATOM      4  C   UNL     1      15.653   1.645  31.272  0.00  0.00    +0.000 A 
ATOM      5  C   UNL     1      17.788   1.246  30.236  0.00  0.00    +0.000 A 
ATOM      6  C   UNL     1      16.992   1.291  31.368  0.00  0.00    +0.000 A 
ENDROOT
BRANCH   2   7
ATOM      7  O   UNL     1      13.744   2.267  29.911  0.00  0.00    +0.000 OA
ATOM      8  C   UNL     1      13.333   3.521  30.379  0.00  0.00    +0.000 C 
ENDBRANCH   2   7
BRANCH   3   9
ATOM      9  O   UNL     1      18.098   1.483  27.932  0.00  0.00    +0.000 OA
ATOM     10  H   UNL     1      17.906   0.668  27.418  0.00  0.00    +0.000 HD
ENDBRANCH   3   9
BRANCH   6  11
ATOM     11  O   UNL     1      17.544   0.972  32.571  0.00  0.00    +0.000 OA
ATOM     12  H   UNL     1      17.414   0.021  32.735  0.00  0.00    +0.000 HD
ENDBRANCH   6  11
BRANCH   1  14
ATOM     13  O   UNL     1      15.171   1.455  26.693  0.00  0.00    +0.000 OA
ATOM     14  C   UNL     1      15.390   2.327  27.528  0.00  0.00    +0.000 C 
BRANCH  14  15
ATOM     15  C   UNL     1      15.228   3.710  27.154  0.00  0.00    +0.000 C 
ATOM     16  C   UNL     1      15.082   4.866  26.857  0.00  0.00    +0.000 C 
BRANCH  16  17
ATOM     17  C   UNL     1      14.912   6.236  26.499  0.00  0.00    +0.000 A 
ATOM     18  C   UNL     1      13.812   6.946  26.976  0.00  0.00    +0.000 A 
ATOM     19  C   UNL     1      15.843   6.860  25.673  0.00  0.00    +0.000 A 
ATOM     20  C   UNL     1      13.644   8.284  26.626  0.00  0.00    +0.000 A 
ATOM     21  C   UNL     1      15.674   8.198  25.322  0.00  0.00    +0.000 A 
ATOM     22  C   UNL     1      14.575   8.908  25.799  0.00  0.00    +0.000 A 
ENDBRANCH  16  17
ENDBRANCH  14  15
ENDBRANCH   1  14
TORSDOF 6
ENDMDL
MODEL 5
REMARK VINA RESULT:      -5.2     14.035     15.156
REMARK  Name = 641785_Cardamonin.pdbqt.pdb
REMARK  6 active torsions:
REMARK  status: ('A' for Active; 'I' for Inactive)
REMARK    1  A    between atoms: C_1  and  C_14
REMARK    2  A    between atoms: C_2  and  O_7
REMARK    3  A    between atoms: C_3  and  O_9
REMARK    4  A    between atoms: C_6  and  O_11
REMARK    5  A    between atoms: C_14  and  C_15
REMARK    6  A    between atoms: C_16  and  C_17
REMARK                            x       y       z     vdW  Elec       q    Type
REMARK                         _______ _______ _______ _____ _____    ______ ____
ROOT
ATOM      1  C   UNL     1      35.344   9.424  33.287  0.00  0.00    +0.000 A 
ATOM      2  C   UNL     1      34.471   9.752  34.342  0.00  0.00    +0.000 A 
ATOM      3  C   UNL     1      35.483   8.071  32.915  0.00  0.00    +0.000 A 
ATOM      4  C   UNL     1      33.786   8.725  35.009  0.00  0.00    +0.000 A 
ATOM      5  C   UNL     1      34.803   7.063  33.596  0.00  0.00    +0.000 A 
ATOM      6  C   UNL     1      33.962   7.396  34.644  0.00  0.00    +0.000 A 
ENDROOT
BRANCH   2   7
ATOM      7  O   UNL     1      34.252  11.076  34.641  0.00  0.00    +0.000 OA
ATOM      8  C   UNL     1      34.651  11.491  35.918  0.00  0.00    +0.000 C 
ENDBRANCH   2   7
BRANCH   3   9
ATOM      9  O   UNL     1      36.281   7.647  31.882  0.00  0.00    +0.000 OA
ATOM     10  H   UNL     1      37.048   8.253  31.786  0.00  0.00    +0.000 HD
ENDBRANCH   3   9
BRANCH   6  11
ATOM     11  O   UNL     1      33.305   6.401  35.301  0.00  0.00    +0.000 OA
ATOM     12  H   UNL     1      33.935   5.684  35.496  0.00  0.00    +0.000 HD
ENDBRANCH   6  11
BRANCH   1  14
ATOM     13  O   UNL     1      35.972  10.564  31.324  0.00  0.00    +0.000 OA
ATOM     14  C   UNL     1      36.132  10.433  32.532  0.00  0.00    +0.000 C 
BRANCH  14  15
ATOM     15  C   UNL     1      37.145  11.217  33.194  0.00  0.00    +0.000 C 
ATOM     16  C   UNL     1      37.998  11.854  33.752  0.00  0.00    +0.000 C 
BRANCH  16  17
ATOM     17  C   UNL     1      39.006  12.616  34.413  0.00  0.00    +0.000 A 
ATOM     18  C   UNL     1      40.162  12.983  33.725  0.00  0.00    +0.000 A 
ATOM     19  C   UNL     1      38.836  12.990  35.743  0.00  0.00    +0.000 A 
ATOM     20  C   UNL     1      41.148  13.726  34.370  0.00  0.00    +0.000 A 
ATOM     21  C   UNL     1      39.823  13.733  36.388  0.00  0.00    +0.000 A 
ATOM     22  C   UNL     1      40.978  14.100  35.700  0.00  0.00    +0.000 A 
ENDBRANCH  16  17
ENDBRANCH  14  15
ENDBRANCH   1  14
TORSDOF 6
ENDMDL
MODEL 6
REMARK VINA RESULT:      -5.1     18.811     20.769
REMARK  Name = 641785_Cardamonin.pdbqt.pdb
REMARK  6 active torsions:
REMARK  status: ('A' for Active; 'I' for Inactive)
REMARK    1  A    between atoms: C_1  and  C_14
REMARK    2  A    between atoms: C_2  and  O_7
REMARK    3  A    between atoms: C_3  and  O_9
REMARK    4  A    between atoms: C_6  and  O_11
REMARK    5  A    between atoms: C_14  and  C_15
REMARK    6  A    between atoms: C_16  and  C_17
REMARK                            x       y       z     vdW  Elec       q    Type
REMARK                         _______ _______ _______ _____ _____    ______ ____
ROOT
ATOM      1  C   UNL     1       9.184  14.030  17.760  0.00  0.00    +0.000 A 
ATOM      2  C   UNL     1       8.451  14.646  16.728  0.00  0.00    +0.000 A 
ATOM      3  C   UNL     1       8.490  13.525  18.878  0.00  0.00    +0.000 A 
ATOM      4  C   UNL     1       7.059  14.763  16.851  0.00  0.00    +0.000 A 
ATOM      5  C   UNL     1       7.107  13.660  18.990  0.00  0.00    +0.000 A 
ATOM      6  C   UNL     1       6.400  14.285  17.977  0.00  0.00    +0.000 A 
ENDROOT
BRANCH   2   7
ATOM      7  O   UNL     1       9.109  15.048  15.588  0.00  0.00    +0.000 OA
ATOM      8  C   UNL     1       8.724  14.415  14.400  0.00  0.00    +0.000 C 
ENDBRANCH   2   7
BRANCH   3   9
ATOM      9  O   UNL     1       9.103  12.880  19.923  0.00  0.00    +0.000 OA
ATOM     10  H   UNL     1       8.795  11.948  19.963  0.00  0.00    +0.000 HD
ENDBRANCH   3   9
BRANCH   6  11
ATOM     11  O   UNL     1       5.049  14.410  18.100  0.00  0.00    +0.000 OA
ATOM     12  H   UNL     1       4.621  13.929  17.369  0.00  0.00    +0.000 HD
ENDBRANCH   6  11
BRANCH   1  14
ATOM     13  O   UNL     1      11.362  14.511  18.518  0.00  0.00    +0.000 OA
ATOM     14  C   UNL     1      10.661  13.877  17.736  0.00  0.00    +0.000 C 
BRANCH  14  15
ATOM     15  C   UNL     1      11.296  13.041  16.747  0.00  0.00    +0.000 C 
ATOM     16  C   UNL     1      11.809  12.335  15.920  0.00  0.00    +0.000 C 
BRANCH  16  17
ATOM     17  C   UNL     1      12.423  11.500  14.941  0.00  0.00    +0.000 A 
ATOM     18  C   UNL     1      13.114  12.073  13.875  0.00  0.00    +0.000 A 
ATOM     19  C   UNL     1      12.331  10.114  15.051  0.00  0.00    +0.000 A 
ATOM     20  C   UNL     1      13.713  11.258  12.917  0.00  0.00    +0.000 A 
ATOM     21  C   UNL     1      12.930   9.300  14.092  0.00  0.00    +0.000 A 
ATOM     22  C   UNL     1      13.620   9.872  13.027  0.00  0.00    +0.000 A 
ENDBRANCH  16  17
ENDBRANCH  14  15
ENDBRANCH   1  14
TORSDOF 6
ENDMDL
MODEL 7
REMARK VINA RESULT:      -5.0     16.754     20.042
REMARK  Name = 641785_Cardamonin.pdbqt.pdb
REMARK  6 active torsions:
REMARK  status: ('A' for Active; 'I' for Inactive)
REMARK    1  A    between atoms: C_1  and  C_14
REMARK    2  A    between atoms: C_2  and  O_7
REMARK    3  A    between atoms: C_3  and  O_9
REMARK    4  A    between atoms: C_6  and  O_11
REMARK    5  A    between atoms: C_14  and  C_15
REMARK    6  A    between atoms: C_16  and  C_17
REMARK                            x       y       z     vdW  Elec       q    Type
REMARK                         _______ _______ _______ _____ _____    ______ ____
ROOT
ATOM      1  C   UNL     1      27.604  -4.137  27.248  0.00  0.00    +0.000 A 
ATOM      2  C   UNL     1      28.796  -3.516  27.667  0.00  0.00    +0.000 A 
ATOM      3  C   UNL     1      27.439  -4.441  25.882  0.00  0.00    +0.000 A 
ATOM      4  C   UNL     1      29.772  -3.194  26.712  0.00  0.00    +0.000 A 
ATOM      5  C   UNL     1      28.415  -4.104  24.945  0.00  0.00    +0.000 A 
ATOM      6  C   UNL     1      29.575  -3.476  25.367  0.00  0.00    +0.000 A 
ENDROOT
BRANCH   2   7
ATOM      7  O   UNL     1      29.006  -3.310  29.010  0.00  0.00    +0.000 OA
ATOM      8  C   UNL     1      29.204  -1.982  29.405  0.00  0.00    +0.000 C 
ENDBRANCH   2   7
BRANCH   3   9
ATOM      9  O   UNL     1      26.332  -5.073  25.373  0.00  0.00    +0.000 OA
ATOM     10  H   UNL     1      25.605  -4.423  25.254  0.00  0.00    +0.000 HD
ENDBRANCH   3   9
BRANCH   6  11
ATOM     11  O   UNL     1      30.520  -3.152  24.441  0.00  0.00    +0.000 OA
ATOM     12  H   UNL     1      31.140  -2.513  24.835  0.00  0.00    +0.000 HD
ENDBRANCH   6  11
BRANCH   1  14
ATOM     13  O   UNL     1      26.045  -5.637  28.181  0.00  0.00    +0.000 OA
ATOM     14  C   UNL     1      26.500  -4.498  28.174  0.00  0.00    +0.000 C 
BRANCH  14  15
ATOM     15  C   UNL     1      25.898  -3.499  29.023  0.00  0.00    +0.000 C 
ATOM     16  C   UNL     1      25.403  -2.676  29.746  0.00  0.00    +0.000 C 
BRANCH  16  17
ATOM     17  C   UNL     1      24.812  -1.697  30.597  0.00  0.00    +0.000 A 
ATOM     18  C   UNL     1      25.182  -0.358  30.477  0.00  0.00    +0.000 A 
ATOM     19  C   UNL     1      23.868  -2.079  31.548  0.00  0.00    +0.000 A 
ATOM     20  C   UNL     1      24.606   0.599  31.310  0.00  0.00    +0.000 A 
ATOM     21  C   UNL     1      23.293  -1.121  32.380  0.00  0.00    +0.000 A 
ATOM     22  C   UNL     1      23.663   0.216  32.260  0.00  0.00    +0.000 A 
ENDBRANCH  16  17
ENDBRANCH  14  15
ENDBRANCH   1  14
TORSDOF 6
ENDMDL
MODEL 8
REMARK VINA RESULT:      -5.0     15.350     17.775
REMARK  Name = 641785_Cardamonin.pdbqt.pdb
REMARK  6 active torsions:
REMARK  status: ('A' for Active; 'I' for Inactive)
REMARK    1  A    between atoms: C_1  and  C_14
REMARK    2  A    between atoms: C_2  and  O_7
REMARK    3  A    between atoms: C_3  and  O_9
REMARK    4  A    between atoms: C_6  and  O_11
REMARK    5  A    between atoms: C_14  and  C_15
REMARK    6  A    between atoms: C_16  and  C_17
REMARK                            x       y       z     vdW  Elec       q    Type
REMARK                         _______ _______ _______ _____ _____    ______ ____
ROOT
ATOM      1  C   UNL     1      26.652  -1.127  30.137  0.00  0.00    +0.000 A 
ATOM      2  C   UNL     1      27.509  -1.795  31.033  0.00  0.00    +0.000 A 
ATOM      3  C   UNL     1      26.427  -1.691  28.864  0.00  0.00    +0.000 A 
ATOM      4  C   UNL     1      28.133  -2.984  30.628  0.00  0.00    +0.000 A 
ATOM      5  C   UNL     1      27.064  -2.868  28.474  0.00  0.00    +0.000 A 
ATOM      6  C   UNL     1      27.919  -3.505  29.358  0.00  0.00    +0.000 A 
ENDROOT
BRANCH   2   7
ATOM      7  O   UNL     1      27.651  -1.306  32.311  0.00  0.00    +0.000 OA
ATOM      8  C   UNL     1      27.352  -2.198  33.347  0.00  0.00    +0.000 C 
ENDBRANCH   2   7
BRANCH   3   9
ATOM      9  O   UNL     1      25.588  -1.140  27.928  0.00  0.00    +0.000 OA
ATOM     10  H   UNL     1      25.809  -0.191  27.804  0.00  0.00    +0.000 HD
ENDBRANCH   3   9
BRANCH   6  11
ATOM     11  O   UNL     1      28.535  -4.653  28.963  0.00  0.00    +0.000 OA
ATOM     12  H   UNL     1      29.390  -4.726  29.425  0.00  0.00    +0.000 HD
ENDBRANCH   6  11
BRANCH   1  14
ATOM     13  O   UNL     1      26.262   1.180  29.871  0.00  0.00    +0.000 OA
ATOM     14  C   UNL     1      25.961   0.148  30.460  0.00  0.00    +0.000 C 
BRANCH  14  15
ATOM     15  C   UNL     1      24.984   0.205  31.518  0.00  0.00    +0.000 C 
ATOM     16  C   UNL     1      24.177   0.267  32.408  0.00  0.00    +0.000 C 
BRANCH  16  17
ATOM     17  C   UNL     1      23.219   0.335  33.461  0.00  0.00    +0.000 A 
ATOM     18  C   UNL     1      23.385   1.256  34.493  0.00  0.00    +0.000 A 
ATOM     19  C   UNL     1      22.120  -0.521  33.458  0.00  0.00    +0.000 A 
ATOM     20  C   UNL     1      22.450   1.322  35.524  0.00  0.00    +0.000 A 
ATOM     21  C   UNL     1      21.185  -0.454  34.489  0.00  0.00    +0.000 A 
ATOM     22  C   UNL     1      21.351   0.466  35.521  0.00  0.00    +0.000 A 
ENDBRANCH  16  17
ENDBRANCH  14  15
ENDBRANCH   1  14
TORSDOF 6
ENDMDL
MODEL 9
REMARK VINA RESULT:      -4.8      3.733      6.939
REMARK  Name = 641785_Cardamonin.pdbqt.pdb
REMARK  6 active torsions:
REMARK  status: ('A' for Active; 'I' for Inactive)
REMARK    1  A    between atoms: C_1  and  C_14
REMARK    2  A    between atoms: C_2  and  O_7
REMARK    3  A    between atoms: C_3  and  O_9
REMARK    4  A    between atoms: C_6  and  O_11
REMARK    5  A    between atoms: C_14  and  C_15
REMARK    6  A    between atoms: C_16  and  C_17
REMARK                            x       y       z     vdW  Elec       q    Type
REMARK                         _______ _______ _______ _____ _____    ______ ____
ROOT
ATOM      1  C   UNL     1      21.122  13.611  32.146  0.00  0.00    +0.000 A 
ATOM      2  C   UNL     1      20.070  13.617  33.082  0.00  0.00    +0.000 A 
ATOM      3  C   UNL     1      21.270  14.714  31.282  0.00  0.00    +0.000 A 
ATOM      4  C   UNL     1      19.185  14.706  33.110  0.00  0.00    +0.000 A 
ATOM      5  C   UNL     1      20.375  15.783  31.317  0.00  0.00    +0.000 A 
ATOM      6  C   UNL     1      19.333  15.768  32.229  0.00  0.00    +0.000 A 
ENDROOT
BRANCH   2   7
ATOM      7  O   UNL     1      19.982  12.593  33.996  0.00  0.00    +0.000 OA
ATOM      8  C   UNL     1      19.741  12.972  35.322  0.00  0.00    +0.000 C 
ENDBRANCH   2   7
BRANCH   3   9
ATOM      9  O   UNL     1      22.278  14.824  30.356  0.00  0.00    +0.000 OA
ATOM     10  H   UNL     1      23.148  14.800  30.811  0.00  0.00    +0.000 HD
ENDBRANCH   3   9
BRANCH   6  11
ATOM     11  O   UNL     1      18.466  16.818  32.251  0.00  0.00    +0.000 OA
ATOM     12  H   UNL     1      18.415  17.165  33.159  0.00  0.00    +0.000 HD
ENDBRANCH   6  11
BRANCH   1  14
ATOM     13  O   UNL     1      22.260  11.936  30.941  0.00  0.00    +0.000 OA
ATOM     14  C   UNL     1      22.098  12.498  32.019  0.00  0.00    +0.000 C 
BRANCH  14  15
ATOM     15  C   UNL     1      22.813  12.014  33.175  0.00  0.00    +0.000 C 
ATOM     16  C   UNL     1      23.410  11.628  34.144  0.00  0.00    +0.000 C 
BRANCH  16  17
ATOM     17  C   UNL     1      24.119  11.164  35.291  0.00  0.00    +0.000 A 
ATOM     18  C   UNL     1      24.103   9.809  35.616  0.00  0.00    +0.000 A 
ATOM     19  C   UNL     1      24.824  12.065  36.085  0.00  0.00    +0.000 A 
ATOM     20  C   UNL     1      24.794   9.355  36.737  0.00  0.00    +0.000 A 
ATOM     21  C   UNL     1      25.515  11.611  37.207  0.00  0.00    +0.000 A 
ATOM     22  C   UNL     1      25.499  10.256  37.531  0.00  0.00    +0.000 A 
ENDBRANCH  16  17
ENDBRANCH  14  15
ENDBRANCH   1  14
TORSDOF 6
ENDMDL
