MODEL 1
REMARK VINA RESULT:      -5.9      0.000      0.000
REMARK  Name = 6440856_Goniothalamin.pdbqt.pdb
REMARK  2 active torsions:
REMARK  status: ('A' for Active; 'I' for Inactive)
REMARK    1  A    between atoms: C_1  and  C_5
REMARK    2  A    between atoms: C_2  and  C_10
REMARK                            x       y       z     vdW  Elec       q    Type
REMARK                         _______ _______ _______ _____ _____    ______ ____
ROOT
ATOM      1  C   UNL     1      15.836   4.405  25.853  0.00  0.00    +0.000 C 
ATOM      2  C   UNL     1      15.411   5.477  26.187  0.00  0.00    +0.000 C 
ENDROOT
BRANCH   1   5
ATOM      3  O   UNL     1      15.629   2.399  24.455  0.00  0.00    +0.000 OA
ATOM      4  O   UNL     1      15.628   0.426  23.238  0.00  0.00    +0.000 OA
ATOM      5  C   UNL     1      16.339   3.142  25.464  0.00  0.00    +0.000 A 
ATOM      6  C   UNL     1      17.504   2.510  25.979  0.00  0.00    +0.000 A 
ATOM      7  C   UNL     1      18.106   1.172  25.619  0.00  0.00    +0.000 A 
ATOM      8  C   UNL     1      17.346   0.772  24.784  0.00  0.00    +0.000 A 
ATOM      9  C   UNL     1      16.137   1.150  24.079  0.00  0.00    +0.000 A 
ENDBRANCH   1   5
BRANCH   2  10
ATOM     10  C   UNL     1      14.905   6.750  26.583  0.00  0.00    +0.000 A 
ATOM     11  C   UNL     1      15.101   7.862  25.766  0.00  0.00    +0.000 A 
ATOM     12  C   UNL     1      14.214   6.880  27.786  0.00  0.00    +0.000 A 
ATOM     13  C   UNL     1      14.608   9.105  26.154  0.00  0.00    +0.000 A 
ATOM     14  C   UNL     1      13.720   8.124  28.173  0.00  0.00    +0.000 A 
ATOM     15  C   UNL     1      13.917   9.235  27.356  0.00  0.00    +0.000 A 
ENDBRANCH   2  10
TORSDOF 2
ENDMDL
MODEL 2
REMARK VINA RESULT:      -5.8     31.917     35.358
REMARK  Name = 6440856_Goniothalamin.pdbqt.pdb
REMARK  2 active torsions:
REMARK  status: ('A' for Active; 'I' for Inactive)
REMARK    1  A    between atoms: C_1  and  C_5
REMARK    2  A    between atoms: C_2  and  C_10
REMARK                            x       y       z     vdW  Elec       q    Type
REMARK                         _______ _______ _______ _____ _____    ______ ____
ROOT
ATOM      1  C   UNL     1      45.102  -6.242  11.227  0.00  0.00    +0.000 C 
ATOM      2  C   UNL     1      45.467  -6.830  10.246  0.00  0.00    +0.000 C 
ENDROOT
BRANCH   1   5
ATOM      3  O   UNL     1      43.262  -5.297  12.547  0.00  0.00    +0.000 OA
ATOM      4  O   UNL     1      41.685  -4.336  13.949  0.00  0.00    +0.000 OA
ATOM      5  C   UNL     1      44.670  -5.553  12.383  0.00  0.00    +0.000 A 
ATOM      6  C   UNL     1      45.502  -5.074  13.432  0.00  0.00    +0.000 A 
ATOM      7  C   UNL     1      45.122  -4.334  14.694  0.00  0.00    +0.000 A 
ATOM      8  C   UNL     1      43.932  -4.251  14.587  0.00  0.00    +0.000 A 
ATOM      9  C   UNL     1      42.847  -4.614  13.696  0.00  0.00    +0.000 A 
ENDBRANCH   1   5
BRANCH   2  10
ATOM     10  C   UNL     1      45.901  -7.529   9.080  0.00  0.00    +0.000 A 
ATOM     11  C   UNL     1      45.026  -7.709   8.011  0.00  0.00    +0.000 A 
ATOM     12  C   UNL     1      47.199  -8.029   9.013  0.00  0.00    +0.000 A 
ATOM     13  C   UNL     1      45.450  -8.392   6.874  0.00  0.00    +0.000 A 
ATOM     14  C   UNL     1      47.623  -8.712   7.875  0.00  0.00    +0.000 A 
ATOM     15  C   UNL     1      46.748  -8.892   6.806  0.00  0.00    +0.000 A 
ENDBRANCH   2  10
TORSDOF 2
ENDMDL
MODEL 3
REMARK VINA RESULT:      -5.8     31.967     33.686
REMARK  Name = 6440856_Goniothalamin.pdbqt.pdb
REMARK  2 active torsions:
REMARK  status: ('A' for Active; 'I' for Inactive)
REMARK    1  A    between atoms: C_1  and  C_5
REMARK    2  A    between atoms: C_2  and  C_10
REMARK                            x       y       z     vdW  Elec       q    Type
REMARK                         _______ _______ _______ _____ _____    ______ ____
ROOT
ATOM      1  C   UNL     1      44.377  -3.683  11.059  0.00  0.00    +0.000 C 
ATOM      2  C   UNL     1      45.123  -2.776  10.813  0.00  0.00    +0.000 C 
ENDROOT
BRANCH   1   5
ATOM      3  O   UNL     1      42.429  -5.038  10.431  0.00  0.00    +0.000 OA
ATOM      4  O   UNL     1      40.624  -6.439  10.034  0.00  0.00    +0.000 OA
ATOM      5  C   UNL     1      43.499  -4.753  11.351  0.00  0.00    +0.000 A 
ATOM      6  C   UNL     1      43.565  -5.602  12.490  0.00  0.00    +0.000 A 
ATOM      7  C   UNL     1      42.674  -6.759  12.874  0.00  0.00    +0.000 A 
ATOM      8  C   UNL     1      41.889  -6.783  11.970  0.00  0.00    +0.000 A 
ATOM      9  C   UNL     1      41.567  -6.099  10.732  0.00  0.00    +0.000 A 
ENDBRANCH   1   5
BRANCH   2  10
ATOM     10  C   UNL     1      46.009  -1.697  10.522  0.00  0.00    +0.000 A 
ATOM     11  C   UNL     1      46.967  -1.834   9.520  0.00  0.00    +0.000 A 
ATOM     12  C   UNL     1      45.916  -0.507  11.241  0.00  0.00    +0.000 A 
ATOM     13  C   UNL     1      47.833  -0.781   9.236  0.00  0.00    +0.000 A 
ATOM     14  C   UNL     1      46.782   0.547  10.956  0.00  0.00    +0.000 A 
ATOM     15  C   UNL     1      47.739   0.409   9.954  0.00  0.00    +0.000 A 
ENDBRANCH   2  10
TORSDOF 2
ENDMDL
MODEL 4
REMARK VINA RESULT:      -5.7      2.367      6.981
REMARK  Name = 6440856_Goniothalamin.pdbqt.pdb
REMARK  2 active torsions:
REMARK  status: ('A' for Active; 'I' for Inactive)
REMARK    1  A    between atoms: C_1  and  C_5
REMARK    2  A    between atoms: C_2  and  C_10
REMARK                            x       y       z     vdW  Elec       q    Type
REMARK                         _______ _______ _______ _____ _____    ______ ____
ROOT
ATOM      1  C   UNL     1      15.687   4.917  25.966  0.00  0.00    +0.000 C 
ATOM      2  C   UNL     1      16.195   3.870  25.673  0.00  0.00    +0.000 C 
ENDROOT
BRANCH   1   5
ATOM      3  O   UNL     1      15.316   7.288  25.451  0.00  0.00    +0.000 OA
ATOM      4  O   UNL     1      14.836   9.537  25.157  0.00  0.00    +0.000 OA
ATOM      5  C   UNL     1      15.090   6.153  26.308  0.00  0.00    +0.000 A 
ATOM      6  C   UNL     1      14.267   6.399  27.440  0.00  0.00    +0.000 A 
ATOM      7  C   UNL     1      13.594   7.681  27.874  0.00  0.00    +0.000 A 
ATOM      8  C   UNL     1      13.933   8.445  27.017  0.00  0.00    +0.000 A 
ATOM      9  C   UNL     1      14.720   8.505  25.800  0.00  0.00    +0.000 A 
ENDBRANCH   1   5
BRANCH   2  10
ATOM     10  C   UNL     1      16.799   2.625  25.325  0.00  0.00    +0.000 A 
ATOM     11  C   UNL     1      16.034   1.622  24.734  0.00  0.00    +0.000 A 
ATOM     12  C   UNL     1      18.153   2.415  25.576  0.00  0.00    +0.000 A 
ATOM     13  C   UNL     1      16.624   0.407  24.395  0.00  0.00    +0.000 A 
ATOM     14  C   UNL     1      18.743   1.200  25.236  0.00  0.00    +0.000 A 
ATOM     15  C   UNL     1      17.978   0.197  24.645  0.00  0.00    +0.000 A 
ENDBRANCH   2  10
TORSDOF 2
ENDMDL
MODEL 5
REMARK VINA RESULT:      -5.7      2.513      7.026
REMARK  Name = 6440856_Goniothalamin.pdbqt.pdb
REMARK  2 active torsions:
REMARK  status: ('A' for Active; 'I' for Inactive)
REMARK    1  A    between atoms: C_1  and  C_5
REMARK    2  A    between atoms: C_2  and  C_10
REMARK                            x       y       z     vdW  Elec       q    Type
REMARK                         _______ _______ _______ _____ _____    ______ ____
ROOT
ATOM      1  C   UNL     1      15.578   5.297  26.177  0.00  0.00    +0.000 C 
ATOM      2  C   UNL     1      16.067   4.240  25.886  0.00  0.00    +0.000 C 
ENDROOT
BRANCH   1   5
ATOM      3  O   UNL     1      14.243   6.643  27.735  0.00  0.00    +0.000 OA
ATOM      4  O   UNL     1      13.015   8.094  29.062  0.00  0.00    +0.000 OA
ATOM      5  C   UNL     1      15.005   6.544  26.517  0.00  0.00    +0.000 A 
ATOM      6  C   UNL     1      15.106   7.745  25.763  0.00  0.00    +0.000 A 
ATOM      7  C   UNL     1      14.528   9.110  26.054  0.00  0.00    +0.000 A 
ATOM      8  C   UNL     1      13.957   8.925  27.091  0.00  0.00    +0.000 A 
ATOM      9  C   UNL     1      13.681   7.883  28.060  0.00  0.00    +0.000 A 
ENDBRANCH   1   5
BRANCH   2  10
ATOM     10  C   UNL     1      16.649   2.984  25.541  0.00  0.00    +0.000 A 
ATOM     11  C   UNL     1      17.977   2.719  25.868  0.00  0.00    +0.000 A 
ATOM     12  C   UNL     1      15.887   2.024  24.878  0.00  0.00    +0.000 A 
ATOM     13  C   UNL     1      18.544   1.492  25.530  0.00  0.00    +0.000 A 
ATOM     14  C   UNL     1      16.455   0.798  24.540  0.00  0.00    +0.000 A 
ATOM     15  C   UNL     1      17.783   0.532  24.867  0.00  0.00    +0.000 A 
ENDBRANCH   2  10
TORSDOF 2
ENDMDL
MODEL 6
REMARK VINA RESULT:      -5.6     12.232     14.316
REMARK  Name = 6440856_Goniothalamin.pdbqt.pdb
REMARK  2 active torsions:
REMARK  status: ('A' for Active; 'I' for Inactive)
REMARK    1  A    between atoms: C_1  and  C_5
REMARK    2  A    between atoms: C_2  and  C_10
REMARK                            x       y       z     vdW  Elec       q    Type
REMARK                         _______ _______ _______ _____ _____    ______ ____
ROOT
ATOM      1  C   UNL     1      21.687  15.910  31.639  0.00  0.00    +0.000 C 
ATOM      2  C   UNL     1      21.572  17.062  31.320  0.00  0.00    +0.000 C 
ENDROOT
BRANCH   1   5
ATOM      3  O   UNL     1      22.139  13.586  30.992  0.00  0.00    +0.000 OA
ATOM      4  O   UNL     1      22.537  11.335  30.605  0.00  0.00    +0.000 OA
ATOM      5  C   UNL     1      21.826  14.553  32.013  0.00  0.00    +0.000 A 
ATOM      6  C   UNL     1      21.687  14.028  33.326  0.00  0.00    +0.000 A 
ATOM      7  C   UNL     1      21.819  12.602  33.807  0.00  0.00    +0.000 A 
ATOM      8  C   UNL     1      22.073  12.018  32.793  0.00  0.00    +0.000 A 
ATOM      9  C   UNL     1      22.274  12.247  31.375  0.00  0.00    +0.000 A 
ENDBRANCH   1   5
BRANCH   2  10
ATOM     10  C   UNL     1      21.435  18.430  30.941  0.00  0.00    +0.000 A 
ATOM     11  C   UNL     1      22.085  18.905  29.805  0.00  0.00    +0.000 A 
ATOM     12  C   UNL     1      20.651  19.288  31.709  0.00  0.00    +0.000 A 
ATOM     13  C   UNL     1      21.952  20.242  29.436  0.00  0.00    +0.000 A 
ATOM     14  C   UNL     1      20.517  20.625  31.339  0.00  0.00    +0.000 A 
ATOM     15  C   UNL     1      21.167  21.101  30.202  0.00  0.00    +0.000 A 
ENDBRANCH   2  10
TORSDOF 2
ENDMDL
MODEL 7
REMARK VINA RESULT:      -5.3     32.273     32.860
REMARK  Name = 6440856_Goniothalamin.pdbqt.pdb
REMARK  2 active torsions:
REMARK  status: ('A' for Active; 'I' for Inactive)
REMARK    1  A    between atoms: C_1  and  C_5
REMARK    2  A    between atoms: C_2  and  C_10
REMARK                            x       y       z     vdW  Elec       q    Type
REMARK                         _______ _______ _______ _____ _____    ______ ____
ROOT
ATOM      1  C   UNL     1      44.124  -2.441  12.501  0.00  0.00    +0.000 C 
ATOM      2  C   UNL     1      43.663  -3.537  12.336  0.00  0.00    +0.000 C 
ENDROOT
BRANCH   1   5
ATOM      3  O   UNL     1      45.162  -0.801  14.003  0.00  0.00    +0.000 OA
ATOM      4  O   UNL     1      46.146   0.894  15.241  0.00  0.00    +0.000 OA
ATOM      5  C   UNL     1      44.663  -1.148  12.697  0.00  0.00    +0.000 A 
ATOM      6  C   UNL     1      44.768  -0.127  11.714  0.00  0.00    +0.000 A 
ATOM      7  C   UNL     1      45.327   1.271  11.841  0.00  0.00    +0.000 A 
ATOM      8  C   UNL     1      45.663   1.303  12.990  0.00  0.00    +0.000 A 
ATOM      9  C   UNL     1      45.693   0.481  14.185  0.00  0.00    +0.000 A 
ENDBRANCH   1   5
BRANCH   2  10
ATOM     10  C   UNL     1      43.116  -4.840  12.140  0.00  0.00    +0.000 A 
ATOM     11  C   UNL     1      42.533  -5.173  10.920  0.00  0.00    +0.000 A 
ATOM     12  C   UNL     1      43.166  -5.777  13.170  0.00  0.00    +0.000 A 
ATOM     13  C   UNL     1      41.999  -6.446  10.730  0.00  0.00    +0.000 A 
ATOM     14  C   UNL     1      42.632  -7.049  12.979  0.00  0.00    +0.000 A 
ATOM     15  C   UNL     1      42.049  -7.383  11.759  0.00  0.00    +0.000 A 
ENDBRANCH   2  10
TORSDOF 2
ENDMDL
MODEL 8
REMARK VINA RESULT:      -5.1     35.114     36.483
REMARK  Name = 6440856_Goniothalamin.pdbqt.pdb
REMARK  2 active torsions:
REMARK  status: ('A' for Active; 'I' for Inactive)
REMARK    1  A    between atoms: C_1  and  C_5
REMARK    2  A    between atoms: C_2  and  C_10
REMARK                            x       y       z     vdW  Elec       q    Type
REMARK                         _______ _______ _______ _____ _____    ______ ____
ROOT
ATOM      1  C   UNL     1      30.008  10.467  -6.468  0.00  0.00    +0.000 C 
ATOM      2  C   UNL     1      31.152  10.201  -6.217  0.00  0.00    +0.000 C 
ENDROOT
BRANCH   1   5
ATOM      3  O   UNL     1      28.388  11.952  -7.561  0.00  0.00    +0.000 OA
ATOM      4  O   UNL     1      26.691  13.215  -8.509  0.00  0.00    +0.000 OA
ATOM      5  C   UNL     1      28.662  10.785  -6.762  0.00  0.00    +0.000 A 
ATOM      6  C   UNL     1      27.519  10.054  -6.341  0.00  0.00    +0.000 A 
ATOM      7  C   UNL     1      26.056  10.323  -6.610  0.00  0.00    +0.000 A 
ATOM      8  C   UNL     1      26.103  11.319  -7.273  0.00  0.00    +0.000 A 
ATOM      9  C   UNL     1      27.052  12.256  -7.844  0.00  0.00    +0.000 A 
ENDBRANCH   1   5
BRANCH   2  10
ATOM     10  C   UNL     1      32.510   9.884  -5.920  0.00  0.00    +0.000 A 
ATOM     11  C   UNL     1      33.497  10.859  -6.050  0.00  0.00    +0.000 A 
ATOM     12  C   UNL     1      32.849   8.600  -5.499  0.00  0.00    +0.000 A 
ATOM     13  C   UNL     1      34.823  10.549  -5.760  0.00  0.00    +0.000 A 
ATOM     14  C   UNL     1      34.176   8.291  -5.209  0.00  0.00    +0.000 A 
ATOM     15  C   UNL     1      35.162   9.266  -5.339  0.00  0.00    +0.000 A 
ENDBRANCH   2  10
TORSDOF 2
ENDMDL
MODEL 9
REMARK VINA RESULT:      -5.1     27.921     29.972
REMARK  Name = 6440856_Goniothalamin.pdbqt.pdb
REMARK  2 active torsions:
REMARK  status: ('A' for Active; 'I' for Inactive)
REMARK    1  A    between atoms: C_1  and  C_5
REMARK    2  A    between atoms: C_2  and  C_10
REMARK                            x       y       z     vdW  Elec       q    Type
REMARK                         _______ _______ _______ _____ _____    ______ ____
ROOT
ATOM      1  C   UNL     1      22.537  23.121   3.923  0.00  0.00    +0.000 C 
ATOM      2  C   UNL     1      21.970  22.115   3.593  0.00  0.00    +0.000 C 
ENDROOT
BRANCH   1   5
ATOM      3  O   UNL     1      22.817  24.934   5.552  0.00  0.00    +0.000 OA
ATOM      4  O   UNL     1      23.248  26.732   6.951  0.00  0.00    +0.000 OA
ATOM      5  C   UNL     1      23.200  24.307   4.314  0.00  0.00    +0.000 A 
ATOM      6  C   UNL     1      24.235  24.963   3.593  0.00  0.00    +0.000 A 
ATOM      7  C   UNL     1      24.991  26.224   3.939  0.00  0.00    +0.000 A 
ATOM      8  C   UNL     1      24.494  26.536   4.983  0.00  0.00    +0.000 A 
ATOM      9  C   UNL     1      23.481  26.108   5.928  0.00  0.00    +0.000 A 
ENDBRANCH   1   5
BRANCH   2  10
ATOM     10  C   UNL     1      21.298  20.920   3.201  0.00  0.00    +0.000 A 
ATOM     11  C   UNL     1      21.881  20.068   2.265  0.00  0.00    +0.000 A 
ATOM     12  C   UNL     1      20.059  20.605   3.755  0.00  0.00    +0.000 A 
ATOM     13  C   UNL     1      21.223  18.901   1.882  0.00  0.00    +0.000 A 
ATOM     14  C   UNL     1      19.402  19.438   3.372  0.00  0.00    +0.000 A 
ATOM     15  C   UNL     1      19.985  18.586   2.436  0.00  0.00    +0.000 A 
ENDBRANCH   2  10
TORSDOF 2
ENDMDL
