MODEL 1
REMARK VINA RESULT:      -3.9      0.000      0.000
REMARK  Name = 649_Dihydrouracil.pdb
REMARK  0 active torsions:
REMARK  status: ('A' for Active; 'I' for Inactive)
REMARK                            x       y       z     vdW  Elec       q    Type
REMARK                         _______ _______ _______ _____ _____    ______ ____
ROOT
ATOM      1  O   UNL     1      43.222  -3.535  10.320  0.00  0.00    +0.000 OA
ATOM      2  O   UNL     1      42.488  -7.163  13.076  0.00  0.00    +0.000 OA
ATOM      3  N   UNL     1      41.217  -6.998  11.175  0.00  0.00    +0.000 N 
ATOM      4  N   UNL     1      42.838  -5.364  11.690  0.00  0.00    +0.000 N 
ATOM      5  C   UNL     1      40.894  -6.339  10.054  0.00  0.00    +0.000 A 
ATOM      6  C   UNL     1      41.594  -5.070   9.692  0.00  0.00    +0.000 A 
ATOM      7  C   UNL     1      42.617  -4.568  10.565  0.00  0.00    +0.000 A 
ATOM      8  C   UNL     1      42.199  -6.555  12.052  0.00  0.00    +0.000 A 
ATOM      9  H   UNL     1      40.737  -7.857  11.410  0.00  0.00    +0.000 HD
ATOM     10  H   UNL     1      43.550  -5.038  12.324  0.00  0.00    +0.000 HD
ENDROOT
TORSDOF 0
ENDMDL
MODEL 2
REMARK VINA RESULT:      -3.7     17.186     17.626
REMARK  Name = 649_Dihydrouracil.pdb
REMARK  0 active torsions:
REMARK  status: ('A' for Active; 'I' for Inactive)
REMARK                            x       y       z     vdW  Elec       q    Type
REMARK                         _______ _______ _______ _____ _____    ______ ____
ROOT
ATOM      1  O   UNL     1      26.253  -0.297  10.797  0.00  0.00    +0.000 OA
ATOM      2  O   UNL     1      23.209  -0.824  14.225  0.00  0.00    +0.000 OA
ATOM      3  N   UNL     1      25.088  -2.137  14.261  0.00  0.00    +0.000 N 
ATOM      4  N   UNL     1      24.738  -0.577  12.527  0.00  0.00    +0.000 N 
ATOM      5  C   UNL     1      26.249  -2.510  13.705  0.00  0.00    +0.000 A 
ATOM      6  C   UNL     1      26.724  -1.871  12.441  0.00  0.00    +0.000 A 
ATOM      7  C   UNL     1      25.915  -0.853  11.831  0.00  0.00    +0.000 A 
ATOM      8  C   UNL     1      24.270  -1.158  13.711  0.00  0.00    +0.000 A 
ATOM      9  H   UNL     1      24.777  -2.577  15.118  0.00  0.00    +0.000 HD
ATOM     10  H   UNL     1      24.147   0.134  12.125  0.00  0.00    +0.000 HD
ENDROOT
TORSDOF 0
ENDMDL
MODEL 3
REMARK VINA RESULT:      -3.7     13.432     14.129
REMARK  Name = 649_Dihydrouracil.pdb
REMARK  0 active torsions:
REMARK  status: ('A' for Active; 'I' for Inactive)
REMARK                            x       y       z     vdW  Elec       q    Type
REMARK                         _______ _______ _______ _____ _____    ______ ____
ROOT
ATOM      1  O   UNL     1      26.994  -6.004  13.283  0.00  0.00    +0.000 OA
ATOM      2  O   UNL     1      30.896  -3.813  14.408  0.00  0.00    +0.000 OA
ATOM      3  N   UNL     1      29.240  -2.586  13.404  0.00  0.00    +0.000 N 
ATOM      4  N   UNL     1      28.945  -4.885  13.840  0.00  0.00    +0.000 N 
ATOM      5  C   UNL     1      28.014  -2.520  12.867  0.00  0.00    +0.000 A 
ATOM      6  C   UNL     1      27.150  -3.737  12.797  0.00  0.00    +0.000 A 
ATOM      7  C   UNL     1      27.655  -4.978  13.315  0.00  0.00    +0.000 A 
ATOM      8  C   UNL     1      29.774  -3.761  13.918  0.00  0.00    +0.000 A 
ATOM      9  H   UNL     1      29.816  -1.755  13.447  0.00  0.00    +0.000 HD
ATOM     10  H   UNL     1      29.329  -5.740  14.211  0.00  0.00    +0.000 HD
ENDROOT
TORSDOF 0
ENDMDL
MODEL 4
REMARK VINA RESULT:      -3.7     32.726     33.316
REMARK  Name = 649_Dihydrouracil.pdb
REMARK  0 active torsions:
REMARK  status: ('A' for Active; 'I' for Inactive)
REMARK                            x       y       z     vdW  Elec       q    Type
REMARK                         _______ _______ _______ _____ _____    ______ ____
ROOT
ATOM      1  O   UNL     1      21.335  19.092  -0.312  0.00  0.00    +0.000 OA
ATOM      2  O   UNL     1      20.819  17.690   4.054  0.00  0.00    +0.000 OA
ATOM      3  N   UNL     1      22.367  19.329   3.640  0.00  0.00    +0.000 N 
ATOM      4  N   UNL     1      21.091  18.403   1.886  0.00  0.00    +0.000 N 
ATOM      5  C   UNL     1      22.995  20.135   2.772  0.00  0.00    +0.000 A 
ATOM      6  C   UNL     1      22.657  20.091   1.318  0.00  0.00    +0.000 A 
ATOM      7  C   UNL     1      21.650  19.172   0.865  0.00  0.00    +0.000 A 
ATOM      8  C   UNL     1      21.387  18.423   3.253  0.00  0.00    +0.000 A 
ATOM      9  H   UNL     1      22.604  19.367   4.623  0.00  0.00    +0.000 HD
ATOM     10  H   UNL     1      20.381  17.747   1.602  0.00  0.00    +0.000 HD
ENDROOT
TORSDOF 0
ENDMDL
MODEL 5
REMARK VINA RESULT:      -3.6     35.605     35.840
REMARK  Name = 649_Dihydrouracil.pdb
REMARK  0 active torsions:
REMARK  status: ('A' for Active; 'I' for Inactive)
REMARK                            x       y       z     vdW  Elec       q    Type
REMARK                         _______ _______ _______ _____ _____    ______ ____
ROOT
ATOM      1  O   UNL     1      13.850   5.938  28.522  0.00  0.00    +0.000 OA
ATOM      2  O   UNL     1      14.519  10.284  29.920  0.00  0.00    +0.000 OA
ATOM      3  N   UNL     1      14.349   9.907  27.664  0.00  0.00    +0.000 N 
ATOM      4  N   UNL     1      14.186   8.127  29.202  0.00  0.00    +0.000 N 
ATOM      5  C   UNL     1      14.179   9.056  26.644  0.00  0.00    +0.000 A 
ATOM      6  C   UNL     1      13.991   7.595  26.899  0.00  0.00    +0.000 A 
ATOM      7  C   UNL     1      13.997   7.120  28.255  0.00  0.00    +0.000 A 
ATOM      8  C   UNL     1      14.363   9.499  28.992  0.00  0.00    +0.000 A 
ATOM      9  H   UNL     1      14.474  10.894  27.480  0.00  0.00    +0.000 HD
ATOM     10  H   UNL     1      14.195   7.826  30.164  0.00  0.00    +0.000 HD
ENDROOT
TORSDOF 0
ENDMDL
MODEL 6
REMARK VINA RESULT:      -3.4     34.825     35.026
REMARK  Name = 649_Dihydrouracil.pdb
REMARK  0 active torsions:
REMARK  status: ('A' for Active; 'I' for Inactive)
REMARK                            x       y       z     vdW  Elec       q    Type
REMARK                         _______ _______ _______ _____ _____    ______ ____
ROOT
ATOM      1  O   UNL     1      22.510  11.412  30.677  0.00  0.00    +0.000 OA
ATOM      2  O   UNL     1      21.009  15.555  32.048  0.00  0.00    +0.000 OA
ATOM      3  N   UNL     1      21.831  14.138  33.653  0.00  0.00    +0.000 N 
ATOM      4  N   UNL     1      21.762  13.487  31.387  0.00  0.00    +0.000 N 
ATOM      5  C   UNL     1      22.367  12.956  33.987  0.00  0.00    +0.000 A 
ATOM      6  C   UNL     1      22.636  11.924  32.941  0.00  0.00    +0.000 A 
ATOM      7  C   UNL     1      22.312  12.219  31.573  0.00  0.00    +0.000 A 
ATOM      8  C   UNL     1      21.499  14.472  32.345  0.00  0.00    +0.000 A 
ATOM      9  H   UNL     1      21.653  14.830  34.369  0.00  0.00    +0.000 HD
ATOM     10  H   UNL     1      21.522  13.725  30.437  0.00  0.00    +0.000 HD
ENDROOT
TORSDOF 0
ENDMDL
MODEL 7
REMARK VINA RESULT:      -3.3     28.043     28.676
REMARK  Name = 649_Dihydrouracil.pdb
REMARK  0 active torsions:
REMARK  status: ('A' for Active; 'I' for Inactive)
REMARK                            x       y       z     vdW  Elec       q    Type
REMARK                         _______ _______ _______ _____ _____    ______ ____
ROOT
ATOM      1  O   UNL     1      14.377   6.409   6.647  0.00  0.00    +0.000 OA
ATOM      2  O   UNL     1      17.451   5.278   3.396  0.00  0.00    +0.000 OA
ATOM      3  N   UNL     1      18.246   5.737   5.497  0.00  0.00    +0.000 N 
ATOM      4  N   UNL     1      15.937   5.843   5.030  0.00  0.00    +0.000 N 
ATOM      5  C   UNL     1      18.015   6.085   6.770  0.00  0.00    +0.000 A 
ATOM      6  C   UNL     1      16.622   6.341   7.245  0.00  0.00    +0.000 A 
ATOM      7  C   UNL     1      15.535   6.210   6.315  0.00  0.00    +0.000 A 
ATOM      8  C   UNL     1      17.231   5.596   4.559  0.00  0.00    +0.000 A 
ATOM      9  H   UNL     1      19.194   5.565   5.187  0.00  0.00    +0.000 HD
ATOM     10  H   UNL     1      15.197   5.743   4.352  0.00  0.00    +0.000 HD
ENDROOT
TORSDOF 0
ENDMDL
MODEL 8
REMARK VINA RESULT:      -3.3     38.986     39.880
REMARK  Name = 649_Dihydrouracil.pdb
REMARK  0 active torsions:
REMARK  status: ('A' for Active; 'I' for Inactive)
REMARK                            x       y       z     vdW  Elec       q    Type
REMARK                         _______ _______ _______ _____ _____    ______ ____
ROOT
ATOM      1  O   UNL     1      30.840  32.586  23.171  0.00  0.00    +0.000 OA
ATOM      2  O   UNL     1      31.472  30.002  19.401  0.00  0.00    +0.000 OA
ATOM      3  N   UNL     1      33.335  30.854  20.430  0.00  0.00    +0.000 N 
ATOM      4  N   UNL     1      31.179  31.292  21.280  0.00  0.00    +0.000 N 
ATOM      5  C   UNL     1      33.882  31.580  21.413  0.00  0.00    +0.000 A 
ATOM      6  C   UNL     1      33.019  32.234  22.442  0.00  0.00    +0.000 A 
ATOM      7  C   UNL     1      31.594  32.073  22.358  0.00  0.00    +0.000 A 
ATOM      8  C   UNL     1      31.964  30.667  20.304  0.00  0.00    +0.000 A 
ATOM      9  H   UNL     1      33.930  30.414  19.738  0.00  0.00    +0.000 HD
ATOM     10  H   UNL     1      30.184  31.159  21.192  0.00  0.00    +0.000 HD
ENDROOT
TORSDOF 0
ENDMDL
MODEL 9
REMARK VINA RESULT:      -3.2     14.765     15.401
REMARK  Name = 649_Dihydrouracil.pdb
REMARK  0 active torsions:
REMARK  status: ('A' for Active; 'I' for Inactive)
REMARK                            x       y       z     vdW  Elec       q    Type
REMARK                         _______ _______ _______ _____ _____    ______ ____
ROOT
ATOM      1  O   UNL     1      29.083  -4.592  16.423  0.00  0.00    +0.000 OA
ATOM      2  O   UNL     1      28.230  -2.213  12.562  0.00  0.00    +0.000 OA
ATOM      3  N   UNL     1      26.544  -2.372  14.107  0.00  0.00    +0.000 N 
ATOM      4  N   UNL     1      28.634  -3.394  14.492  0.00  0.00    +0.000 N 
ATOM      5  C   UNL     1      26.095  -2.821  15.287  0.00  0.00    +0.000 A 
ATOM      6  C   UNL     1      26.980  -3.636  16.173  0.00  0.00    +0.000 A 
ATOM      7  C   UNL     1      28.317  -3.930  15.740  0.00  0.00    +0.000 A 
ATOM      8  C   UNL     1      27.828  -2.628  13.643  0.00  0.00    +0.000 A 
ATOM      9  H   UNL     1      25.936  -1.820  13.515  0.00  0.00    +0.000 HD
ATOM     10  H   UNL     1      29.567  -3.582  14.158  0.00  0.00    +0.000 HD
ENDROOT
TORSDOF 0
ENDMDL
