MODEL 1
REMARK VINA RESULT:     -10.8      0.000      0.000
REMARK  Name = 6509753_ManzamineA.pdbqt.pdb
REMARK  2 active torsions:
REMARK  status: ('A' for Active; 'I' for Inactive)
REMARK    1  A    between atoms: C_7  and  O_42
REMARK    2  A    between atoms: C_11  and  C_30
REMARK                            x       y       z     vdW  Elec       q    Type
REMARK                         _______ _______ _______ _____ _____    ______ ____
ROOT
ATOM      1  N   UNL     1      44.014  -5.617  12.258  0.00  0.00    +0.000 N 
ATOM      2  N   UNL     1      47.833  -2.706  10.921  0.00  0.00    +0.000 N 
ATOM      3  C   UNL     1      46.298  -4.552  12.505  0.00  0.00    +0.000 C 
ATOM      4  C   UNL     1      44.783  -4.513  12.888  0.00  0.00    +0.000 C 
ATOM      5  C   UNL     1      47.385  -4.517  13.657  0.00  0.00    +0.000 C 
ATOM      6  C   UNL     1      46.270  -5.861  11.857  0.00  0.00    +0.000 C 
ATOM      7  C   UNL     1      44.387  -4.089  14.305  0.00  0.00    +0.000 C 
ATOM      8  C   UNL     1      46.706  -3.505  11.503  0.00  0.00    +0.000 C 
ATOM      9  C   UNL     1      45.019  -6.402  11.506  0.00  0.00    +0.000 C 
ATOM     10  C   UNL     1      48.611  -3.871  13.260  0.00  0.00    +0.000 C 
ATOM     11  C   UNL     1      46.907  -4.359  15.023  0.00  0.00    +0.000 C 
ATOM     12  C   UNL     1      45.625  -4.168  15.054  0.00  0.00    +0.000 C 
ATOM     13  C   UNL     1      48.778  -3.004  12.008  0.00  0.00    +0.000 C 
ATOM     14  C   UNL     1      42.927  -5.117  11.412  0.00  0.00    +0.000 C 
ATOM     15  C   UNL     1      43.773  -2.765  14.289  0.00  0.00    +0.000 C 
ATOM     16  C   UNL     1      44.703  -7.022  10.261  0.00  0.00    +0.000 C 
ATOM     17  C   UNL     1      47.470  -1.301  11.003  0.00  0.00    +0.000 C 
ATOM     18  C   UNL     1      41.987  -5.024  10.195  0.00  0.00    +0.000 C 
ATOM     19  C   UNL     1      43.289  -1.316  14.202  0.00  0.00    +0.000 C 
ATOM     20  C   UNL     1      44.104  -7.212   9.237  0.00  0.00    +0.000 C 
ATOM     21  C   UNL     1      41.896  -5.732   8.845  0.00  0.00    +0.000 C 
ATOM     22  C   UNL     1      46.922   0.120  11.155  0.00  0.00    +0.000 C 
ATOM     23  C   UNL     1      42.899  -6.788   8.395  0.00  0.00    +0.000 C 
ATOM     24  C   UNL     1      43.237   0.167  13.845  0.00  0.00    +0.000 C 
ATOM     25  C   UNL     1      46.006   1.262  11.586  0.00  0.00    +0.000 C 
ATOM     26  C   UNL     1      44.779   1.696  12.371  0.00  0.00    +0.000 C 
ATOM     27  C   UNL     1      43.708   1.109  13.275  0.00  0.00    +0.000 C 
ENDROOT
BRANCH  11  30
ATOM     28  N   UNL     1      48.272  -3.029  16.523  0.00  0.00    +0.000 NA
ATOM     29  N   UNL     1      47.547  -6.629  16.971  0.00  0.00    +0.000 N 
ATOM     30  C   UNL     1      47.729  -4.228  16.217  0.00  0.00    +0.000 A 
ATOM     31  C   UNL     1      47.977  -5.324  17.042  0.00  0.00    +0.000 A 
ATOM     32  C   UNL     1      48.776  -5.218  18.181  0.00  0.00    +0.000 A 
ATOM     33  C   UNL     1      49.044  -2.934  17.627  0.00  0.00    +0.000 A 
ATOM     34  C   UNL     1      49.343  -3.973  18.497  0.00  0.00    +0.000 A 
ATOM     35  C   UNL     1      48.823  -6.508  18.794  0.00  0.00    +0.000 A 
ATOM     36  C   UNL     1      48.047  -7.366  18.018  0.00  0.00    +0.000 A 
ATOM     37  C   UNL     1      49.455  -7.020  19.943  0.00  0.00    +0.000 A 
ATOM     38  C   UNL     1      47.865  -8.717  18.328  0.00  0.00    +0.000 A 
ATOM     39  C   UNL     1      49.285  -8.368  20.269  0.00  0.00    +0.000 A 
ATOM     40  C   UNL     1      48.503  -9.197  19.473  0.00  0.00    +0.000 A 
ATOM     41  H   UNL     1      46.937  -6.998  16.254  0.00  0.00    +0.000 HD
ENDBRANCH  11  30
BRANCH   7  42
ATOM     42  O   UNL     1      43.475  -5.016  14.875  0.00  0.00    +0.000 OA
ATOM     43  H   UNL     1      43.761  -5.143  15.796  0.00  0.00    +0.000 HD
ENDBRANCH   7  42
TORSDOF 2
ENDMDL
MODEL 2
REMARK VINA RESULT:     -10.3      1.255      3.210
REMARK  Name = 6509753_ManzamineA.pdbqt.pdb
REMARK  2 active torsions:
REMARK  status: ('A' for Active; 'I' for Inactive)
REMARK    1  A    between atoms: C_7  and  O_42
REMARK    2  A    between atoms: C_11  and  C_30
REMARK                            x       y       z     vdW  Elec       q    Type
REMARK                         _______ _______ _______ _____ _____    ______ ____
ROOT
ATOM      1  N   UNL     1      43.971  -5.622  12.163  0.00  0.00    +0.000 N 
ATOM      2  N   UNL     1      47.901  -2.933  10.690  0.00  0.00    +0.000 N 
ATOM      3  C   UNL     1      46.326  -4.704  12.320  0.00  0.00    +0.000 C 
ATOM      4  C   UNL     1      44.834  -4.577  12.772  0.00  0.00    +0.000 C 
ATOM      5  C   UNL     1      47.463  -4.751  13.422  0.00  0.00    +0.000 C 
ATOM      6  C   UNL     1      46.188  -5.998  11.659  0.00  0.00    +0.000 C 
ATOM      7  C   UNL     1      44.529  -4.150  14.210  0.00  0.00    +0.000 C 
ATOM      8  C   UNL     1      46.753  -3.669  11.313  0.00  0.00    +0.000 C 
ATOM      9  C   UNL     1      44.891  -6.456  11.358  0.00  0.00    +0.000 C 
ATOM     10  C   UNL     1      48.707  -4.177  12.978  0.00  0.00    +0.000 C 
ATOM     11  C   UNL     1      47.056  -4.585  14.810  0.00  0.00    +0.000 C 
ATOM     12  C   UNL     1      45.791  -4.316  14.901  0.00  0.00    +0.000 C 
ATOM     13  C   UNL     1      48.873  -3.303  11.730  0.00  0.00    +0.000 C 
ATOM     14  C   UNL     1      42.881  -5.044  11.374  0.00  0.00    +0.000 C 
ATOM     15  C   UNL     1      43.998  -2.790  14.236  0.00  0.00    +0.000 C 
ATOM     16  C   UNL     1      44.483  -7.038  10.121  0.00  0.00    +0.000 C 
ATOM     17  C   UNL     1      47.630  -1.509  10.805  0.00  0.00    +0.000 C 
ATOM     18  C   UNL     1      41.896  -4.876  10.202  0.00  0.00    +0.000 C 
ATOM     19  C   UNL     1      43.602  -1.313  14.189  0.00  0.00    +0.000 C 
ATOM     20  C   UNL     1      43.828  -7.176   9.123  0.00  0.00    +0.000 C 
ATOM     21  C   UNL     1      41.701  -5.558   8.848  0.00  0.00    +0.000 C 
ATOM     22  C   UNL     1      47.179  -0.059  10.998  0.00  0.00    +0.000 C 
ATOM     23  C   UNL     1      42.616  -6.667   8.341  0.00  0.00    +0.000 C 
ATOM     24  C   UNL     1      43.626   0.175  13.851  0.00  0.00    +0.000 C 
ATOM     25  C   UNL     1      46.355   1.130  11.483  0.00  0.00    +0.000 C 
ATOM     26  C   UNL     1      45.193   1.627  12.328  0.00  0.00    +0.000 C 
ATOM     27  C   UNL     1      44.129   1.094  13.272  0.00  0.00    +0.000 C 
ENDROOT
BRANCH  11  30
ATOM     28  N   UNL     1      48.257  -5.661  16.622  0.00  0.00    +0.000 NA
ATOM     29  N   UNL     1      48.292  -2.024  15.939  0.00  0.00    +0.000 N 
ATOM     30  C   UNL     1      47.937  -4.522  15.968  0.00  0.00    +0.000 A 
ATOM     31  C   UNL     1      48.445  -3.306  16.418  0.00  0.00    +0.000 A 
ATOM     32  C   UNL     1      49.279  -3.228  17.535  0.00  0.00    +0.000 A 
ATOM     33  C   UNL     1      49.064  -5.577  17.702  0.00  0.00    +0.000 A 
ATOM     34  C   UNL     1      49.608  -4.409  18.217  0.00  0.00    +0.000 A 
ATOM     35  C   UNL     1      49.619  -1.852  17.722  0.00  0.00    +0.000 A 
ATOM     36  C   UNL     1      48.990  -1.127  16.712  0.00  0.00    +0.000 A 
ATOM     37  C   UNL     1      50.409  -1.162  18.659  0.00  0.00    +0.000 A 
ATOM     38  C   UNL     1      49.108   0.260  16.585  0.00  0.00    +0.000 A 
ATOM     39  C   UNL     1      50.538   0.225  18.550  0.00  0.00    +0.000 A 
ATOM     40  C   UNL     1      49.898   0.919  17.529  0.00  0.00    +0.000 A 
ATOM     41  H   UNL     1      47.750  -1.774  15.123  0.00  0.00    +0.000 HD
ENDBRANCH  11  30
BRANCH   7  42
ATOM     42  O   UNL     1      43.587  -5.027  14.809  0.00  0.00    +0.000 OA
ATOM     43  H   UNL     1      43.015  -4.470  15.364  0.00  0.00    +0.000 HD
ENDBRANCH   7  42
TORSDOF 2
ENDMDL
MODEL 3
REMARK VINA RESULT:      -9.6     17.612     20.020
REMARK  Name = 6509753_ManzamineA.pdbqt.pdb
REMARK  2 active torsions:
REMARK  status: ('A' for Active; 'I' for Inactive)
REMARK    1  A    between atoms: C_7  and  O_42
REMARK    2  A    between atoms: C_11  and  C_30
REMARK                            x       y       z     vdW  Elec       q    Type
REMARK                         _______ _______ _______ _____ _____    ______ ____
ROOT
ATOM      1  N   UNL     1      26.800  -2.670  14.882  0.00  0.00    +0.000 N 
ATOM      2  N   UNL     1      23.937  -6.743  14.636  0.00  0.00    +0.000 N 
ATOM      3  C   UNL     1      25.883  -4.895  15.670  0.00  0.00    +0.000 C 
ATOM      4  C   UNL     1      27.030  -4.137  14.925  0.00  0.00    +0.000 C 
ATOM      5  C   UNL     1      26.256  -5.895  16.841  0.00  0.00    +0.000 C 
ATOM      6  C   UNL     1      25.214  -3.707  16.193  0.00  0.00    +0.000 C 
ATOM      7  C   UNL     1      28.471  -4.627  15.088  0.00  0.00    +0.000 C 
ATOM      8  C   UNL     1      24.945  -5.639  14.758  0.00  0.00    +0.000 C 
ATOM      9  C   UNL     1      25.541  -2.459  15.632  0.00  0.00    +0.000 C 
ATOM     10  C   UNL     1      25.331  -6.993  16.964  0.00  0.00    +0.000 C 
ATOM     11  C   UNL     1      27.670  -6.120  17.104  0.00  0.00    +0.000 C 
ATOM     12  C   UNL     1      28.413  -5.514  16.232  0.00  0.00    +0.000 C 
ATOM     13  C   UNL     1      24.295  -7.388  15.907  0.00  0.00    +0.000 C 
ATOM     14  C   UNL     1      26.743  -2.161  13.510  0.00  0.00    +0.000 C 
ATOM     15  C   UNL     1      28.938  -5.257  13.856  0.00  0.00    +0.000 C 
ATOM     16  C   UNL     1      24.608  -1.448  15.254  0.00  0.00    +0.000 C 
ATOM     17  C   UNL     1      24.358  -7.610  13.548  0.00  0.00    +0.000 C 
ATOM     18  C   UNL     1      26.250  -1.328  12.312  0.00  0.00    +0.000 C 
ATOM     19  C   UNL     1      29.290  -6.038  12.588  0.00  0.00    +0.000 C 
ATOM     20  C   UNL     1      24.060  -0.658  14.534  0.00  0.00    +0.000 C 
ATOM     21  C   UNL     1      25.097  -0.354  12.074  0.00  0.00    +0.000 C 
ATOM     22  C   UNL     1      24.940  -8.400  12.373  0.00  0.00    +0.000 C 
ATOM     23  C   UNL     1      24.061  -0.023  13.142  0.00  0.00    +0.000 C 
ATOM     24  C   UNL     1      29.186  -7.023  11.427  0.00  0.00    +0.000 C 
ATOM     25  C   UNL     1      25.923  -8.841  11.293  0.00  0.00    +0.000 C 
ATOM     26  C   UNL     1      27.291  -8.666  10.654  0.00  0.00    +0.000 C 
ATOM     27  C   UNL     1      28.560  -7.848  10.826  0.00  0.00    +0.000 C 
ENDROOT
BRANCH  11  30
ATOM     28  N   UNL     1      28.622  -6.586  19.286  0.00  0.00    +0.000 NA
ATOM     29  N   UNL     1      28.064  -9.119  16.647  0.00  0.00    +0.000 N 
ATOM     30  C   UNL     1      28.231  -7.047  18.076  0.00  0.00    +0.000 A 
ATOM     31  C   UNL     1      28.384  -8.398  17.775  0.00  0.00    +0.000 A 
ATOM     32  C   UNL     1      28.935  -9.296  18.691  0.00  0.00    +0.000 A 
ATOM     33  C   UNL     1      29.154  -7.461  20.167  0.00  0.00    +0.000 A 
ATOM     34  C   UNL     1      29.344  -8.818  19.945  0.00  0.00    +0.000 A 
ATOM     35  C   UNL     1      28.946 -10.586  18.075  0.00  0.00    +0.000 A 
ATOM     36  C   UNL     1      28.397 -10.444  16.802  0.00  0.00    +0.000 A 
ATOM     37  C   UNL     1      29.372 -11.861  18.490  0.00  0.00    +0.000 A 
ATOM     38  C   UNL     1      28.248 -11.513  15.914  0.00  0.00    +0.000 A 
ATOM     39  C   UNL     1      29.232 -12.943  17.616  0.00  0.00    +0.000 A 
ATOM     40  C   UNL     1      28.679 -12.767  16.353  0.00  0.00    +0.000 A 
ATOM     41  H   UNL     1      27.633  -8.733  15.818  0.00  0.00    +0.000 HD
ENDBRANCH  11  30
BRANCH   7  42
ATOM     42  O   UNL     1      29.338  -3.552  15.416  0.00  0.00    +0.000 OA
ATOM     43  H   UNL     1      28.763  -2.788  15.595  0.00  0.00    +0.000 HD
ENDBRANCH   7  42
TORSDOF 2
ENDMDL
MODEL 4
REMARK VINA RESULT:      -9.5     34.782     38.724
REMARK  Name = 6509753_ManzamineA.pdbqt.pdb
REMARK  2 active torsions:
REMARK  status: ('A' for Active; 'I' for Inactive)
REMARK    1  A    between atoms: C_7  and  O_42
REMARK    2  A    between atoms: C_11  and  C_30
REMARK                            x       y       z     vdW  Elec       q    Type
REMARK                         _______ _______ _______ _____ _____    ______ ____
ROOT
ATOM      1  N   UNL     1      24.933  22.258  -1.398  0.00  0.00    +0.000 N 
ATOM      2  N   UNL     1      22.735  25.245   1.932  0.00  0.00    +0.000 N 
ATOM      3  C   UNL     1      23.817  22.832   0.801  0.00  0.00    +0.000 C 
ATOM      4  C   UNL     1      23.655  22.250  -0.641  0.00  0.00    +0.000 C 
ATOM      5  C   UNL     1      23.301  21.985   2.036  0.00  0.00    +0.000 C 
ATOM      6  C   UNL     1      25.275  22.898   0.789  0.00  0.00    +0.000 C 
ATOM      7  C   UNL     1      22.704  21.071  -0.862  0.00  0.00    +0.000 C 
ATOM      8  C   UNL     1      23.254  24.217   0.971  0.00  0.00    +0.000 C 
ATOM      9  C   UNL     1      25.935  22.795  -0.450  0.00  0.00    +0.000 C 
ATOM     10  C   UNL     1      22.847  22.801   3.133  0.00  0.00    +0.000 C 
ATOM     11  C   UNL     1      22.616  20.732   1.748  0.00  0.00    +0.000 C 
ATOM     12  C   UNL     1      22.452  20.567   0.473  0.00  0.00    +0.000 C 
ATOM     13  C   UNL     1      22.553  24.302   3.046  0.00  0.00    +0.000 C 
ATOM     14  C   UNL     1      24.836  23.039  -2.634  0.00  0.00    +0.000 C 
ATOM     15  C   UNL     1      21.510  21.505  -1.580  0.00  0.00    +0.000 C 
ATOM     16  C   UNL     1      27.010  23.624  -0.890  0.00  0.00    +0.000 C 
ATOM     17  C   UNL     1      21.423  25.665   1.469  0.00  0.00    +0.000 C 
ATOM     18  C   UNL     1      25.258  24.020  -3.743  0.00  0.00    +0.000 C 
ATOM     19  C   UNL     1      20.228  22.074  -2.191  0.00  0.00    +0.000 C 
ATOM     20  C   UNL     1      27.607  24.375  -1.613  0.00  0.00    +0.000 C 
ATOM     21  C   UNL     1      26.451  24.948  -3.969  0.00  0.00    +0.000 C 
ATOM     22  C   UNL     1      20.071  25.996   0.832  0.00  0.00    +0.000 C 
ATOM     23  C   UNL     1      27.580  25.104  -2.958  0.00  0.00    +0.000 C 
ATOM     24  C   UNL     1      19.015  22.973  -2.417  0.00  0.00    +0.000 C 
ATOM     25  C   UNL     1      18.870  25.905  -0.104  0.00  0.00    +0.000 C 
ATOM     26  C   UNL     1      18.180  25.163  -1.237  0.00  0.00    +0.000 C 
ATOM     27  C   UNL     1      18.373  23.937  -2.113  0.00  0.00    +0.000 C 
ENDROOT
BRANCH  11  30
ATOM     28  N   UNL     1      22.779  18.993   3.431  0.00  0.00    +0.000 NA
ATOM     29  N   UNL     1      19.620  20.591   2.353  0.00  0.00    +0.000 N 
ATOM     30  C   UNL     1      22.001  19.840   2.721  0.00  0.00    +0.000 A 
ATOM     31  C   UNL     1      20.622  19.838   2.921  0.00  0.00    +0.000 A 
ATOM     32  C   UNL     1      20.016  18.978   3.839  0.00  0.00    +0.000 A 
ATOM     33  C   UNL     1      22.185  18.164   4.318  0.00  0.00    +0.000 A 
ATOM     34  C   UNL     1      20.823  18.095   4.574  0.00  0.00    +0.000 A 
ATOM     35  C   UNL     1      18.610  19.230   3.800  0.00  0.00    +0.000 A 
ATOM     36  C   UNL     1      18.394  20.240   2.865  0.00  0.00    +0.000 A 
ATOM     37  C   UNL     1      17.503  18.690   4.480  0.00  0.00    +0.000 A 
ATOM     38  C   UNL     1      17.124  20.746   2.570  0.00  0.00    +0.000 A 
ATOM     39  C   UNL     1      16.226  19.181   4.199  0.00  0.00    +0.000 A 
ATOM     40  C   UNL     1      16.045  20.192   3.261  0.00  0.00    +0.000 A 
ATOM     41  H   UNL     1      19.764  21.313   1.660  0.00  0.00    +0.000 HD
ENDBRANCH  11  30
BRANCH   7  42
ATOM     42  O   UNL     1      23.341  20.039  -1.602  0.00  0.00    +0.000 OA
ATOM     43  H   UNL     1      24.185  19.867  -1.151  0.00  0.00    +0.000 HD
ENDBRANCH   7  42
TORSDOF 2
ENDMDL
MODEL 5
REMARK VINA RESULT:      -9.4      3.981      7.810
REMARK  Name = 6509753_ManzamineA.pdbqt.pdb
REMARK  2 active torsions:
REMARK  status: ('A' for Active; 'I' for Inactive)
REMARK    1  A    between atoms: C_7  and  O_42
REMARK    2  A    between atoms: C_11  and  C_30
REMARK                            x       y       z     vdW  Elec       q    Type
REMARK                         _______ _______ _______ _____ _____    ______ ____
ROOT
ATOM      1  N   UNL     1      44.408  -2.188  12.443  0.00  0.00    +0.000 N 
ATOM      2  N   UNL     1      48.803  -1.999  14.787  0.00  0.00    +0.000 N 
ATOM      3  C   UNL     1      46.204  -1.150  13.895  0.00  0.00    +0.000 C 
ATOM      4  C   UNL     1      45.558  -1.248  12.475  0.00  0.00    +0.000 C 
ATOM      5  C   UNL     1      46.412   0.278  14.550  0.00  0.00    +0.000 C 
ATOM      6  C   UNL     1      45.167  -1.898  14.600  0.00  0.00    +0.000 C 
ATOM      7  C   UNL     1      45.471   0.013  11.612  0.00  0.00    +0.000 C 
ATOM      8  C   UNL     1      47.518  -1.872  14.024  0.00  0.00    +0.000 C 
ATOM      9  C   UNL     1      44.268  -2.667  13.836  0.00  0.00    +0.000 C 
ATOM     10  C   UNL     1      47.558   0.341  15.421  0.00  0.00    +0.000 C 
ATOM     11  C   UNL     1      46.065   1.440  13.744  0.00  0.00    +0.000 C 
ATOM     12  C   UNL     1      45.724   1.095  12.542  0.00  0.00    +0.000 C 
ATOM     13  C   UNL     1      48.672  -0.709  15.480  0.00  0.00    +0.000 C 
ATOM     14  C   UNL     1      44.611  -3.273  11.481  0.00  0.00    +0.000 C 
ATOM     15  C   UNL     1      46.414  -0.062  10.501  0.00  0.00    +0.000 C 
ATOM     16  C   UNL     1      43.862  -4.003  14.129  0.00  0.00    +0.000 C 
ATOM     17  C   UNL     1      49.897  -1.897  13.835  0.00  0.00    +0.000 C 
ATOM     18  C   UNL     1      44.590  -4.705  10.913  0.00  0.00    +0.000 C 
ATOM     19  C   UNL     1      47.536  -0.152   9.464  0.00  0.00    +0.000 C 
ATOM     20  C   UNL     1      43.680  -5.175  13.935  0.00  0.00    +0.000 C 
ATOM     21  C   UNL     1      44.218  -6.080  11.463  0.00  0.00    +0.000 C 
ATOM     22  C   UNL     1      50.917  -1.784  12.698  0.00  0.00    +0.000 C 
ATOM     23  C   UNL     1      43.769  -6.301  12.903  0.00  0.00    +0.000 C 
ATOM     24  C   UNL     1      48.918  -0.363   8.851  0.00  0.00    +0.000 C 
ATOM     25  C   UNL     1      51.480  -1.547  11.300  0.00  0.00    +0.000 C 
ATOM     26  C   UNL     1      51.213  -1.137   9.861  0.00  0.00    +0.000 C 
ATOM     27  C   UNL     1      50.069  -0.667   8.979  0.00  0.00    +0.000 C 
ENDROOT
BRANCH  11  30
ATOM     28  N   UNL     1      47.188   3.575  13.494  0.00  0.00    +0.000 NA
ATOM     29  N   UNL     1      44.447   2.905  15.888  0.00  0.00    +0.000 N 
ATOM     30  C   UNL     1      46.244   2.836  14.118  0.00  0.00    +0.000 A 
ATOM     31  C   UNL     1      45.467   3.416  15.117  0.00  0.00    +0.000 A 
ATOM     32  C   UNL     1      45.637   4.749  15.498  0.00  0.00    +0.000 A 
ATOM     33  C   UNL     1      47.347   4.864  13.868  0.00  0.00    +0.000 A 
ATOM     34  C   UNL     1      46.620   5.516  14.853  0.00  0.00    +0.000 A 
ATOM     35  C   UNL     1      44.691   5.024  16.533  0.00  0.00    +0.000 A 
ATOM     36  C   UNL     1      43.964   3.856  16.754  0.00  0.00    +0.000 A 
ATOM     37  C   UNL     1      44.388   6.165  17.299  0.00  0.00    +0.000 A 
ATOM     38  C   UNL     1      42.942   3.764  17.704  0.00  0.00    +0.000 A 
ATOM     39  C   UNL     1      43.371   6.093  18.254  0.00  0.00    +0.000 A 
ATOM     40  C   UNL     1      42.663   4.912  18.449  0.00  0.00    +0.000 A 
ATOM     41  H   UNL     1      44.092   1.961  15.822  0.00  0.00    +0.000 HD
ENDBRANCH  11  30
BRANCH   7  42
ATOM     42  O   UNL     1      44.159   0.183  11.095  0.00  0.00    +0.000 OA
ATOM     43  H   UNL     1      43.702   0.780  11.712  0.00  0.00    +0.000 HD
ENDBRANCH   7  42
TORSDOF 2
ENDMDL
MODEL 6
REMARK VINA RESULT:      -9.4     19.469     22.838
REMARK  Name = 6509753_ManzamineA.pdbqt.pdb
REMARK  2 active torsions:
REMARK  status: ('A' for Active; 'I' for Inactive)
REMARK    1  A    between atoms: C_7  and  O_42
REMARK    2  A    between atoms: C_11  and  C_30
REMARK                            x       y       z     vdW  Elec       q    Type
REMARK                         _______ _______ _______ _____ _____    ______ ____
ROOT
ATOM      1  N   UNL     1      21.583  -4.070  12.424  0.00  0.00    +0.000 N 
ATOM      2  N   UNL     1      22.165  -2.133  16.980  0.00  0.00    +0.000 N 
ATOM      3  C   UNL     1      22.878  -3.065  14.354  0.00  0.00    +0.000 C 
ATOM      4  C   UNL     1      22.436  -4.364  13.605  0.00  0.00    +0.000 C 
ATOM      5  C   UNL     1      24.416  -2.836  14.656  0.00  0.00    +0.000 C 
ATOM      6  C   UNL     1      22.401  -2.123  13.345  0.00  0.00    +0.000 C 
ATOM      7  C   UNL     1      23.421  -5.531  13.499  0.00  0.00    +0.000 C 
ATOM      8  C   UNL     1      22.150  -2.824  15.649  0.00  0.00    +0.000 C 
ATOM      9  C   UNL     1      21.504  -2.593  12.368  0.00  0.00    +0.000 C 
ATOM     10  C   UNL     1      24.651  -2.085  15.863  0.00  0.00    +0.000 C 
ATOM     11  C   UNL     1      25.336  -3.905  14.292  0.00  0.00    +0.000 C 
ATOM     12  C   UNL     1      24.698  -4.946  13.854  0.00  0.00    +0.000 C 
ATOM     13  C   UNL     1      23.599  -1.810  16.943  0.00  0.00    +0.000 C 
ATOM     14  C   UNL     1      20.270  -4.712  12.520  0.00  0.00    +0.000 C 
ATOM     15  C   UNL     1      23.001  -6.634  14.357  0.00  0.00    +0.000 C 
ATOM     16  C   UNL     1      20.319  -1.925  11.939  0.00  0.00    +0.000 C 
ATOM     17  C   UNL     1      21.950  -3.141  18.005  0.00  0.00    +0.000 C 
ATOM     18  C   UNL     1      18.741  -4.868  12.411  0.00  0.00    +0.000 C 
ATOM     19  C   UNL     1      22.577  -7.672  15.398  0.00  0.00    +0.000 C 
ATOM     20  C   UNL     1      19.149  -1.783  11.704  0.00  0.00    +0.000 C 
ATOM     21  C   UNL     1      17.586  -3.943  12.032  0.00  0.00    +0.000 C 
ATOM     22  C   UNL     1      21.701  -4.325  18.944  0.00  0.00    +0.000 C 
ATOM     23  C   UNL     1      17.784  -2.473  11.680  0.00  0.00    +0.000 C 
ATOM     24  C   UNL     1      22.138  -8.287  16.725  0.00  0.00    +0.000 C 
ATOM     25  C   UNL     1      21.524  -5.765  19.414  0.00  0.00    +0.000 C 
ATOM     26  C   UNL     1      21.545  -7.243  19.058  0.00  0.00    +0.000 C 
ATOM     27  C   UNL     1      21.820  -8.150  17.871  0.00  0.00    +0.000 C 
ENDROOT
BRANCH  11  30
ATOM     28  N   UNL     1      27.607  -3.295  13.700  0.00  0.00    +0.000 NA
ATOM     29  N   UNL     1      26.674  -5.339  16.640  0.00  0.00    +0.000 N 
ATOM     30  C   UNL     1      26.769  -3.936  14.545  0.00  0.00    +0.000 A 
ATOM     31  C   UNL     1      27.291  -4.627  15.636  0.00  0.00    +0.000 A 
ATOM     32  C   UNL     1      28.663  -4.678  15.884  0.00  0.00    +0.000 A 
ATOM     33  C   UNL     1      28.935  -3.349  13.946  0.00  0.00    +0.000 A 
ATOM     34  C   UNL     1      29.535  -4.016  15.005  0.00  0.00    +0.000 A 
ATOM     35  C   UNL     1      28.858  -5.455  17.067  0.00  0.00    +0.000 A 
ATOM     36  C   UNL     1      27.600  -5.853  17.515  0.00  0.00    +0.000 A 
ATOM     37  C   UNL     1      29.993  -5.851  17.798  0.00  0.00    +0.000 A 
ATOM     38  C   UNL     1      27.412  -6.630  18.662  0.00  0.00    +0.000 A 
ATOM     39  C   UNL     1      29.826  -6.629  18.946  0.00  0.00    +0.000 A 
ATOM     40  C   UNL     1      28.556  -7.008  19.367  0.00  0.00    +0.000 A 
ATOM     41  H   UNL     1      25.675  -5.462  16.730  0.00  0.00    +0.000 HD
ENDBRANCH  11  30
BRANCH   7  42
ATOM     42  O   UNL     1      23.514  -5.994  12.160  0.00  0.00    +0.000 OA
ATOM     43  H   UNL     1      23.168  -5.277  11.602  0.00  0.00    +0.000 HD
ENDBRANCH   7  42
TORSDOF 2
ENDMDL
MODEL 7
REMARK VINA RESULT:      -9.3     20.014     23.588
REMARK  Name = 6509753_ManzamineA.pdbqt.pdb
REMARK  2 active torsions:
REMARK  status: ('A' for Active; 'I' for Inactive)
REMARK    1  A    between atoms: C_7  and  O_42
REMARK    2  A    between atoms: C_11  and  C_30
REMARK                            x       y       z     vdW  Elec       q    Type
REMARK                         _______ _______ _______ _____ _____    ______ ____
ROOT
ATOM      1  N   UNL     1      26.929  -5.444  15.149  0.00  0.00    +0.000 N 
ATOM      2  N   UNL     1      24.374  -1.268  14.213  0.00  0.00    +0.000 N 
ATOM      3  C   UNL     1      25.455  -3.466  15.720  0.00  0.00    +0.000 C 
ATOM      4  C   UNL     1      25.531  -4.983  15.351  0.00  0.00    +0.000 C 
ATOM      5  C   UNL     1      24.640  -3.027  17.006  0.00  0.00    +0.000 C 
ATOM      6  C   UNL     1      26.888  -3.274  15.923  0.00  0.00    +0.000 C 
ATOM      7  C   UNL     1      24.549  -5.957  16.008  0.00  0.00    +0.000 C 
ATOM      8  C   UNL     1      24.985  -2.583  14.596  0.00  0.00    +0.000 C 
ATOM      9  C   UNL     1      27.767  -4.256  15.428  0.00  0.00    +0.000 C 
ATOM     10  C   UNL     1      24.048  -1.718  16.882  0.00  0.00    +0.000 C 
ATOM     11  C   UNL     1      23.925  -4.067  17.732  0.00  0.00    +0.000 C 
ATOM     12  C   UNL     1      24.001  -5.206  17.119  0.00  0.00    +0.000 C 
ATOM     13  C   UNL     1      23.901  -0.945  15.568  0.00  0.00    +0.000 C 
ATOM     14  C   UNL     1      27.139  -5.992  13.806  0.00  0.00    +0.000 C 
ATOM     15  C   UNL     1      23.558  -6.414  15.039  0.00  0.00    +0.000 C 
ATOM     16  C   UNL     1      28.971  -4.005  14.705  0.00  0.00    +0.000 C 
ATOM     17  C   UNL     1      23.216  -1.542  13.378  0.00  0.00    +0.000 C 
ATOM     18  C   UNL     1      27.849  -6.263  12.466  0.00  0.00    +0.000 C 
ATOM     19  C   UNL     1      22.470  -6.715  14.005  0.00  0.00    +0.000 C 
ATOM     20  C   UNL     1      29.757  -4.080  13.800  0.00  0.00    +0.000 C 
ATOM     21  C   UNL     1      29.134  -5.769  11.805  0.00  0.00    +0.000 C 
ATOM     22  C   UNL     1      22.046  -2.011  12.510  0.00  0.00    +0.000 C 
ATOM     23  C   UNL     1      30.053  -4.738  12.450  0.00  0.00    +0.000 C 
ATOM     24  C   UNL     1      21.402  -6.508  12.935  0.00  0.00    +0.000 C 
ATOM     25  C   UNL     1      21.048  -2.952  11.841  0.00  0.00    +0.000 C 
ATOM     26  C   UNL     1      20.535  -4.373  11.680  0.00  0.00    +0.000 C 
ATOM     27  C   UNL     1      20.795  -5.772  12.211  0.00  0.00    +0.000 C 
ENDROOT
BRANCH  11  30
ATOM     28  N   UNL     1      23.587  -3.948  20.131  0.00  0.00    +0.000 NA
ATOM     29  N   UNL     1      20.922  -3.496  17.604  0.00  0.00    +0.000 N 
ATOM     30  C   UNL     1      23.061  -3.875  18.888  0.00  0.00    +0.000 A 
ATOM     31  C   UNL     1      21.698  -3.630  18.733  0.00  0.00    +0.000 A 
ATOM     32  C   UNL     1      20.854  -3.460  19.832  0.00  0.00    +0.000 A 
ATOM     33  C   UNL     1      22.764  -3.782  21.190  0.00  0.00    +0.000 A 
ATOM     34  C   UNL     1      21.399  -3.539  21.123  0.00  0.00    +0.000 A 
ATOM     35  C   UNL     1      19.537  -3.227  19.329  0.00  0.00    +0.000 A 
ATOM     36  C   UNL     1      19.611  -3.255  17.938  0.00  0.00    +0.000 A 
ATOM     37  C   UNL     1      18.289  -2.991  19.936  0.00  0.00    +0.000 A 
ATOM     38  C   UNL     1      18.499  -3.058  17.113  0.00  0.00    +0.000 A 
ATOM     39  C   UNL     1      17.166  -2.793  19.128  0.00  0.00    +0.000 A 
ATOM     40  C   UNL     1      17.275  -2.826  17.742  0.00  0.00    +0.000 A 
ATOM     41  H   UNL     1      21.267  -3.556  16.656  0.00  0.00    +0.000 HD
ENDBRANCH  11  30
BRANCH   7  42
ATOM     42  O   UNL     1      25.231  -7.083  16.539  0.00  0.00    +0.000 OA
ATOM     43  H   UNL     1      25.262  -6.949  17.502  0.00  0.00    +0.000 HD
ENDBRANCH   7  42
TORSDOF 2
ENDMDL
MODEL 8
REMARK VINA RESULT:      -8.9      3.704      7.431
REMARK  Name = 6509753_ManzamineA.pdbqt.pdb
REMARK  2 active torsions:
REMARK  status: ('A' for Active; 'I' for Inactive)
REMARK    1  A    between atoms: C_7  and  O_42
REMARK    2  A    between atoms: C_11  and  C_30
REMARK                            x       y       z     vdW  Elec       q    Type
REMARK                         _______ _______ _______ _____ _____    ______ ____
ROOT
ATOM      1  N   UNL     1      49.389  -1.087   9.539  0.00  0.00    +0.000 N 
ATOM      2  N   UNL     1      50.374  -1.448  14.412  0.00  0.00    +0.000 N 
ATOM      3  C   UNL     1      49.028  -1.898  11.910  0.00  0.00    +0.000 C 
ATOM      4  C   UNL     1      48.628  -0.876  10.797  0.00  0.00    +0.000 C 
ATOM      5  C   UNL     1      47.891  -2.730  12.636  0.00  0.00    +0.000 C 
ATOM      6  C   UNL     1      49.839  -2.761  11.056  0.00  0.00    +0.000 C 
ATOM      7  C   UNL     1      47.165  -0.441  10.680  0.00  0.00    +0.000 C 
ATOM      8  C   UNL     1      49.890  -1.316  12.998  0.00  0.00    +0.000 C 
ATOM      9  C   UNL     1      50.245  -2.265   9.804  0.00  0.00    +0.000 C 
ATOM     10  C   UNL     1      48.213  -3.057  14.002  0.00  0.00    +0.000 C 
ATOM     11  C   UNL     1      46.511  -2.427  12.282  0.00  0.00    +0.000 C 
ATOM     12  C   UNL     1      46.444  -1.418  11.471  0.00  0.00    +0.000 C 
ATOM     13  C   UNL     1      49.344  -2.417  14.813  0.00  0.00    +0.000 C 
ATOM     14  C   UNL     1      50.152   0.101   9.150  0.00  0.00    +0.000 C 
ATOM     15  C   UNL     1      47.004   0.938  11.129  0.00  0.00    +0.000 C 
ATOM     16  C   UNL     1      51.557  -2.374   9.253  0.00  0.00    +0.000 C 
ATOM     17  C   UNL     1      50.109  -0.190  15.091  0.00  0.00    +0.000 C 
ATOM     18  C   UNL     1      51.338   0.932   8.625  0.00  0.00    +0.000 C 
ATOM     19  C   UNL     1      46.898   2.327  11.763  0.00  0.00    +0.000 C 
ATOM     20  C   UNL     1      52.591  -1.999   8.769  0.00  0.00    +0.000 C 
ATOM     21  C   UNL     1      52.768   0.618   8.188  0.00  0.00    +0.000 C 
ATOM     22  C   UNL     1      49.769   1.198  15.640  0.00  0.00    +0.000 C 
ATOM     23  C   UNL     1      53.360  -0.786   8.243  0.00  0.00    +0.000 C 
ATOM     24  C   UNL     1      47.061   3.473  12.758  0.00  0.00    +0.000 C 
ATOM     25  C   UNL     1      49.186   2.606  15.707  0.00  0.00    +0.000 C 
ATOM     26  C   UNL     1      48.339   3.678  15.040  0.00  0.00    +0.000 C 
ATOM     27  C   UNL     1      47.509   3.891  13.786  0.00  0.00    +0.000 C 
ENDROOT
BRANCH  11  30
ATOM     28  N   UNL     1      45.009  -2.734  14.161  0.00  0.00    +0.000 NA
ATOM     29  N   UNL     1      44.574  -4.304  10.838  0.00  0.00    +0.000 N 
ATOM     30  C   UNL     1      45.319  -3.014  12.875  0.00  0.00    +0.000 A 
ATOM     31  C   UNL     1      44.499  -3.870  12.143  0.00  0.00    +0.000 A 
ATOM     32  C   UNL     1      43.361  -4.452  12.702  0.00  0.00    +0.000 A 
ATOM     33  C   UNL     1      43.906  -3.302  14.696  0.00  0.00    +0.000 A 
ATOM     34  C   UNL     1      43.041  -4.165  14.038  0.00  0.00    +0.000 A 
ATOM     35  C   UNL     1      42.753  -5.262  11.694  0.00  0.00    +0.000 A 
ATOM     36  C   UNL     1      43.532  -5.149  10.544  0.00  0.00    +0.000 A 
ATOM     37  C   UNL     1      41.608  -6.079  11.658  0.00  0.00    +0.000 A 
ATOM     38  C   UNL     1      43.227  -5.811   9.350  0.00  0.00    +0.000 A 
ATOM     39  C   UNL     1      41.287  -6.749  10.475  0.00  0.00    +0.000 A 
ATOM     40  C   UNL     1      42.084  -6.614   9.344  0.00  0.00    +0.000 A 
ATOM     41  H   UNL     1      45.291  -4.031  10.180  0.00  0.00    +0.000 HD
ENDBRANCH  11  30
BRANCH   7  42
ATOM     42  O   UNL     1      46.711  -0.549   9.339  0.00  0.00    +0.000 OA
ATOM     43  H   UNL     1      45.882  -1.056   9.376  0.00  0.00    +0.000 HD
ENDBRANCH   7  42
TORSDOF 2
ENDMDL
MODEL 9
REMARK VINA RESULT:      -8.6     19.482     22.661
REMARK  Name = 6509753_ManzamineA.pdbqt.pdb
REMARK  2 active torsions:
REMARK  status: ('A' for Active; 'I' for Inactive)
REMARK    1  A    between atoms: C_7  and  O_42
REMARK    2  A    between atoms: C_11  and  C_30
REMARK                            x       y       z     vdW  Elec       q    Type
REMARK                         _______ _______ _______ _____ _____    ______ ____
ROOT
ATOM      1  N   UNL     1      26.824  -5.518  15.325  0.00  0.00    +0.000 N 
ATOM      2  N   UNL     1      24.252  -1.355  14.374  0.00  0.00    +0.000 N 
ATOM      3  C   UNL     1      25.294  -3.577  15.874  0.00  0.00    +0.000 C 
ATOM      4  C   UNL     1      25.411  -5.083  15.470  0.00  0.00    +0.000 C 
ATOM      5  C   UNL     1      24.410  -3.183  17.130  0.00  0.00    +0.000 C 
ATOM      6  C   UNL     1      26.712  -3.370  16.151  0.00  0.00    +0.000 C 
ATOM      7  C   UNL     1      24.413  -6.087  16.053  0.00  0.00    +0.000 C 
ATOM      8  C   UNL     1      24.864  -2.671  14.752  0.00  0.00    +0.000 C 
ATOM      9  C   UNL     1      27.628  -4.326  15.675  0.00  0.00    +0.000 C 
ATOM     10  C   UNL     1      23.805  -1.881  17.011  0.00  0.00    +0.000 C 
ATOM     11  C   UNL     1      23.677  -4.252  17.793  0.00  0.00    +0.000 C 
ATOM     12  C   UNL     1      23.800  -5.374  17.156  0.00  0.00    +0.000 C 
ATOM     13  C   UNL     1      23.709  -1.075  15.712  0.00  0.00    +0.000 C 
ATOM     14  C   UNL     1      27.107  -6.026  13.980  0.00  0.00    +0.000 C 
ATOM     15  C   UNL     1      23.478  -6.532  15.025  0.00  0.00    +0.000 C 
ATOM     16  C   UNL     1      28.862  -4.038  15.018  0.00  0.00    +0.000 C 
ATOM     17  C   UNL     1      23.141  -1.623  13.477  0.00  0.00    +0.000 C 
ATOM     18  C   UNL     1      27.885  -6.252  12.670  0.00  0.00    +0.000 C 
ATOM     19  C   UNL     1      22.446  -6.822  13.933  0.00  0.00    +0.000 C 
ATOM     20  C   UNL     1      29.692  -4.078  14.150  0.00  0.00    +0.000 C 
ATOM     21  C   UNL     1      29.193  -5.722  12.085  0.00  0.00    +0.000 C 
ATOM     22  C   UNL     1      22.021  -2.086  12.540  0.00  0.00    +0.000 C 
ATOM     23  C   UNL     1      30.063  -4.695  12.801  0.00  0.00    +0.000 C 
ATOM     24  C   UNL     1      21.428  -6.601  12.817  0.00  0.00    +0.000 C 
ATOM     25  C   UNL     1      21.072  -3.023  11.800  0.00  0.00    +0.000 C 
ATOM     26  C   UNL     1      20.588  -4.447  11.577  0.00  0.00    +0.000 C 
ATOM     27  C   UNL     1      20.845  -5.855  12.085  0.00  0.00    +0.000 C 
ENDROOT
BRANCH  11  30
ATOM     28  N   UNL     1      21.485  -3.706  18.676  0.00  0.00    +0.000 NA
ATOM     29  N   UNL     1      24.375  -4.772  20.726  0.00  0.00    +0.000 N 
ATOM     30  C   UNL     1      22.755  -4.104  18.910  0.00  0.00    +0.000 A 
ATOM     31  C   UNL     1      23.166  -4.352  20.218  0.00  0.00    +0.000 A 
ATOM     32  C   UNL     1      22.299  -4.199  21.301  0.00  0.00    +0.000 A 
ATOM     33  C   UNL     1      20.651  -3.560  19.729  0.00  0.00    +0.000 A 
ATOM     34  C   UNL     1      20.981  -3.782  21.059  0.00  0.00    +0.000 A 
ATOM     35  C   UNL     1      23.027  -4.532  22.485  0.00  0.00    +0.000 A 
ATOM     36  C   UNL     1      24.317  -4.885  22.095  0.00  0.00    +0.000 A 
ATOM     37  C   UNL     1      22.700  -4.567  23.853  0.00  0.00    +0.000 A 
ATOM     38  C   UNL     1      25.306  -5.276  23.002  0.00  0.00    +0.000 A 
ATOM     39  C   UNL     1      23.676  -4.954  24.775  0.00  0.00    +0.000 A 
ATOM     40  C   UNL     1      24.954  -5.301  24.353  0.00  0.00    +0.000 A 
ATOM     41  H   UNL     1      25.193  -4.980  20.171  0.00  0.00    +0.000 HD
ENDBRANCH  11  30
BRANCH   7  42
ATOM     42  O   UNL     1      25.087  -7.217  16.588  0.00  0.00    +0.000 OA
ATOM     43  H   UNL     1      25.795  -6.865  17.153  0.00  0.00    +0.000 HD
ENDBRANCH   7  42
TORSDOF 2
ENDMDL
