MODEL 1
REMARK VINA RESULT:      -5.4      0.000      0.000
REMARK  Name = 67499_Pyrazolo.pdbqt.pdb
REMARK  0 active torsions:
REMARK  status: ('A' for Active; 'I' for Inactive)
REMARK                            x       y       z     vdW  Elec       q    Type
REMARK                         _______ _______ _______ _____ _____    ______ ____
ROOT
ATOM      1  N   UNL     1      34.527   7.420  18.418  0.00  0.00    +0.000 N 
ATOM      2  N   UNL     1      34.487   7.904  19.678  0.00  0.00    +0.000 NA
ATOM      3  N   UNL     1      35.824   7.658  16.386  0.00  0.00    +0.000 NA
ATOM      4  N   UNL     1      37.625   9.255  16.651  0.00  0.00    +0.000 NA
ATOM      5  C   UNL     1      36.201   8.831  18.485  0.00  0.00    +0.000 A 
ATOM      6  C   UNL     1      35.537   7.944  17.664  0.00  0.00    +0.000 A 
ATOM      7  C   UNL     1      35.513   8.765  19.710  0.00  0.00    +0.000 A 
ATOM      8  C   UNL     1      37.285   9.503  17.940  0.00  0.00    +0.000 A 
ATOM      9  C   UNL     1      36.890   8.362  15.957  0.00  0.00    +0.000 A 
ATOM     10  H   UNL     1      33.840   6.734  18.129  0.00  0.00    +0.000 HD
ENDROOT
TORSDOF 0
ENDMDL
MODEL 2
REMARK VINA RESULT:      -4.6     17.849     19.143
REMARK  Name = 67499_Pyrazolo.pdbqt.pdb
REMARK  0 active torsions:
REMARK  status: ('A' for Active; 'I' for Inactive)
REMARK                            x       y       z     vdW  Elec       q    Type
REMARK                         _______ _______ _______ _____ _____    ______ ____
ROOT
ATOM      1  N   UNL     1      43.109  -7.322   7.878  0.00  0.00    +0.000 N 
ATOM      2  N   UNL     1      44.149  -8.146   7.624  0.00  0.00    +0.000 NA
ATOM      3  N   UNL     1      42.372  -5.738   9.556  0.00  0.00    +0.000 NA
ATOM      4  N   UNL     1      43.969  -5.536  11.364  0.00  0.00    +0.000 NA
ATOM      5  C   UNL     1      44.442  -7.019   9.589  0.00  0.00    +0.000 A 
ATOM      6  C   UNL     1      43.238  -6.625   9.044  0.00  0.00    +0.000 A 
ATOM      7  C   UNL     1      44.958  -7.954   8.674  0.00  0.00    +0.000 A 
ATOM      8  C   UNL     1      44.805  -6.441  10.797  0.00  0.00    +0.000 A 
ATOM      9  C   UNL     1      42.819  -5.239  10.724  0.00  0.00    +0.000 A 
ATOM     10  H   UNL     1      42.340  -7.278   7.220  0.00  0.00    +0.000 HD
ENDROOT
TORSDOF 0
ENDMDL
MODEL 3
REMARK VINA RESULT:      -4.1     16.200     17.393
REMARK  Name = 67499_Pyrazolo.pdbqt.pdb
REMARK  0 active torsions:
REMARK  status: ('A' for Active; 'I' for Inactive)
REMARK                            x       y       z     vdW  Elec       q    Type
REMARK                         _______ _______ _______ _____ _____    ______ ____
ROOT
ATOM      1  N   UNL     1      42.975  -7.603  10.880  0.00  0.00    +0.000 N 
ATOM      2  N   UNL     1      43.538  -7.301   9.690  0.00  0.00    +0.000 NA
ATOM      3  N   UNL     1      42.326  -6.520  12.947  0.00  0.00    +0.000 NA
ATOM      4  N   UNL     1      42.823  -4.150  12.914  0.00  0.00    +0.000 NA
ATOM      5  C   UNL     1      43.357  -5.451  11.018  0.00  0.00    +0.000 A 
ATOM      6  C   UNL     1      42.845  -6.528  11.711  0.00  0.00    +0.000 A 
ATOM      7  C   UNL     1      43.768  -5.985   9.783  0.00  0.00    +0.000 A 
ATOM      8  C   UNL     1      43.336  -4.222  11.661  0.00  0.00    +0.000 A 
ATOM      9  C   UNL     1      42.354  -5.282  13.478  0.00  0.00    +0.000 A 
ATOM     10  H   UNL     1      42.701  -8.560  11.069  0.00  0.00    +0.000 HD
ENDROOT
TORSDOF 0
ENDMDL
MODEL 4
REMARK VINA RESULT:      -4.1      1.574      2.562
REMARK  Name = 67499_Pyrazolo.pdbqt.pdb
REMARK  0 active torsions:
REMARK  status: ('A' for Active; 'I' for Inactive)
REMARK                            x       y       z     vdW  Elec       q    Type
REMARK                         _______ _______ _______ _____ _____    ______ ____
ROOT
ATOM      1  N   UNL     1      36.314   8.916  20.369  0.00  0.00    +0.000 N 
ATOM      2  N   UNL     1      37.502   9.546  20.243  0.00  0.00    +0.000 NA
ATOM      3  N   UNL     1      34.694   7.734  19.010  0.00  0.00    +0.000 NA
ATOM      4  N   UNL     1      35.378   7.622  16.689  0.00  0.00    +0.000 NA
ATOM      5  C   UNL     1      36.780   8.723  18.237  0.00  0.00    +0.000 A 
ATOM      6  C   UNL     1      35.840   8.406  19.195  0.00  0.00    +0.000 A 
ATOM      7  C   UNL     1      37.779   9.423  18.938  0.00  0.00    +0.000 A 
ATOM      8  C   UNL     1      36.522   8.307  16.939  0.00  0.00    +0.000 A 
ATOM      9  C   UNL     1      34.542   7.378  17.719  0.00  0.00    +0.000 A 
ATOM     10  H   UNL     1      35.875   8.866  21.280  0.00  0.00    +0.000 HD
ENDROOT
TORSDOF 0
ENDMDL
MODEL 5
REMARK VINA RESULT:      -4.0     12.760     12.842
REMARK  Name = 67499_Pyrazolo.pdbqt.pdb
REMARK  0 active torsions:
REMARK  status: ('A' for Active; 'I' for Inactive)
REMARK                            x       y       z     vdW  Elec       q    Type
REMARK                         _______ _______ _______ _____ _____    ______ ____
ROOT
ATOM      1  N   UNL     1      41.763  -2.822  23.473  0.00  0.00    +0.000 N 
ATOM      2  N   UNL     1      40.842  -2.443  24.385  0.00  0.00    +0.000 NA
ATOM      3  N   UNL     1      43.580  -1.879  22.178  0.00  0.00    +0.000 NA
ATOM      4  N   UNL     1      43.874   0.482  22.628  0.00  0.00    +0.000 NA
ATOM      5  C   UNL     1      42.165  -0.688  23.761  0.00  0.00    +0.000 A 
ATOM      6  C   UNL     1      42.579  -1.806  23.068  0.00  0.00    +0.000 A 
ATOM      7  C   UNL     1      41.095  -1.138  24.555  0.00  0.00    +0.000 A 
ATOM      8  C   UNL     1      42.851   0.493  23.519  0.00  0.00    +0.000 A 
ATOM      9  C   UNL     1      44.177  -0.682  22.017  0.00  0.00    +0.000 A 
ATOM     10  H   UNL     1      41.786  -3.786  23.164  0.00  0.00    +0.000 HD
ENDROOT
TORSDOF 0
ENDMDL
MODEL 6
REMARK VINA RESULT:      -3.9     12.889     13.305
REMARK  Name = 67499_Pyrazolo.pdbqt.pdb
REMARK  0 active torsions:
REMARK  status: ('A' for Active; 'I' for Inactive)
REMARK                            x       y       z     vdW  Elec       q    Type
REMARK                         _______ _______ _______ _____ _____    ______ ____
ROOT
ATOM      1  N   UNL     1      41.249   0.022  25.673  0.00  0.00    +0.000 N 
ATOM      2  N   UNL     1      42.421   0.656  25.891  0.00  0.00    +0.000 NA
ATOM      3  N   UNL     1      40.360  -1.834  24.396  0.00  0.00    +0.000 NA
ATOM      4  N   UNL     1      42.076  -2.926  23.082  0.00  0.00    +0.000 NA
ATOM      5  C   UNL     1      42.673  -1.078  24.425  0.00  0.00    +0.000 A 
ATOM      6  C   UNL     1      41.348  -1.024  24.802  0.00  0.00    +0.000 A 
ATOM      7  C   UNL     1      43.285  -0.023  25.124  0.00  0.00    +0.000 A 
ATOM      8  C   UNL     1      43.033  -2.075  23.529  0.00  0.00    +0.000 A 
ATOM      9  C   UNL     1      40.815  -2.762  23.531  0.00  0.00    +0.000 A 
ATOM     10  H   UNL     1      40.415   0.348  26.146  0.00  0.00    +0.000 HD
ENDROOT
TORSDOF 0
ENDMDL
MODEL 7
REMARK VINA RESULT:      -3.9     14.490     15.467
REMARK  Name = 67499_Pyrazolo.pdbqt.pdb
REMARK  0 active torsions:
REMARK  status: ('A' for Active; 'I' for Inactive)
REMARK                            x       y       z     vdW  Elec       q    Type
REMARK                         _______ _______ _______ _____ _____    ______ ____
ROOT
ATOM      1  N   UNL     1      43.676  -2.774  13.549  0.00  0.00    +0.000 N 
ATOM      2  N   UNL     1      43.514  -2.989  14.873  0.00  0.00    +0.000 NA
ATOM      3  N   UNL     1      43.197  -3.844  11.430  0.00  0.00    +0.000 NA
ATOM      4  N   UNL     1      42.078  -5.971  11.729  0.00  0.00    +0.000 NA
ATOM      5  C   UNL     1      42.662  -4.713  13.640  0.00  0.00    +0.000 A 
ATOM      6  C   UNL     1      43.181  -3.779  12.769  0.00  0.00    +0.000 A 
ATOM      7  C   UNL     1      42.894  -4.176  14.919  0.00  0.00    +0.000 A 
ATOM      8  C   UNL     1      42.092  -5.848  13.080  0.00  0.00    +0.000 A 
ATOM      9  C   UNL     1      42.621  -4.981  10.992  0.00  0.00    +0.000 A 
ATOM     10  H   UNL     1      44.130  -1.924  13.238  0.00  0.00    +0.000 HD
ENDROOT
TORSDOF 0
ENDMDL
MODEL 8
REMARK VINA RESULT:      -3.9     21.846     22.681
REMARK  Name = 67499_Pyrazolo.pdbqt.pdb
REMARK  0 active torsions:
REMARK  status: ('A' for Active; 'I' for Inactive)
REMARK                            x       y       z     vdW  Elec       q    Type
REMARK                         _______ _______ _______ _____ _____    ______ ____
ROOT
ATOM      1  N   UNL     1      16.322   3.649   7.881  0.00  0.00    +0.000 N 
ATOM      2  N   UNL     1      15.632   2.696   7.216  0.00  0.00    +0.000 NA
ATOM      3  N   UNL     1      17.708   5.583   7.428  0.00  0.00    +0.000 NA
ATOM      4  N   UNL     1      17.966   5.967   5.051  0.00  0.00    +0.000 NA
ATOM      5  C   UNL     1      16.658   4.139   5.773  0.00  0.00    +0.000 A 
ATOM      6  C   UNL     1      16.954   4.537   7.060  0.00  0.00    +0.000 A 
ATOM      7  C   UNL     1      15.844   3.004   5.930  0.00  0.00    +0.000 A 
ATOM      8  C   UNL     1      17.194   4.896   4.741  0.00  0.00    +0.000 A 
ATOM      9  C   UNL     1      18.177   6.247   6.354  0.00  0.00    +0.000 A 
ATOM     10  H   UNL     1      16.325   3.642   8.894  0.00  0.00    +0.000 HD
ENDROOT
TORSDOF 0
ENDMDL
MODEL 9
REMARK VINA RESULT:      -3.8     12.845     13.243
REMARK  Name = 67499_Pyrazolo.pdbqt.pdb
REMARK  0 active torsions:
REMARK  status: ('A' for Active; 'I' for Inactive)
REMARK                            x       y       z     vdW  Elec       q    Type
REMARK                         _______ _______ _______ _____ _____    ______ ____
ROOT
ATOM      1  N   UNL     1      43.919  -1.257  22.106  0.00  0.00    +0.000 N 
ATOM      2  N   UNL     1      44.391  -0.005  22.288  0.00  0.00    +0.000 NA
ATOM      3  N   UNL     1      42.217  -2.738  22.988  0.00  0.00    +0.000 NA
ATOM      4  N   UNL     1      40.935  -1.685  24.752  0.00  0.00    +0.000 NA
ATOM      5  C   UNL     1      42.665  -0.459  23.715  0.00  0.00    +0.000 A 
ATOM      6  C   UNL     1      42.884  -1.576  22.937  0.00  0.00    +0.000 A 
ATOM      7  C   UNL     1      43.619   0.475  23.273  0.00  0.00    +0.000 A 
ATOM      8  C   UNL     1      41.646  -0.535  24.653  0.00  0.00    +0.000 A 
ATOM      9  C   UNL     1      41.253  -2.706  23.929  0.00  0.00    +0.000 A 
ATOM     10  H   UNL     1      44.342  -1.848  21.400  0.00  0.00    +0.000 HD
ENDROOT
TORSDOF 0
ENDMDL
