MODEL 1
REMARK VINA RESULT:      -5.7      0.000      0.000
REMARK  Name = 71369791_5FluoroDione.pdbqt.pdb
REMARK  1 active torsions:
REMARK  status: ('A' for Active; 'I' for Inactive)
REMARK    1  A    between atoms: N_4  and  C_12
REMARK                            x       y       z     vdW  Elec       q    Type
REMARK                         _______ _______ _______ _____ _____    ______ ____
ROOT
ATOM      1  F   UNL     1      45.997  -6.294   8.982  0.00  0.00    +0.000 F 
ATOM      2  O   UNL     1      40.967  -5.931  11.038  0.00  0.00    +0.000 OA
ATOM      3  O   UNL     1      43.782  -7.655   7.855  0.00  0.00    +0.000 OA
ATOM      4  N   UNL     1      43.276  -5.523  11.334  0.00  0.00    +0.000 N 
ATOM      5  N   UNL     1      42.452  -6.828   9.545  0.00  0.00    +0.000 N 
ATOM      6  C   UNL     1      44.482  -5.782  10.791  0.00  0.00    +0.000 C 
ATOM      7  C   UNL     1      44.864  -6.524   9.667  0.00  0.00    +0.000 C 
ATOM      8  C   UNL     1      42.137  -6.067  10.697  0.00  0.00    +0.000 C 
ATOM      9  C   UNL     1      43.688  -7.066   8.925  0.00  0.00    +0.000 C 
ATOM     10  H   UNL     1      41.649  -7.191   9.052  0.00  0.00    +0.000 HD
ENDROOT
BRANCH   4  12
ATOM     11  O   UNL     1      43.068  -3.361  12.418  0.00  0.00    +0.000 OA
ATOM     12  C   UNL     1      43.215  -4.752  12.460  0.00  0.00    +0.000 C 
ATOM     13  C   UNL     1      43.284  -5.150  13.821  0.00  0.00    +0.000 C 
ATOM     14  C   UNL     1      43.201  -4.144  14.971  0.00  0.00    +0.000 C 
ATOM     15  C   UNL     1      43.080  -3.234  13.750  0.00  0.00    +0.000 C 
ENDBRANCH   4  12
TORSDOF 1
ENDMDL
MODEL 2
REMARK VINA RESULT:      -5.4      2.120      2.553
REMARK  Name = 71369791_5FluoroDione.pdbqt.pdb
REMARK  1 active torsions:
REMARK  status: ('A' for Active; 'I' for Inactive)
REMARK    1  A    between atoms: N_4  and  C_12
REMARK                            x       y       z     vdW  Elec       q    Type
REMARK                         _______ _______ _______ _____ _____    ______ ____
ROOT
ATOM      1  F   UNL     1      40.629  -6.403   9.715  0.00  0.00    +0.000 F 
ATOM      2  O   UNL     1      45.921  -6.580  10.992  0.00  0.00    +0.000 OA
ATOM      3  O   UNL     1      42.612  -7.296   7.898  0.00  0.00    +0.000 OA
ATOM      4  N   UNL     1      43.757  -5.818  11.560  0.00  0.00    +0.000 N 
ATOM      5  N   UNL     1      44.226  -6.817   9.471  0.00  0.00    +0.000 N 
ATOM      6  C   UNL     1      42.500  -5.726  11.083  0.00  0.00    +0.000 C 
ATOM      7  C   UNL     1      41.931  -6.105   9.862  0.00  0.00    +0.000 C 
ATOM      8  C   UNL     1      44.737  -6.404  10.726  0.00  0.00    +0.000 C 
ATOM      9  C   UNL     1      42.916  -6.786   8.970  0.00  0.00    +0.000 C 
ATOM     10  H   UNL     1      44.902  -7.276   8.876  0.00  0.00    +0.000 HD
ENDROOT
BRANCH   4  12
ATOM     11  O   UNL     1      44.616  -4.105  13.051  0.00  0.00    +0.000 OA
ATOM     12  C   UNL     1      44.018  -5.349  12.816  0.00  0.00    +0.000 C 
ATOM     13  C   UNL     1      43.766  -5.963  14.071  0.00  0.00    +0.000 C 
ATOM     14  C   UNL     1      44.128  -5.291  15.397  0.00  0.00    +0.000 C 
ATOM     15  C   UNL     1      44.590  -4.248  14.381  0.00  0.00    +0.000 C 
ENDBRANCH   4  12
TORSDOF 1
ENDMDL
MODEL 3
REMARK VINA RESULT:      -5.3      2.826      4.898
REMARK  Name = 71369791_5FluoroDione.pdbqt.pdb
REMARK  1 active torsions:
REMARK  status: ('A' for Active; 'I' for Inactive)
REMARK    1  A    between atoms: N_4  and  C_12
REMARK                            x       y       z     vdW  Elec       q    Type
REMARK                         _______ _______ _______ _____ _____    ______ ____
ROOT
ATOM      1  F   UNL     1      47.023  -3.204  12.817  0.00  0.00    +0.000 F 
ATOM      2  O   UNL     1      41.813  -3.339  14.398  0.00  0.00    +0.000 OA
ATOM      3  O   UNL     1      45.914  -1.295  14.593  0.00  0.00    +0.000 OA
ATOM      4  N   UNL     1      43.468  -4.140  12.912  0.00  0.00    +0.000 N 
ATOM      5  N   UNL     1      43.863  -2.319  14.365  0.00  0.00    +0.000 N 
ATOM      6  C   UNL     1      44.740  -3.931  12.521  0.00  0.00    +0.000 C 
ATOM      7  C   UNL     1      45.700  -2.992  12.918  0.00  0.00    +0.000 C 
ATOM      8  C   UNL     1      42.939  -3.293  13.914  0.00  0.00    +0.000 C 
ATOM      9  C   UNL     1      45.207  -2.114  14.020  0.00  0.00    +0.000 C 
ATOM     10  H   UNL     1      43.518  -1.731  15.111  0.00  0.00    +0.000 HD
ENDROOT
BRANCH   4  12
ATOM     11  O   UNL     1      42.006  -4.977  11.163  0.00  0.00    +0.000 OA
ATOM     12  C   UNL     1      42.760  -5.153  12.330  0.00  0.00    +0.000 C 
ATOM     13  C   UNL     1      42.635  -6.507  12.739  0.00  0.00    +0.000 C 
ATOM     14  C   UNL     1      41.791  -7.519  11.962  0.00  0.00    +0.000 C 
ATOM     15  C   UNL     1      41.600  -6.251  11.132  0.00  0.00    +0.000 C 
ENDBRANCH   4  12
TORSDOF 1
ENDMDL
MODEL 4
REMARK VINA RESULT:      -5.1     33.955     34.830
REMARK  Name = 71369791_5FluoroDione.pdbqt.pdb
REMARK  1 active torsions:
REMARK  status: ('A' for Active; 'I' for Inactive)
REMARK    1  A    between atoms: N_4  and  C_12
REMARK                            x       y       z     vdW  Elec       q    Type
REMARK                         _______ _______ _______ _____ _____    ______ ____
ROOT
ATOM      1  F   UNL     1      22.932  21.395  -2.098  0.00  0.00    +0.000 F 
ATOM      2  O   UNL     1      24.038  19.811   2.994  0.00  0.00    +0.000 OA
ATOM      3  O   UNL     1      25.367  22.027  -0.795  0.00  0.00    +0.000 OA
ATOM      4  N   UNL     1      22.418  20.066   1.292  0.00  0.00    +0.000 N 
ATOM      5  N   UNL     1      24.588  20.980   1.104  0.00  0.00    +0.000 N 
ATOM      6  C   UNL     1      22.229  20.608   0.073  0.00  0.00    +0.000 C 
ATOM      7  C   UNL     1      23.070  21.352  -0.763  0.00  0.00    +0.000 C 
ATOM      8  C   UNL     1      23.682  20.238   1.900  0.00  0.00    +0.000 C 
ATOM      9  C   UNL     1      24.440  21.505  -0.189  0.00  0.00    +0.000 C 
ATOM     10  H   UNL     1      25.511  21.078   1.503  0.00  0.00    +0.000 HD
ENDROOT
BRANCH   4  12
ATOM     11  O   UNL     1      21.459  18.015   2.170  0.00  0.00    +0.000 OA
ATOM     12  C   UNL     1      21.387  19.382   1.873  0.00  0.00    +0.000 C 
ATOM     13  C   UNL     1      20.111  19.857   2.274  0.00  0.00    +0.000 C 
ATOM     14  C   UNL     1      19.064  18.944   2.914  0.00  0.00    +0.000 C 
ATOM     15  C   UNL     1      20.221  17.975   2.679  0.00  0.00    +0.000 C 
ENDBRANCH   4  12
TORSDOF 1
ENDMDL
MODEL 5
REMARK VINA RESULT:      -5.0     16.828     17.367
REMARK  Name = 71369791_5FluoroDione.pdbqt.pdb
REMARK  1 active torsions:
REMARK  status: ('A' for Active; 'I' for Inactive)
REMARK    1  A    between atoms: N_4  and  C_12
REMARK                            x       y       z     vdW  Elec       q    Type
REMARK                         _______ _______ _______ _____ _____    ______ ____
ROOT
ATOM      1  F   UNL     1      40.689  10.241  16.152  0.00  0.00    +0.000 F 
ATOM      2  O   UNL     1      36.300   8.781  19.028  0.00  0.00    +0.000 OA
ATOM      3  O   UNL     1      38.152   9.824  14.963  0.00  0.00    +0.000 OA
ATOM      4  N   UNL     1      38.648   9.053  18.971  0.00  0.00    +0.000 N 
ATOM      5  N   UNL     1      37.319   9.216  17.024  0.00  0.00    +0.000 N 
ATOM      6  C   UNL     1      39.671   9.309  18.133  0.00  0.00    +0.000 C 
ATOM      7  C   UNL     1      39.717   9.534  16.752  0.00  0.00    +0.000 C 
ATOM      8  C   UNL     1      37.346   8.992  18.422  0.00  0.00    +0.000 C 
ATOM      9  C   UNL     1      38.357   9.541  16.137  0.00  0.00    +0.000 C 
ATOM     10  H   UNL     1      36.394   9.218  16.620  0.00  0.00    +0.000 HD
ENDROOT
BRANCH   4  12
ATOM     11  O   UNL     1      38.686   7.657  20.958  0.00  0.00    +0.000 OA
ATOM     12  C   UNL     1      38.917   8.871  20.298  0.00  0.00    +0.000 C 
ATOM     13  C   UNL     1      39.446   9.793  21.239  0.00  0.00    +0.000 C 
ATOM     14  C   UNL     1      39.685   9.420  22.703  0.00  0.00    +0.000 C 
ATOM     15  C   UNL     1      39.125   8.117  22.136  0.00  0.00    +0.000 C 
ENDBRANCH   4  12
TORSDOF 1
ENDMDL
MODEL 6
REMARK VINA RESULT:      -4.5     14.418     15.345
REMARK  Name = 71369791_5FluoroDione.pdbqt.pdb
REMARK  1 active torsions:
REMARK  status: ('A' for Active; 'I' for Inactive)
REMARK    1  A    between atoms: N_4  and  C_12
REMARK                            x       y       z     vdW  Elec       q    Type
REMARK                         _______ _______ _______ _____ _____    ______ ____
ROOT
ATOM      1  F   UNL     1      26.642  -7.780  11.006  0.00  0.00    +0.000 F 
ATOM      2  O   UNL     1      30.656  -4.584  12.833  0.00  0.00    +0.000 OA
ATOM      3  O   UNL     1      29.092  -7.458   9.619  0.00  0.00    +0.000 OA
ATOM      4  N   UNL     1      28.393  -5.241  13.010  0.00  0.00    +0.000 N 
ATOM      5  N   UNL     1      29.767  -5.947  11.223  0.00  0.00    +0.000 N 
ATOM      6  C   UNL     1      27.445  -5.977  12.397  0.00  0.00    +0.000 C 
ATOM      7  C   UNL     1      27.465  -6.741  11.224  0.00  0.00    +0.000 C 
ATOM      8  C   UNL     1      29.674  -5.190  12.416  0.00  0.00    +0.000 C 
ATOM      9  C   UNL     1      28.818  -6.767  10.593  0.00  0.00    +0.000 C 
ATOM     10  H   UNL     1      30.686  -5.957  10.805  0.00  0.00    +0.000 HD
ENDROOT
BRANCH   4  12
ATOM     11  O   UNL     1      28.341  -5.121  15.435  0.00  0.00    +0.000 OA
ATOM     12  C   UNL     1      28.071  -4.590  14.168  0.00  0.00    +0.000 C 
ATOM     13  C   UNL     1      27.438  -3.331  14.340  0.00  0.00    +0.000 C 
ATOM     14  C   UNL     1      27.147  -2.746  15.723  0.00  0.00    +0.000 C 
ATOM     15  C   UNL     1      27.816  -4.072  16.080  0.00  0.00    +0.000 C 
ENDBRANCH   4  12
TORSDOF 1
ENDMDL
MODEL 7
REMARK VINA RESULT:      -4.4     16.189     17.109
REMARK  Name = 71369791_5FluoroDione.pdbqt.pdb
REMARK  1 active torsions:
REMARK  status: ('A' for Active; 'I' for Inactive)
REMARK    1  A    between atoms: N_4  and  C_12
REMARK                            x       y       z     vdW  Elec       q    Type
REMARK                         _______ _______ _______ _____ _____    ______ ____
ROOT
ATOM      1  F   UNL     1      27.912  -7.004  14.267  0.00  0.00    +0.000 F 
ATOM      2  O   UNL     1      26.710  -2.029  16.128  0.00  0.00    +0.000 OA
ATOM      3  O   UNL     1      28.053  -6.324  17.014  0.00  0.00    +0.000 OA
ATOM      4  N   UNL     1      27.167  -3.402  14.260  0.00  0.00    +0.000 N 
ATOM      5  N   UNL     1      27.470  -4.160  16.477  0.00  0.00    +0.000 N 
ATOM      6  C   UNL     1      27.591  -4.636  13.923  0.00  0.00    +0.000 C 
ATOM      7  C   UNL     1      27.993  -5.733  14.694  0.00  0.00    +0.000 C 
ATOM      8  C   UNL     1      27.081  -3.089  15.636  0.00  0.00    +0.000 C 
ATOM      9  C   UNL     1      27.859  -5.469  16.158  0.00  0.00    +0.000 C 
ATOM     10  H   UNL     1      27.376  -3.970  17.465  0.00  0.00    +0.000 HD
ENDROOT
BRANCH   4  12
ATOM     11  O   UNL     1      27.655  -2.313  12.145  0.00  0.00    +0.000 OA
ATOM     12  C   UNL     1      26.841  -2.526  13.264  0.00  0.00    +0.000 C 
ATOM     13  C   UNL     1      25.696  -1.694  13.144  0.00  0.00    +0.000 C 
ATOM     14  C   UNL     1      25.487  -0.760  11.950  0.00  0.00    +0.000 C 
ATOM     15  C   UNL     1      26.827  -1.411  11.607  0.00  0.00    +0.000 C 
ENDBRANCH   4  12
TORSDOF 1
ENDMDL
MODEL 8
REMARK VINA RESULT:      -4.2     29.458     30.791
REMARK  Name = 71369791_5FluoroDione.pdbqt.pdb
REMARK  1 active torsions:
REMARK  status: ('A' for Active; 'I' for Inactive)
REMARK    1  A    between atoms: N_4  and  C_12
REMARK                            x       y       z     vdW  Elec       q    Type
REMARK                         _______ _______ _______ _____ _____    ______ ____
ROOT
ATOM      1  F   UNL     1      16.077  -0.820  22.569  0.00  0.00    +0.000 F 
ATOM      2  O   UNL     1      18.994   1.596  26.483  0.00  0.00    +0.000 OA
ATOM      3  O   UNL     1      18.857  -1.259  22.896  0.00  0.00    +0.000 OA
ATOM      4  N   UNL     1      16.961   1.503  25.280  0.00  0.00    +0.000 N 
ATOM      5  N   UNL     1      18.863   0.264  24.625  0.00  0.00    +0.000 N 
ATOM      6  C   UNL     1      16.382   0.926  24.209  0.00  0.00    +0.000 C 
ATOM      7  C   UNL     1      16.866   0.024  23.254  0.00  0.00    +0.000 C 
ATOM      8  C   UNL     1      18.310   1.179  25.554  0.00  0.00    +0.000 C 
ATOM      9  C   UNL     1      18.270  -0.396  23.539  0.00  0.00    +0.000 C 
ATOM     10  H   UNL     1      19.813  -0.013  24.828  0.00  0.00    +0.000 HD
ENDROOT
BRANCH   4  12
ATOM     11  O   UNL     1      15.487   1.945  27.158  0.00  0.00    +0.000 OA
ATOM     12  C   UNL     1      16.221   2.363  26.041  0.00  0.00    +0.000 C 
ATOM     13  C   UNL     1      16.039   3.763  25.890  0.00  0.00    +0.000 C 
ATOM     14  C   UNL     1      15.165   4.581  26.843  0.00  0.00    +0.000 C 
ATOM     15  C   UNL     1      15.032   3.175  27.425  0.00  0.00    +0.000 C 
ENDBRANCH   4  12
TORSDOF 1
ENDMDL
MODEL 9
REMARK VINA RESULT:      -4.0     26.441     27.261
REMARK  Name = 71369791_5FluoroDione.pdbqt.pdb
REMARK  1 active torsions:
REMARK  status: ('A' for Active; 'I' for Inactive)
REMARK    1  A    between atoms: N_4  and  C_12
REMARK                            x       y       z     vdW  Elec       q    Type
REMARK                         _______ _______ _______ _____ _____    ______ ____
ROOT
ATOM      1  F   UNL     1      40.893   9.894  32.640  0.00  0.00    +0.000 F 
ATOM      2  O   UNL     1      35.685  11.454  32.318  0.00  0.00    +0.000 OA
ATOM      3  O   UNL     1      40.125  12.500  31.838  0.00  0.00    +0.000 OA
ATOM      4  N   UNL     1      37.224   9.673  32.541  0.00  0.00    +0.000 N 
ATOM      5  N   UNL     1      37.916  11.868  32.008  0.00  0.00    +0.000 N 
ATOM      6  C   UNL     1      38.539   9.387  32.478  0.00  0.00    +0.000 C 
ATOM      7  C   UNL     1      39.658  10.179  32.197  0.00  0.00    +0.000 C 
ATOM      8  C   UNL     1      36.828  11.008  32.295  0.00  0.00    +0.000 C 
ATOM      9  C   UNL     1      39.295  11.612  31.991  0.00  0.00    +0.000 C 
ATOM     10  H   UNL     1      37.657  12.835  31.870  0.00  0.00    +0.000 HD
ENDROOT
BRANCH   4  12
ATOM     11  O   UNL     1      36.049   7.632  31.949  0.00  0.00    +0.000 OA
ATOM     12  C   UNL     1      36.347   8.669  32.842  0.00  0.00    +0.000 C 
ATOM     13  C   UNL     1      35.597   8.462  34.029  0.00  0.00    +0.000 C 
ATOM     14  C   UNL     1      34.650   7.273  34.200  0.00  0.00    +0.000 C 
ATOM     15  C   UNL     1      35.194   7.039  32.791  0.00  0.00    +0.000 C 
ENDBRANCH   4  12
TORSDOF 1
ENDMDL
