MODEL 1
REMARK VINA RESULT:      -3.4      0.000      0.000
REMARK  Name = 7288_3Pentanone.pdbqt.pdb
REMARK  2 active torsions:
REMARK  status: ('A' for Active; 'I' for Inactive)
REMARK    1  A    between atoms: C_2  and  C_3
REMARK    2  A    between atoms: C_2  and  C_5
REMARK                            x       y       z     vdW  Elec       q    Type
REMARK                         _______ _______ _______ _____ _____    ______ ____
ROOT
ATOM      1  O   UNL     1      43.492  -7.714   7.935  0.00  0.00    +0.000 OA
ATOM      2  C   UNL     1      43.565  -6.909   8.855  0.00  0.00    +0.000 C 
ENDROOT
BRANCH   2   3
ATOM      3  C   UNL     1      42.460  -6.032   9.162  0.00  0.00    +0.000 C 
ATOM      4  C   UNL     1      41.294  -5.077   9.484  0.00  0.00    +0.000 C 
ENDBRANCH   2   3
BRANCH   2   5
ATOM      5  C   UNL     1      44.759  -6.811   9.661  0.00  0.00    +0.000 C 
ATOM      6  C   UNL     1      46.030  -6.682  10.524  0.00  0.00    +0.000 C 
ENDBRANCH   2   5
TORSDOF 2
ENDMDL
MODEL 2
REMARK VINA RESULT:      -3.1      3.418      3.857
REMARK  Name = 7288_3Pentanone.pdbqt.pdb
REMARK  2 active torsions:
REMARK  status: ('A' for Active; 'I' for Inactive)
REMARK    1  A    between atoms: C_2  and  C_3
REMARK    2  A    between atoms: C_2  and  C_5
REMARK                            x       y       z     vdW  Elec       q    Type
REMARK                         _______ _______ _______ _____ _____    ______ ____
ROOT
ATOM      1  O   UNL     1      41.327  -7.616  12.090  0.00  0.00    +0.000 OA
ATOM      2  C   UNL     1      41.625  -6.437  11.945  0.00  0.00    +0.000 C 
ENDROOT
BRANCH   2   3
ATOM      3  C   UNL     1      41.569  -5.812  10.645  0.00  0.00    +0.000 C 
ATOM      4  C   UNL     1      41.528  -5.131   9.263  0.00  0.00    +0.000 C 
ENDBRANCH   2   3
BRANCH   2   5
ATOM      5  C   UNL     1      42.042  -5.634  13.071  0.00  0.00    +0.000 C 
ATOM      6  C   UNL     1      42.487  -4.757  14.259  0.00  0.00    +0.000 C 
ENDBRANCH   2   5
TORSDOF 2
ENDMDL
MODEL 3
REMARK VINA RESULT:      -3.0     36.587     37.185
REMARK  Name = 7288_3Pentanone.pdbqt.pdb
REMARK  2 active torsions:
REMARK  status: ('A' for Active; 'I' for Inactive)
REMARK    1  A    between atoms: C_2  and  C_3
REMARK    2  A    between atoms: C_2  and  C_5
REMARK                            x       y       z     vdW  Elec       q    Type
REMARK                         _______ _______ _______ _____ _____    ______ ____
ROOT
ATOM      1  O   UNL     1      14.880   7.596  25.294  0.00  0.00    +0.000 OA
ATOM      2  C   UNL     1      14.342   7.503  26.390  0.00  0.00    +0.000 C 
ENDROOT
BRANCH   2   3
ATOM      3  C   UNL     1      14.295   8.631  27.290  0.00  0.00    +0.000 C 
ATOM      4  C   UNL     1      14.221   9.838  28.246  0.00  0.00    +0.000 C 
ENDBRANCH   2   3
BRANCH   2   5
ATOM      5  C   UNL     1      13.738   6.264  26.817  0.00  0.00    +0.000 C 
ATOM      6  C   UNL     1      13.079   4.940  27.254  0.00  0.00    +0.000 C 
ENDBRANCH   2   5
TORSDOF 2
ENDMDL
MODEL 4
REMARK VINA RESULT:      -2.9      1.096      3.235
REMARK  Name = 7288_3Pentanone.pdbqt.pdb
REMARK  2 active torsions:
REMARK  status: ('A' for Active; 'I' for Inactive)
REMARK    1  A    between atoms: C_2  and  C_3
REMARK    2  A    between atoms: C_2  and  C_5
REMARK                            x       y       z     vdW  Elec       q    Type
REMARK                         _______ _______ _______ _____ _____    ______ ____
ROOT
ATOM      1  O   UNL     1      43.033  -7.365   7.987  0.00  0.00    +0.000 OA
ATOM      2  C   UNL     1      43.467  -7.023   9.080  0.00  0.00    +0.000 C 
ENDROOT
BRANCH   2   3
ATOM      3  C   UNL     1      44.884  -7.042   9.353  0.00  0.00    +0.000 C 
ATOM      4  C   UNL     1      46.394  -7.079   9.661  0.00  0.00    +0.000 C 
ENDBRANCH   2   3
BRANCH   2   5
ATOM      5  C   UNL     1      42.575  -6.591  10.130  0.00  0.00    +0.000 C 
ATOM      6  C   UNL     1      41.607  -6.147  11.245  0.00  0.00    +0.000 C 
ENDBRANCH   2   5
TORSDOF 2
ENDMDL
MODEL 5
REMARK VINA RESULT:      -2.9     37.272     37.876
REMARK  Name = 7288_3Pentanone.pdbqt.pdb
REMARK  2 active torsions:
REMARK  status: ('A' for Active; 'I' for Inactive)
REMARK    1  A    between atoms: C_2  and  C_3
REMARK    2  A    between atoms: C_2  and  C_5
REMARK                            x       y       z     vdW  Elec       q    Type
REMARK                         _______ _______ _______ _____ _____    ______ ____
ROOT
ATOM      1  O   UNL     1      22.134  13.810  30.642  0.00  0.00    +0.000 OA
ATOM      2  C   UNL     1      21.687  14.950  30.673  0.00  0.00    +0.000 C 
ENDROOT
BRANCH   2   3
ATOM      3  C   UNL     1      20.339  15.204  31.125  0.00  0.00    +0.000 C 
ATOM      4  C   UNL     1      18.893  15.472  31.585  0.00  0.00    +0.000 C 
ENDBRANCH   2   3
BRANCH   2   5
ATOM      5  C   UNL     1      22.492  16.074  30.260  0.00  0.00    +0.000 C 
ATOM      6  C   UNL     1      23.362  17.276  29.840  0.00  0.00    +0.000 C 
ENDBRANCH   2   5
TORSDOF 2
ENDMDL
MODEL 6
REMARK VINA RESULT:      -2.9      7.023      8.038
REMARK  Name = 7288_3Pentanone.pdbqt.pdb
REMARK  2 active torsions:
REMARK  status: ('A' for Active; 'I' for Inactive)
REMARK    1  A    between atoms: C_2  and  C_3
REMARK    2  A    between atoms: C_2  and  C_5
REMARK                            x       y       z     vdW  Elec       q    Type
REMARK                         _______ _______ _______ _____ _____    ______ ____
ROOT
ATOM      1  O   UNL     1      42.629  -1.653  12.202  0.00  0.00    +0.000 OA
ATOM      2  C   UNL     1      42.804  -0.605  12.811  0.00  0.00    +0.000 C 
ENDROOT
BRANCH   2   3
ATOM      3  C   UNL     1      43.898   0.274  12.473  0.00  0.00    +0.000 C 
ATOM      4  C   UNL     1      45.054   1.220  12.093  0.00  0.00    +0.000 C 
ENDBRANCH   2   3
BRANCH   2   5
ATOM      5  C   UNL     1      41.921  -0.215  13.885  0.00  0.00    +0.000 C 
ATOM      6  C   UNL     1      40.960   0.197  15.018  0.00  0.00    +0.000 C 
ENDBRANCH   2   5
TORSDOF 2
ENDMDL
MODEL 7
REMARK VINA RESULT:      -2.9     37.145     38.728
REMARK  Name = 7288_3Pentanone.pdbqt.pdb
REMARK  2 active torsions:
REMARK  status: ('A' for Active; 'I' for Inactive)
REMARK    1  A    between atoms: C_2  and  C_3
REMARK    2  A    between atoms: C_2  and  C_5
REMARK                            x       y       z     vdW  Elec       q    Type
REMARK                         _______ _______ _______ _____ _____    ______ ____
ROOT
ATOM      1  O   UNL     1      14.583  10.138  29.210  0.00  0.00    +0.000 OA
ATOM      2  C   UNL     1      14.007   9.282  28.550  0.00  0.00    +0.000 C 
ENDROOT
BRANCH   2   3
ATOM      3  C   UNL     1      14.308   9.099  27.149  0.00  0.00    +0.000 C 
ATOM      4  C   UNL     1      14.634   8.881  25.659  0.00  0.00    +0.000 C 
ENDBRANCH   2   3
BRANCH   2   5
ATOM      5  C   UNL     1      13.010   8.429  29.151  0.00  0.00    +0.000 C 
ATOM      6  C   UNL     1      11.937   7.536  29.806  0.00  0.00    +0.000 C 
ENDBRANCH   2   5
TORSDOF 2
ENDMDL
MODEL 8
REMARK VINA RESULT:      -2.8      2.157      2.632
REMARK  Name = 7288_3Pentanone.pdbqt.pdb
REMARK  2 active torsions:
REMARK  status: ('A' for Active; 'I' for Inactive)
REMARK    1  A    between atoms: C_2  and  C_3
REMARK    2  A    between atoms: C_2  and  C_5
REMARK                            x       y       z     vdW  Elec       q    Type
REMARK                         _______ _______ _______ _____ _____    ______ ____
ROOT
ATOM      1  O   UNL     1      41.559  -4.945   8.938  0.00  0.00    +0.000 OA
ATOM      2  C   UNL     1      42.185  -5.778   9.583  0.00  0.00    +0.000 C 
ENDROOT
BRANCH   2   3
ATOM      3  C   UNL     1      41.928  -5.972  10.990  0.00  0.00    +0.000 C 
ATOM      4  C   UNL     1      41.630  -6.170  12.490  0.00  0.00    +0.000 C 
ENDBRANCH   2   3
BRANCH   2   5
ATOM      5  C   UNL     1      43.200  -6.590   8.956  0.00  0.00    +0.000 C 
ATOM      6  C   UNL     1      44.301  -7.451   8.303  0.00  0.00    +0.000 C 
ENDBRANCH   2   5
TORSDOF 2
ENDMDL
MODEL 9
REMARK VINA RESULT:      -2.8     27.114     28.513
REMARK  Name = 7288_3Pentanone.pdbqt.pdb
REMARK  2 active torsions:
REMARK  status: ('A' for Active; 'I' for Inactive)
REMARK    1  A    between atoms: C_2  and  C_3
REMARK    2  A    between atoms: C_2  and  C_5
REMARK                            x       y       z     vdW  Elec       q    Type
REMARK                         _______ _______ _______ _____ _____    ______ ____
ROOT
ATOM      1  O   UNL     1      26.376   1.605  29.633  0.00  0.00    +0.000 OA
ATOM      2  C   UNL     1      25.727   0.606  29.921  0.00  0.00    +0.000 C 
ENDROOT
BRANCH   2   3
ATOM      3  C   UNL     1      24.897   0.576  31.101  0.00  0.00    +0.000 C 
ATOM      4  C   UNL     1      23.995   0.560  32.351  0.00  0.00    +0.000 C 
ENDBRANCH   2   3
BRANCH   2   5
ATOM      5  C   UNL     1      25.773  -0.573  29.088  0.00  0.00    +0.000 C 
ATOM      6  C   UNL     1      25.800  -1.827  28.191  0.00  0.00    +0.000 C 
ENDBRANCH   2   5
TORSDOF 2
ENDMDL
