MODEL 1
REMARK VINA RESULT:      -7.5      0.000      0.000
REMARK  Name = 73299_Hederagenin.pdbqt.pdb
REMARK  5 active torsions:
REMARK  status: ('A' for Active; 'I' for Inactive)
REMARK    1  A    between atoms: C_9  and  C_35
REMARK    2  A    between atoms: C_14  and  C_32
REMARK    3  A    between atoms: C_17  and  O_29
REMARK    4  A    between atoms: C_32  and  O_33
REMARK    5  A    between atoms: C_35  and  O_36
REMARK                            x       y       z     vdW  Elec       q    Type
REMARK                         _______ _______ _______ _____ _____    ______ ____
ROOT
ATOM      1  C   UNL     1      23.843  23.213   1.449  0.00  0.00    +0.000 C 
ATOM      2  C   UNL     1      23.101  24.487   0.866  0.00  0.00    +0.000 C 
ATOM      3  C   UNL     1      23.784  25.844   0.665  0.00  0.00    +0.000 C 
ATOM      4  C   UNL     1      22.888  22.357   2.496  0.00  0.00    +0.000 C 
ATOM      5  C   UNL     1      24.890  26.238   1.687  0.00  0.00    +0.000 C 
ATOM      6  C   UNL     1      25.037  23.734   2.125  0.00  0.00    +0.000 C 
ATOM      7  C   UNL     1      25.561  25.124   2.265  0.00  0.00    +0.000 C 
ATOM      8  C   UNL     1      21.408  22.076   1.887  0.00  0.00    +0.000 C 
ATOM      9  C   UNL     1      25.061  27.666   2.233  0.00  0.00    +0.000 C 
ATOM     10  C   UNL     1      20.674  20.797   2.009  0.00  0.00    +0.000 C 
ATOM     11  C   UNL     1      21.710  24.245   0.633  0.00  0.00    +0.000 C 
ATOM     12  C   UNL     1      22.794  26.913   0.746  0.00  0.00    +0.000 C 
ATOM     13  C   UNL     1      23.401  21.007   2.792  0.00  0.00    +0.000 C 
ATOM     14  C   UNL     1      21.427  19.332   2.106  0.00  0.00    +0.000 C 
ATOM     15  C   UNL     1      24.270  22.328   0.207  0.00  0.00    +0.000 C 
ATOM     16  C   UNL     1      22.746  19.653   2.650  0.00  0.00    +0.000 C 
ATOM     17  C   UNL     1      24.034  28.745   1.796  0.00  0.00    +0.000 C 
ATOM     18  C   UNL     1      20.962  23.043   1.138  0.00  0.00    +0.000 C 
ATOM     19  C   UNL     1      24.438  25.836  -0.740  0.00  0.00    +0.000 C 
ATOM     20  C   UNL     1      22.813  28.320   1.245  0.00  0.00    +0.000 C 
ATOM     21  C   UNL     1      22.634  23.141   3.856  0.00  0.00    +0.000 C 
ATOM     22  C   UNL     1      19.330  20.830   2.586  0.00  0.00    +0.000 C 
ATOM     23  C   UNL     1      20.540  18.528   2.990  0.00  0.00    +0.000 C 
ATOM     24  C   UNL     1      18.321  20.061   3.408  0.00  0.00    +0.000 C 
ATOM     25  C   UNL     1      26.488  28.181   1.852  0.00  0.00    +0.000 C 
ATOM     26  C   UNL     1      19.133  18.814   3.577  0.00  0.00    +0.000 C 
ATOM     27  C   UNL     1      18.055  20.758   4.755  0.00  0.00    +0.000 C 
ATOM     28  C   UNL     1      17.028  19.803   2.615  0.00  0.00    +0.000 C 
ENDROOT
BRANCH  17  29
ATOM     29  O   UNL     1      24.405  30.072   1.655  0.00  0.00    +0.000 OA
ATOM     30  H   UNL     1      23.862  30.649   2.232  0.00  0.00    +0.000 HD
ENDBRANCH  17  29
BRANCH  14  32
ATOM     31  O   UNL     1      21.455  19.374  -0.357  0.00  0.00    +0.000 OA
ATOM     32  C   UNL     1      21.474  18.742   0.691  0.00  0.00    +0.000 C 
BRANCH  32  33
ATOM     33  O   UNL     1      21.467  17.391   0.651  0.00  0.00    +0.000 OA
ATOM     34  H   UNL     1      22.049  17.110   1.389  0.00  0.00    +0.000 HD
ENDBRANCH  32  33
ENDBRANCH  14  32
BRANCH   9  35
ATOM     35  C   UNL     1      24.942  27.598   3.724  0.00  0.00    +0.000 C 
BRANCH  35  36
ATOM     36  O   UNL     1      24.822  27.533   5.053  0.00  0.00    +0.000 OA
ATOM     37  H   UNL     1      25.563  27.037   5.448  0.00  0.00    +0.000 HD
ENDBRANCH  35  36
ENDBRANCH   9  35
TORSDOF 5
ENDMDL
MODEL 2
REMARK VINA RESULT:      -7.5      1.931      2.690
REMARK  Name = 73299_Hederagenin.pdbqt.pdb
REMARK  5 active torsions:
REMARK  status: ('A' for Active; 'I' for Inactive)
REMARK    1  A    between atoms: C_9  and  C_35
REMARK    2  A    between atoms: C_14  and  C_32
REMARK    3  A    between atoms: C_17  and  O_29
REMARK    4  A    between atoms: C_32  and  O_33
REMARK    5  A    between atoms: C_35  and  O_36
REMARK                            x       y       z     vdW  Elec       q    Type
REMARK                         _______ _______ _______ _____ _____    ______ ____
ROOT
ATOM      1  C   UNL     1      24.151  25.281   2.545  0.00  0.00    +0.000 C 
ATOM      2  C   UNL     1      23.099  26.445   2.310  0.00  0.00    +0.000 C 
ATOM      3  C   UNL     1      23.356  27.905   2.699  0.00  0.00    +0.000 C 
ATOM      4  C   UNL     1      23.430  23.883   3.063  0.00  0.00    +0.000 C 
ATOM      5  C   UNL     1      24.223  28.158   3.966  0.00  0.00    +0.000 C 
ATOM      6  C   UNL     1      25.086  25.799   3.550  0.00  0.00    +0.000 C 
ATOM      7  C   UNL     1      25.158  27.121   4.239  0.00  0.00    +0.000 C 
ATOM      8  C   UNL     1      22.146  23.480   2.153  0.00  0.00    +0.000 C 
ATOM      9  C   UNL     1      23.922  29.273   4.982  0.00  0.00    +0.000 C 
ATOM     10  C   UNL     1      21.823  22.106   1.709  0.00  0.00    +0.000 C 
ATOM     11  C   UNL     1      21.864  25.959   1.777  0.00  0.00    +0.000 C 
ATOM     12  C   UNL     1      22.087  28.575   2.967  0.00  0.00    +0.000 C 
ATOM     13  C   UNL     1      24.305  22.699   2.969  0.00  0.00    +0.000 C 
ATOM     14  C   UNL     1      22.973  20.955   1.432  0.00  0.00    +0.000 C 
ATOM     15  C   UNL     1      24.902  25.063   1.170  0.00  0.00    +0.000 C 
ATOM     16  C   UNL     1      24.097  21.377   2.268  0.00  0.00    +0.000 C 
ATOM     17  C   UNL     1      22.649  30.135   4.768  0.00  0.00    +0.000 C 
ATOM     18  C   UNL     1      21.480  24.508   1.712  0.00  0.00    +0.000 C 
ATOM     19  C   UNL     1      24.072  28.588   1.506  0.00  0.00    +0.000 C 
ATOM     20  C   UNL     1      21.650  29.648   3.907  0.00  0.00    +0.000 C 
ATOM     21  C   UNL     1      22.865  24.010   4.544  0.00  0.00    +0.000 C 
ATOM     22  C   UNL     1      20.497  21.576   2.027  0.00  0.00    +0.000 C 
ATOM     23  C   UNL     1      22.313  19.683   1.828  0.00  0.00    +0.000 C 
ATOM     24  C   UNL     1      19.714  20.326   2.357  0.00  0.00    +0.000 C 
ATOM     25  C   UNL     1      25.150  30.239   5.046  0.00  0.00    +0.000 C 
ATOM     26  C   UNL     1      20.850  19.359   2.229  0.00  0.00    +0.000 C 
ATOM     27  C   UNL     1      19.163  20.378   3.794  0.00  0.00    +0.000 C 
ATOM     28  C   UNL     1      18.612  20.060   1.316  0.00  0.00    +0.000 C 
ENDROOT
BRANCH  17  29
ATOM     29  O   UNL     1      22.613  31.466   5.149  0.00  0.00    +0.000 OA
ATOM     30  H   UNL     1      22.389  31.551   6.099  0.00  0.00    +0.000 HD
ENDBRANCH  17  29
BRANCH  14  32
ATOM     31  O   UNL     1      22.559  21.395  -0.956  0.00  0.00    +0.000 OA
ATOM     32  C   UNL     1      23.287  20.968  -0.069  0.00  0.00    +0.000 C 
BRANCH  32  33
ATOM     33  O   UNL     1      24.458  20.380  -0.398  0.00  0.00    +0.000 OA
ATOM     34  H   UNL     1      24.238  19.760  -1.126  0.00  0.00    +0.000 HD
ENDBRANCH  32  33
ENDBRANCH  14  32
BRANCH   9  35
ATOM     35  C   UNL     1      23.733  28.626   6.319  0.00  0.00    +0.000 C 
BRANCH  35  36
ATOM     36  O   UNL     1      23.553  28.059   7.516  0.00  0.00    +0.000 OA
ATOM     37  H   UNL     1      22.993  28.616   8.087  0.00  0.00    +0.000 HD
ENDBRANCH  35  36
ENDBRANCH   9  35
TORSDOF 5
ENDMDL
MODEL 3
REMARK VINA RESULT:      -7.2     26.145     28.969
REMARK  Name = 73299_Hederagenin.pdbqt.pdb
REMARK  5 active torsions:
REMARK  status: ('A' for Active; 'I' for Inactive)
REMARK    1  A    between atoms: C_9  and  C_35
REMARK    2  A    between atoms: C_14  and  C_32
REMARK    3  A    between atoms: C_17  and  O_29
REMARK    4  A    between atoms: C_32  and  O_33
REMARK    5  A    between atoms: C_35  and  O_36
REMARK                            x       y       z     vdW  Elec       q    Type
REMARK                         _______ _______ _______ _____ _____    ______ ____
ROOT
ATOM      1  C   UNL     1      41.360  13.431  21.560  0.00  0.00    +0.000 C 
ATOM      2  C   UNL     1      39.838  13.388  21.116  0.00  0.00    +0.000 C 
ATOM      3  C   UNL     1      38.911  12.200  21.394  0.00  0.00    +0.000 C 
ATOM      4  C   UNL     1      42.331  14.106  20.400  0.00  0.00    +0.000 C 
ATOM      5  C   UNL     1      39.554  10.783  21.386  0.00  0.00    +0.000 C 
ATOM      6  C   UNL     1      41.731  12.034  21.813  0.00  0.00    +0.000 C 
ATOM      7  C   UNL     1      40.932  10.776  21.743  0.00  0.00    +0.000 C 
ATOM      8  C   UNL     1      41.735  15.510  19.842  0.00  0.00    +0.000 C 
ATOM      9  C   UNL     1      38.860   9.548  20.788  0.00  0.00    +0.000 C 
ATOM     10  C   UNL     1      42.541  16.718  19.562  0.00  0.00    +0.000 C 
ATOM     11  C   UNL     1      39.463  14.542  20.358  0.00  0.00    +0.000 C 
ATOM     12  C   UNL     1      37.860  12.146  20.383  0.00  0.00    +0.000 C 
ATOM     13  C   UNL     1      43.671  14.473  20.895  0.00  0.00    +0.000 C 
ATOM     14  C   UNL     1      43.922  17.090  20.385  0.00  0.00    +0.000 C 
ATOM     15  C   UNL     1      41.417  14.258  22.908  0.00  0.00    +0.000 C 
ATOM     16  C   UNL     1      44.402  15.795  20.865  0.00  0.00    +0.000 C 
ATOM     17  C   UNL     1      37.485   9.743  20.096  0.00  0.00    +0.000 C 
ATOM     18  C   UNL     1      40.434  15.539  19.792  0.00  0.00    +0.000 C 
ATOM     19  C   UNL     1      38.284  12.414  22.796  0.00  0.00    +0.000 C 
ATOM     20  C   UNL     1      37.109  11.044  19.715  0.00  0.00    +0.000 C 
ATOM     21  C   UNL     1      42.472  13.176  19.118  0.00  0.00    +0.000 C 
ATOM     22  C   UNL     1      42.453  17.309  18.226  0.00  0.00    +0.000 C 
ATOM     23  C   UNL     1      44.778  17.762  19.370  0.00  0.00    +0.000 C 
ATOM     24  C   UNL     1      43.209  18.065  17.158  0.00  0.00    +0.000 C 
ATOM     25  C   UNL     1      38.681   8.478  21.915  0.00  0.00    +0.000 C 
ATOM     26  C   UNL     1      44.487  18.233  17.922  0.00  0.00    +0.000 C 
ATOM     27  C   UNL     1      43.403  17.203  15.897  0.00  0.00    +0.000 C 
ATOM     28  C   UNL     1      42.543  19.418  16.848  0.00  0.00    +0.000 C 
ENDROOT
BRANCH  17  29
ATOM     29  O   UNL     1      36.521   8.749  20.123  0.00  0.00    +0.000 OA
ATOM     30  H   UNL     1      36.018   8.728  19.282  0.00  0.00    +0.000 HD
ENDBRANCH  17  29
BRANCH  14  32
ATOM     31  O   UNL     1      43.574  19.282  21.455  0.00  0.00    +0.000 OA
ATOM     32  C   UNL     1      43.542  18.059  21.511  0.00  0.00    +0.000 C 
BRANCH  32  33
ATOM     33  O   UNL     1      43.213  17.458  22.676  0.00  0.00    +0.000 OA
ATOM     34  H   UNL     1      43.963  17.642  23.280  0.00  0.00    +0.000 HD
ENDBRANCH  32  33
ENDBRANCH  14  32
BRANCH   9  35
ATOM     35  C   UNL     1      39.757   8.997  19.723  0.00  0.00    +0.000 C 
BRANCH  35  36
ATOM     36  O   UNL     1      40.559   8.493  18.782  0.00  0.00    +0.000 OA
ATOM     37  H   UNL     1      40.911   9.197  18.207  0.00  0.00    +0.000 HD
ENDBRANCH  35  36
ENDBRANCH   9  35
TORSDOF 5
ENDMDL
MODEL 4
REMARK VINA RESULT:      -7.1      1.695      2.638
REMARK  Name = 73299_Hederagenin.pdbqt.pdb
REMARK  5 active torsions:
REMARK  status: ('A' for Active; 'I' for Inactive)
REMARK    1  A    between atoms: C_9  and  C_35
REMARK    2  A    between atoms: C_14  and  C_32
REMARK    3  A    between atoms: C_17  and  O_29
REMARK    4  A    between atoms: C_32  and  O_33
REMARK    5  A    between atoms: C_35  and  O_36
REMARK                            x       y       z     vdW  Elec       q    Type
REMARK                         _______ _______ _______ _____ _____    ______ ____
ROOT
ATOM      1  C   UNL     1      23.787  24.605   0.233  0.00  0.00    +0.000 C 
ATOM      2  C   UNL     1      23.143  25.601   1.286  0.00  0.00    +0.000 C 
ATOM      3  C   UNL     1      23.716  26.989   1.595  0.00  0.00    +0.000 C 
ATOM      4  C   UNL     1      23.766  23.036   0.763  0.00  0.00    +0.000 C 
ATOM      5  C   UNL     1      25.262  27.149   1.521  0.00  0.00    +0.000 C 
ATOM      6  C   UNL     1      25.162  25.081   0.039  0.00  0.00    +0.000 C 
ATOM      7  C   UNL     1      25.890  26.249   0.614  0.00  0.00    +0.000 C 
ATOM      8  C   UNL     1      22.306  22.598   1.325  0.00  0.00    +0.000 C 
ATOM      9  C   UNL     1      26.069  27.995   2.521  0.00  0.00    +0.000 C 
ATOM     10  C   UNL     1      21.659  21.293   1.066  0.00  0.00    +0.000 C 
ATOM     11  C   UNL     1      22.026  25.022   1.966  0.00  0.00    +0.000 C 
ATOM     12  C   UNL     1      23.359  27.379   2.955  0.00  0.00    +0.000 C 
ATOM     13  C   UNL     1      24.036  22.052  -0.302  0.00  0.00    +0.000 C 
ATOM     14  C   UNL     1      21.913  20.419  -0.311  0.00  0.00    +0.000 C 
ATOM     15  C   UNL     1      22.965  24.768  -1.109  0.00  0.00    +0.000 C 
ATOM     16  C   UNL     1      23.230  20.863  -0.768  0.00  0.00    +0.000 C 
ATOM     17  C   UNL     1      25.309  28.658   3.700  0.00  0.00    +0.000 C 
ATOM     18  C   UNL     1      21.668  23.563   1.921  0.00  0.00    +0.000 C 
ATOM     19  C   UNL     1      23.100  27.987   0.581  0.00  0.00    +0.000 C 
ATOM     20  C   UNL     1      24.028  28.176   4.024  0.00  0.00    +0.000 C 
ATOM     21  C   UNL     1      24.766  22.798   1.976  0.00  0.00    +0.000 C 
ATOM     22  C   UNL     1      21.225  20.501   2.218  0.00  0.00    +0.000 C 
ATOM     23  C   UNL     1      21.827  19.004   0.139  0.00  0.00    +0.000 C 
ATOM     24  C   UNL     1      21.022  19.100   2.746  0.00  0.00    +0.000 C 
ATOM     25  C   UNL     1      26.815  29.124   1.736  0.00  0.00    +0.000 C 
ATOM     26  C   UNL     1      21.412  18.374   1.495  0.00  0.00    +0.000 C 
ATOM     27  C   UNL     1      21.987  18.798   3.907  0.00  0.00    +0.000 C 
ATOM     28  C   UNL     1      19.552  18.848   3.123  0.00  0.00    +0.000 C 
ENDROOT
BRANCH  17  29
ATOM     29  O   UNL     1      25.719  29.873   4.223  0.00  0.00    +0.000 OA
ATOM     30  H   UNL     1      25.634  29.879   5.200  0.00  0.00    +0.000 HD
ENDBRANCH  17  29
BRANCH  14  32
ATOM     31  O   UNL     1      19.870  20.008  -1.624  0.00  0.00    +0.000 OA
ATOM     32  C   UNL     1      20.779  20.755  -1.287  0.00  0.00    +0.000 C 
BRANCH  32  33
ATOM     33  O   UNL     1      20.875  21.979  -1.853  0.00  0.00    +0.000 OA
ATOM     34  H   UNL     1      20.171  22.514  -1.427  0.00  0.00    +0.000 HD
ENDBRANCH  32  33
ENDBRANCH  14  32
BRANCH   9  35
ATOM     35  C   UNL     1      27.077  27.094   3.165  0.00  0.00    +0.000 C 
BRANCH  35  36
ATOM     36  O   UNL     1      27.969  26.278   3.734  0.00  0.00    +0.000 OA
ATOM     37  H   UNL     1      27.527  25.541   4.194  0.00  0.00    +0.000 HD
ENDBRANCH  35  36
ENDBRANCH   9  35
TORSDOF 5
ENDMDL
MODEL 5
REMARK VINA RESULT:      -6.4     16.257     19.902
REMARK  Name = 73299_Hederagenin.pdbqt.pdb
REMARK  5 active torsions:
REMARK  status: ('A' for Active; 'I' for Inactive)
REMARK    1  A    between atoms: C_9  and  C_35
REMARK    2  A    between atoms: C_14  and  C_32
REMARK    3  A    between atoms: C_17  and  O_29
REMARK    4  A    between atoms: C_32  and  O_33
REMARK    5  A    between atoms: C_35  and  O_36
REMARK                            x       y       z     vdW  Elec       q    Type
REMARK                         _______ _______ _______ _____ _____    ______ ____
ROOT
ATOM      1  C   UNL     1      29.789   8.902  -7.397  0.00  0.00    +0.000 C 
ATOM      2  C   UNL     1      29.140  10.344  -7.282  0.00  0.00    +0.000 C 
ATOM      3  C   UNL     1      27.655  10.625  -7.540  0.00  0.00    +0.000 C 
ATOM      4  C   UNL     1      31.284   8.943  -8.107  0.00  0.00    +0.000 C 
ATOM      5  C   UNL     1      26.949   9.759  -8.623  0.00  0.00    +0.000 C 
ATOM      6  C   UNL     1      28.844   8.113  -8.196  0.00  0.00    +0.000 C 
ATOM      7  C   UNL     1      27.521   8.466  -8.788  0.00  0.00    +0.000 C 
ATOM      8  C   UNL     1      32.242  10.082  -7.454  0.00  0.00    +0.000 C 
ATOM      9  C   UNL     1      25.918  10.327  -9.614  0.00  0.00    +0.000 C 
ATOM     10  C   UNL     1      33.678   9.903  -7.149  0.00  0.00    +0.000 C 
ATOM     11  C   UNL     1      30.112  11.354  -6.997  0.00  0.00    +0.000 C 
ATOM     12  C   UNL     1      27.483  12.004  -7.985  0.00  0.00    +0.000 C 
ATOM     13  C   UNL     1      32.055   7.699  -7.928  0.00  0.00    +0.000 C 
ATOM     14  C   UNL     1      34.338   8.446  -6.742  0.00  0.00    +0.000 C 
ATOM     15  C   UNL     1      29.868   8.321  -5.926  0.00  0.00    +0.000 C 
ATOM     16  C   UNL     1      33.432   7.471  -7.348  0.00  0.00    +0.000 C 
ATOM     17  C   UNL     1      25.627  11.851  -9.574  0.00  0.00    +0.000 C 
ATOM     18  C   UNL     1      31.598  11.149  -7.078  0.00  0.00    +0.000 C 
ATOM     19  C   UNL     1      26.898  10.402  -6.206  0.00  0.00    +0.000 C 
ATOM     20  C   UNL     1      26.550  12.690  -8.926  0.00  0.00    +0.000 C 
ATOM     21  C   UNL     1      31.205   9.304  -9.654  0.00  0.00    +0.000 C 
ATOM     22  C   UNL     1      34.626  10.862  -7.718  0.00  0.00    +0.000 C 
ATOM     23  C   UNL     1      35.710   8.498  -7.315  0.00  0.00    +0.000 C 
ATOM     24  C   UNL     1      36.030  11.043  -8.246  0.00  0.00    +0.000 C 
ATOM     25  C   UNL     1      24.561   9.575  -9.412  0.00  0.00    +0.000 C 
ATOM     26  C   UNL     1      36.509   9.649  -7.979  0.00  0.00    +0.000 C 
ATOM     27  C   UNL     1      36.021  11.367  -9.751  0.00  0.00    +0.000 C 
ATOM     28  C   UNL     1      36.810  12.087  -7.426  0.00  0.00    +0.000 C 
ENDROOT
BRANCH  17  29
ATOM     29  O   UNL     1      24.372  12.349  -9.882  0.00  0.00    +0.000 OA
ATOM     30  H   UNL     1      24.124  12.123 -10.803  0.00  0.00    +0.000 HD
ENDBRANCH  17  29
BRANCH  14  32
ATOM     31  O   UNL     1      34.185   7.374  -4.529  0.00  0.00    +0.000 OA
ATOM     32  C   UNL     1      34.385   8.371  -5.211  0.00  0.00    +0.000 C 
BRANCH  32  33
ATOM     33  O   UNL     1      34.604   9.558  -4.601  0.00  0.00    +0.000 OA
ATOM     34  H   UNL     1      34.842   9.330  -3.677  0.00  0.00    +0.000 HD
ENDBRANCH  32  33
ENDBRANCH  14  32
BRANCH   9  35
ATOM     35  C   UNL     1      26.428  10.064 -10.997  0.00  0.00    +0.000 C 
BRANCH  35  36
ATOM     36  O   UNL     1      26.870   9.835 -12.237  0.00  0.00    +0.000 OA
ATOM     37  H   UNL     1      26.879   8.881 -12.436  0.00  0.00    +0.000 HD
ENDBRANCH  35  36
ENDBRANCH   9  35
TORSDOF 5
ENDMDL
MODEL 6
REMARK VINA RESULT:      -6.4     30.268     32.548
REMARK  Name = 73299_Hederagenin.pdbqt.pdb
REMARK  5 active torsions:
REMARK  status: ('A' for Active; 'I' for Inactive)
REMARK    1  A    between atoms: C_9  and  C_35
REMARK    2  A    between atoms: C_14  and  C_32
REMARK    3  A    between atoms: C_17  and  O_29
REMARK    4  A    between atoms: C_32  and  O_33
REMARK    5  A    between atoms: C_35  and  O_36
REMARK                            x       y       z     vdW  Elec       q    Type
REMARK                         _______ _______ _______ _____ _____    ______ ____
ROOT
ATOM      1  C   UNL     1      26.045  20.517  33.564  0.00  0.00    +0.000 C 
ATOM      2  C   UNL     1      25.250  20.954  34.865  0.00  0.00    +0.000 C 
ATOM      3  C   UNL     1      25.912  21.629  36.071  0.00  0.00    +0.000 C 
ATOM      4  C   UNL     1      25.538  19.051  32.985  0.00  0.00    +0.000 C 
ATOM      5  C   UNL     1      27.375  21.214  36.401  0.00  0.00    +0.000 C 
ATOM      6  C   UNL     1      27.455  20.469  33.968  0.00  0.00    +0.000 C 
ATOM      7  C   UNL     1      28.118  20.779  35.268  0.00  0.00    +0.000 C 
ATOM      8  C   UNL     1      23.920  18.963  32.868  0.00  0.00    +0.000 C 
ATOM      9  C   UNL     1      27.892  21.023  37.837  0.00  0.00    +0.000 C 
ATOM     10  C   UNL     1      23.188  18.350  31.738  0.00  0.00    +0.000 C 
ATOM     11  C   UNL     1      23.874  20.567  34.814  0.00  0.00    +0.000 C 
ATOM     12  C   UNL     1      25.152  21.335  37.282  0.00  0.00    +0.000 C 
ATOM     13  C   UNL     1      25.999  18.769  31.613  0.00  0.00    +0.000 C 
ATOM     14  C   UNL     1      23.770  18.325  30.194  0.00  0.00    +0.000 C 
ATOM     15  C   UNL     1      25.828  21.663  32.494  0.00  0.00    +0.000 C 
ATOM     16  C   UNL     1      25.220  18.414  30.368  0.00  0.00    +0.000 C 
ATOM     17  C   UNL     1      26.883  21.183  39.006  0.00  0.00    +0.000 C 
ATOM     18  C   UNL     1      23.296  19.617  33.804  0.00  0.00    +0.000 C 
ATOM     19  C   UNL     1      25.915  23.157  35.809  0.00  0.00    +0.000 C 
ATOM     20  C   UNL     1      25.509  21.122  38.715  0.00  0.00    +0.000 C 
ATOM     21  C   UNL     1      25.951  17.850  33.943  0.00  0.00    +0.000 C 
ATOM     22  C   UNL     1      22.217  17.297  32.039  0.00  0.00    +0.000 C 
ATOM     23  C   UNL     1      23.263  17.042  29.638  0.00  0.00    +0.000 C 
ATOM     24  C   UNL     1      21.576  16.027  31.529  0.00  0.00    +0.000 C 
ATOM     25  C   UNL     1      29.071  22.021  38.083  0.00  0.00    +0.000 C 
ATOM     26  C   UNL     1      22.264  15.996  30.198  0.00  0.00    +0.000 C 
ATOM     27  C   UNL     1      21.964  14.820  32.402  0.00  0.00    +0.000 C 
ATOM     28  C   UNL     1      20.052  16.183  31.386  0.00  0.00    +0.000 C 
ENDROOT
BRANCH  17  29
ATOM     29  O   UNL     1      27.285  21.674  40.237  0.00  0.00    +0.000 OA
ATOM     30  H   UNL     1      27.649  20.957  40.797  0.00  0.00    +0.000 HD
ENDBRANCH  17  29
BRANCH  14  32
ATOM     31  O   UNL     1      21.974  19.766  29.322  0.00  0.00    +0.000 OA
ATOM     32  C   UNL     1      23.166  19.523  29.452  0.00  0.00    +0.000 C 
BRANCH  32  33
ATOM     33  O   UNL     1      24.075  20.319  28.846  0.00  0.00    +0.000 OA
ATOM     34  H   UNL     1      24.940  19.880  28.996  0.00  0.00    +0.000 HD
ENDBRANCH  32  33
ENDBRANCH  14  32
BRANCH   9  35
ATOM     35  C   UNL     1      28.401  19.620  37.952  0.00  0.00    +0.000 C 
BRANCH  35  36
ATOM     36  O   UNL     1      28.870  18.373  38.055  0.00  0.00    +0.000 OA
ATOM     37  H   UNL     1      29.817  18.372  38.287  0.00  0.00    +0.000 HD
ENDBRANCH  35  36
ENDBRANCH   9  35
TORSDOF 5
ENDMDL
MODEL 7
REMARK VINA RESULT:      -6.3     36.582     38.543
REMARK  Name = 73299_Hederagenin.pdbqt.pdb
REMARK  5 active torsions:
REMARK  status: ('A' for Active; 'I' for Inactive)
REMARK    1  A    between atoms: C_9  and  C_35
REMARK    2  A    between atoms: C_14  and  C_32
REMARK    3  A    between atoms: C_17  and  O_29
REMARK    4  A    between atoms: C_32  and  O_33
REMARK    5  A    between atoms: C_35  and  O_36
REMARK                            x       y       z     vdW  Elec       q    Type
REMARK                         _______ _______ _______ _____ _____    ______ ____
ROOT
ATOM      1  C   UNL     1      33.272  11.513  37.287  0.00  0.00    +0.000 C 
ATOM      2  C   UNL     1      34.280  12.502  38.009  0.00  0.00    +0.000 C 
ATOM      3  C   UNL     1      33.830  13.658  38.909  0.00  0.00    +0.000 C 
ATOM      4  C   UNL     1      33.750  11.149  35.744  0.00  0.00    +0.000 C 
ATOM      5  C   UNL     1      32.495  14.366  38.537  0.00  0.00    +0.000 C 
ATOM      6  C   UNL     1      31.978  12.206  37.291  0.00  0.00    +0.000 C 
ATOM      7  C   UNL     1      31.571  13.527  37.853  0.00  0.00    +0.000 C 
ATOM      8  C   UNL     1      35.314  10.714  35.673  0.00  0.00    +0.000 C 
ATOM      9  C   UNL     1      32.292  15.887  38.643  0.00  0.00    +0.000 C 
ATOM     10  C   UNL     1      35.845   9.603  34.853  0.00  0.00    +0.000 C 
ATOM     11  C   UNL     1      35.641  12.241  37.655  0.00  0.00    +0.000 C 
ATOM     12  C   UNL     1      34.836  14.714  38.896  0.00  0.00    +0.000 C 
ATOM     13  C   UNL     1      33.043   9.991  35.166  0.00  0.00    +0.000 C 
ATOM     14  C   UNL     1      34.966   8.255  34.486  0.00  0.00    +0.000 C 
ATOM     15  C   UNL     1      33.190  10.212  38.184  0.00  0.00    +0.000 C 
ATOM     16  C   UNL     1      33.578   8.708  34.574  0.00  0.00    +0.000 C 
ATOM     17  C   UNL     1      33.501  16.760  39.071  0.00  0.00    +0.000 C 
ATOM     18  C   UNL     1      36.068  11.345  36.526  0.00  0.00    +0.000 C 
ATOM     19  C   UNL     1      33.670  13.098  40.346  0.00  0.00    +0.000 C 
ATOM     20  C   UNL     1      34.790  16.203  38.984  0.00  0.00    +0.000 C 
ATOM     21  C   UNL     1      33.621  12.395  34.764  0.00  0.00    +0.000 C 
ATOM     22  C   UNL     1      36.925   9.899  33.911  0.00  0.00    +0.000 C 
ATOM     23  C   UNL     1      35.438   7.876  33.127  0.00  0.00    +0.000 C 
ATOM     24  C   UNL     1      37.535   9.534  32.578  0.00  0.00    +0.000 C 
ATOM     25  C   UNL     1      31.121  16.168  39.641  0.00  0.00    +0.000 C 
ATOM     26  C   UNL     1      36.598   8.412  32.248  0.00  0.00    +0.000 C 
ATOM     27  C   UNL     1      37.414  10.695  31.574  0.00  0.00    +0.000 C 
ATOM     28  C   UNL     1      38.985   9.044  32.737  0.00  0.00    +0.000 C 
ENDROOT
BRANCH  17  29
ATOM     29  O   UNL     1      33.323  17.922  39.803  0.00  0.00    +0.000 OA
ATOM     30  H   UNL     1      33.706  17.831  40.701  0.00  0.00    +0.000 HD
ENDBRANCH  17  29
BRANCH  14  32
ATOM     31  O   UNL     1      36.453   6.885  35.893  0.00  0.00    +0.000 OA
ATOM     32  C   UNL     1      35.326   7.175  35.513  0.00  0.00    +0.000 C 
BRANCH  32  33
ATOM     33  O   UNL     1      34.271   6.460  35.962  0.00  0.00    +0.000 OA
ATOM     34  H   UNL     1      34.132   6.761  36.886  0.00  0.00    +0.000 HD
ENDBRANCH  32  33
ENDBRANCH  14  32
BRANCH   9  35
ATOM     35  C   UNL     1      31.913  16.388  37.284  0.00  0.00    +0.000 C 
BRANCH  35  36
ATOM     36  O   UNL     1      31.560  16.831  36.074  0.00  0.00    +0.000 OA
ATOM     37  H   UNL     1      30.759  17.385  36.123  0.00  0.00    +0.000 HD
ENDBRANCH  35  36
ENDBRANCH   9  35
TORSDOF 5
ENDMDL
MODEL 8
REMARK VINA RESULT:      -6.2     17.690     21.511
REMARK  Name = 73299_Hederagenin.pdbqt.pdb
REMARK  5 active torsions:
REMARK  status: ('A' for Active; 'I' for Inactive)
REMARK    1  A    between atoms: C_9  and  C_35
REMARK    2  A    between atoms: C_14  and  C_32
REMARK    3  A    between atoms: C_17  and  O_29
REMARK    4  A    between atoms: C_32  and  O_33
REMARK    5  A    between atoms: C_35  and  O_36
REMARK                            x       y       z     vdW  Elec       q    Type
REMARK                         _______ _______ _______ _____ _____    ______ ____
ROOT
ATOM      1  C   UNL     1      33.798   8.924  -8.371  0.00  0.00    +0.000 C 
ATOM      2  C   UNL     1      33.089   9.220  -6.984  0.00  0.00    +0.000 C 
ATOM      3  C   UNL     1      31.643   8.816  -6.673  0.00  0.00    +0.000 C 
ATOM      4  C   UNL     1      34.737  10.192  -8.876  0.00  0.00    +0.000 C 
ATOM      5  C   UNL     1      30.631   8.840  -7.855  0.00  0.00    +0.000 C 
ATOM      6  C   UNL     1      32.708   8.663  -9.318  0.00  0.00    +0.000 C 
ATOM      7  C   UNL     1      31.229   8.616  -9.127  0.00  0.00    +0.000 C 
ATOM      8  C   UNL     1      35.717  10.735  -7.700  0.00  0.00    +0.000 C 
ATOM      9  C   UNL     1      29.180   9.330  -7.710  0.00  0.00    +0.000 C 
ATOM     10  C   UNL     1      37.130  11.130  -7.895  0.00  0.00    +0.000 C 
ATOM     11  C   UNL     1      33.922   9.975  -6.100  0.00  0.00    +0.000 C 
ATOM     12  C   UNL     1      31.082   9.721  -5.674  0.00  0.00    +0.000 C 
ATOM     13  C   UNL     1      35.666   9.839  -9.965  0.00  0.00    +0.000 C 
ATOM     14  C   UNL     1      38.105  10.454  -9.042  0.00  0.00    +0.000 C 
ATOM     15  C   UNL     1      34.664   7.615  -8.169  0.00  0.00    +0.000 C 
ATOM     16  C   UNL     1      37.167   9.981 -10.061  0.00  0.00    +0.000 C 
ATOM     17  C   UNL     1      28.731   9.894  -6.336  0.00  0.00    +0.000 C 
ATOM     18  C   UNL     1      35.193  10.662  -6.511  0.00  0.00    +0.000 C 
ATOM     19  C   UNL     1      31.670   7.369  -6.118  0.00  0.00    +0.000 C 
ATOM     20  C   UNL     1      29.722  10.279  -5.416  0.00  0.00    +0.000 C 
ATOM     21  C   UNL     1      33.866  11.452  -9.305  0.00  0.00    +0.000 C 
ATOM     22  C   UNL     1      37.534  12.469  -7.466  0.00  0.00    +0.000 C 
ATOM     23  C   UNL     1      39.002  11.567  -9.455  0.00  0.00    +0.000 C 
ATOM     24  C   UNL     1      38.463  13.628  -7.749  0.00  0.00    +0.000 C 
ATOM     25  C   UNL     1      28.215   8.157  -8.085  0.00  0.00    +0.000 C 
ATOM     26  C   UNL     1      39.204  12.995  -8.887  0.00  0.00    +0.000 C 
ATOM     27  C   UNL     1      37.677  14.873  -8.199  0.00  0.00    +0.000 C 
ATOM     28  C   UNL     1      39.385  13.916  -6.551  0.00  0.00    +0.000 C 
ENDROOT
BRANCH  17  29
ATOM     29  O   UNL     1      27.428   9.744  -5.891  0.00  0.00    +0.000 OA
ATOM     30  H   UNL     1      27.334  10.067  -4.971  0.00  0.00    +0.000 HD
ENDBRANCH  17  29
BRANCH  14  32
ATOM     31  O   UNL     1      38.434   8.302  -7.890  0.00  0.00    +0.000 OA
ATOM     32  C   UNL     1      38.899   9.328  -8.369  0.00  0.00    +0.000 C 
BRANCH  32  33
ATOM     33  O   UNL     1      40.224   9.570  -8.259  0.00  0.00    +0.000 OA
ATOM     34  H   UNL     1      40.614   9.247  -9.100  0.00  0.00    +0.000 HD
ENDBRANCH  32  33
ENDBRANCH  14  32
BRANCH   9  35
ATOM     35  C   UNL     1      28.985  10.457  -8.676  0.00  0.00    +0.000 C 
BRANCH  35  36
ATOM     36  O   UNL     1      28.796  11.464  -9.534  0.00  0.00    +0.000 OA
ATOM     37  H   UNL     1      29.568  12.059  -9.552  0.00  0.00    +0.000 HD
ENDBRANCH  35  36
ENDBRANCH   9  35
TORSDOF 5
ENDMDL
MODEL 9
REMARK VINA RESULT:      -6.2     29.438     32.767
REMARK  Name = 73299_Hederagenin.pdbqt.pdb
REMARK  5 active torsions:
REMARK  status: ('A' for Active; 'I' for Inactive)
REMARK    1  A    between atoms: C_9  and  C_35
REMARK    2  A    between atoms: C_14  and  C_32
REMARK    3  A    between atoms: C_17  and  O_29
REMARK    4  A    between atoms: C_32  and  O_33
REMARK    5  A    between atoms: C_35  and  O_36
REMARK                            x       y       z     vdW  Elec       q    Type
REMARK                         _______ _______ _______ _____ _____    ______ ____
ROOT
ATOM      1  C   UNL     1      21.586  16.309  33.942  0.00  0.00    +0.000 C 
ATOM      2  C   UNL     1      21.810  14.980  33.106  0.00  0.00    +0.000 C 
ATOM      3  C   UNL     1      21.722  13.576  33.713  0.00  0.00    +0.000 C 
ATOM      4  C   UNL     1      22.655  17.501  33.520  0.00  0.00    +0.000 C 
ATOM      5  C   UNL     1      22.184  13.413  35.190  0.00  0.00    +0.000 C 
ATOM      6  C   UNL     1      21.755  15.918  35.346  0.00  0.00    +0.000 C 
ATOM      7  C   UNL     1      22.035  14.593  35.972  0.00  0.00    +0.000 C 
ATOM      8  C   UNL     1      22.744  17.704  31.910  0.00  0.00    +0.000 C 
ATOM      9  C   UNL     1      22.978  12.196  35.693  0.00  0.00    +0.000 C 
ATOM     10  C   UNL     1      22.812  19.014  31.227  0.00  0.00    +0.000 C 
ATOM     11  C   UNL     1      22.185  15.249  31.752  0.00  0.00    +0.000 C 
ATOM     12  C   UNL     1      22.557  12.654  32.950  0.00  0.00    +0.000 C 
ATOM     13  C   UNL     1      22.273  18.836  34.016  0.00  0.00    +0.000 C 
ATOM     14  C   UNL     1      22.120  20.384  31.835  0.00  0.00    +0.000 C 
ATOM     15  C   UNL     1      20.091  16.761  33.683  0.00  0.00    +0.000 C 
ATOM     16  C   UNL     1      22.062  20.136  33.275  0.00  0.00    +0.000 C 
ATOM     17  C   UNL     1      23.399  11.117  34.660  0.00  0.00    +0.000 C 
ATOM     18  C   UNL     1      22.603  16.598  31.239  0.00  0.00    +0.000 C 
ATOM     19  C   UNL     1      20.239  13.127  33.642  0.00  0.00    +0.000 C 
ATOM     20  C   UNL     1      23.376  11.455  33.296  0.00  0.00    +0.000 C 
ATOM     21  C   UNL     1      24.140  17.166  33.978  0.00  0.00    +0.000 C 
ATOM     22  C   UNL     1      23.925  19.252  30.307  0.00  0.00    +0.000 C 
ATOM     23  C   UNL     1      23.036  21.474  31.402  0.00  0.00    +0.000 C 
ATOM     24  C   UNL     1      24.855  20.300  29.740  0.00  0.00    +0.000 C 
ATOM     25  C   UNL     1      22.152  11.486  36.816  0.00  0.00    +0.000 C 
ATOM     26  C   UNL     1      24.259  21.478  30.449  0.00  0.00    +0.000 C 
ATOM     27  C   UNL     1      26.310  20.045  30.175  0.00  0.00    +0.000 C 
ATOM     28  C   UNL     1      24.711  20.414  28.213  0.00  0.00    +0.000 C 
ENDROOT
BRANCH  17  29
ATOM     29  O   UNL     1      23.496   9.782  35.017  0.00  0.00    +0.000 OA
ATOM     30  H   UNL     1      24.220   9.342  34.524  0.00  0.00    +0.000 HD
ENDBRANCH  17  29
BRANCH  14  32
ATOM     31  O   UNL     1      20.512  21.002  30.074  0.00  0.00    +0.000 OA
ATOM     32  C   UNL     1      20.740  20.534  31.182  0.00  0.00    +0.000 C 
BRANCH  32  33
ATOM     33  O   UNL     1      19.708  20.162  31.970  0.00  0.00    +0.000 OA
ATOM     34  H   UNL     1      20.085  19.505  32.594  0.00  0.00    +0.000 HD
ENDBRANCH  32  33
ENDBRANCH  14  32
BRANCH   9  35
ATOM     35  C   UNL     1      24.263  12.702  36.272  0.00  0.00    +0.000 C 
BRANCH  35  36
ATOM     36  O   UNL     1      25.415  13.140  36.789  0.00  0.00    +0.000 OA
ATOM     37  H   UNL     1      25.991  13.512  36.096  0.00  0.00    +0.000 HD
ENDBRANCH  35  36
ENDBRANCH   9  35
TORSDOF 5
ENDMDL
