MODEL 1
REMARK VINA RESULT:      -8.8      0.000      0.000
REMARK  Name = 73659_MaslinicAcid.pdbqt.pdb
REMARK  4 active torsions:
REMARK  status: ('A' for Active; 'I' for Inactive)
REMARK    1  A    between atoms: C_14  and  C_35
REMARK    2  A    between atoms: C_17  and  O_30
REMARK    3  A    between atoms: C_19  and  O_32
REMARK    4  A    between atoms: C_35  and  O_36
REMARK                            x       y       z     vdW  Elec       q    Type
REMARK                         _______ _______ _______ _____ _____    ______ ____
ROOT
ATOM      1  C   UNL     1      45.948  -1.805  11.848  0.00  0.00    +0.000 C 
ATOM      2  C   UNL     1      45.934  -2.915  12.984  0.00  0.00    +0.000 C 
ATOM      3  C   UNL     1      45.576  -4.382  12.726  0.00  0.00    +0.000 C 
ATOM      4  C   UNL     1      45.332  -0.362  12.375  0.00  0.00    +0.000 C 
ATOM      5  C   UNL     1      44.548  -4.673  11.627  0.00  0.00    +0.000 C 
ATOM      6  C   UNL     1      45.143  -2.364  10.756  0.00  0.00    +0.000 C 
ATOM      7  C   UNL     1      44.472  -3.689  10.605  0.00  0.00    +0.000 C 
ATOM      8  C   UNL     1      45.977   0.097  13.794  0.00  0.00    +0.000 C 
ATOM      9  C   UNL     1      43.605  -5.859  11.762  0.00  0.00    +0.000 C 
ATOM     10  C   UNL     1      46.403   1.474  14.124  0.00  0.00    +0.000 C 
ATOM     11  C   UNL     1      46.215  -2.370  14.277  0.00  0.00    +0.000 C 
ATOM     12  C   UNL     1      44.987  -4.966  13.920  0.00  0.00    +0.000 C 
ATOM     13  C   UNL     1      45.633   0.767  11.477  0.00  0.00    +0.000 C 
ATOM     14  C   UNL     1      46.947   2.545  12.990  0.00  0.00    +0.000 C 
ATOM     15  C   UNL     1      47.453  -1.655  11.383  0.00  0.00    +0.000 C 
ATOM     16  C   UNL     1      46.327   2.083  11.749  0.00  0.00    +0.000 C 
ATOM     17  C   UNL     1      43.406  -6.495  13.161  0.00  0.00    +0.000 C 
ATOM     18  C   UNL     1      46.883  -5.123  12.356  0.00  0.00    +0.000 C 
ATOM     19  C   UNL     1      44.032  -5.904  14.296  0.00  0.00    +0.000 C 
ATOM     20  C   UNL     1      46.242  -0.901  14.589  0.00  0.00    +0.000 C 
ATOM     21  C   UNL     1      43.767  -0.440  12.635  0.00  0.00    +0.000 C 
ATOM     22  C   UNL     1      45.860   2.093  15.332  0.00  0.00    +0.000 C 
ATOM     23  C   UNL     1      46.486   3.867  13.493  0.00  0.00    +0.000 C 
ATOM     24  C   UNL     1      45.442   3.398  15.970  0.00  0.00    +0.000 C 
ATOM     25  C   UNL     1      42.165  -5.400  11.341  0.00  0.00    +0.000 C 
ATOM     26  C   UNL     1      44.061  -6.991  10.797  0.00  0.00    +0.000 C 
ATOM     27  C   UNL     1      45.827   4.292  14.830  0.00  0.00    +0.000 C 
ATOM     28  C   UNL     1      46.265   3.696  17.237  0.00  0.00    +0.000 C 
ATOM     29  C   UNL     1      43.925   3.428  16.233  0.00  0.00    +0.000 C 
ENDROOT
BRANCH  17  30
ATOM     30  O   UNL     1      42.656  -7.648  13.385  0.00  0.00    +0.000 OA
ATOM     31  H   UNL     1      42.193  -7.606  14.248  0.00  0.00    +0.000 HD
ENDBRANCH  17  30
BRANCH  19  32
ATOM     32  O   UNL     1      44.031  -6.538  15.502  0.00  0.00    +0.000 OA
ATOM     33  H   UNL     1      44.040  -5.894  16.236  0.00  0.00    +0.000 HD
ENDBRANCH  19  32
BRANCH  14  35
ATOM     34  O   UNL     1      49.158   1.740  12.258  0.00  0.00    +0.000 OA
ATOM     35  C   UNL     1      48.478   2.465  12.973  0.00  0.00    +0.000 C 
BRANCH  35  36
ATOM     36  O   UNL     1      49.085   3.239  13.900  0.00  0.00    +0.000 OA
ATOM     37  H   UNL     1      50.025   3.284  13.619  0.00  0.00    +0.000 HD
ENDBRANCH  35  36
ENDBRANCH  14  35
TORSDOF 4
ENDMDL
MODEL 2
REMARK VINA RESULT:      -8.6      2.754      8.499
REMARK  Name = 73659_MaslinicAcid.pdbqt.pdb
REMARK  4 active torsions:
REMARK  status: ('A' for Active; 'I' for Inactive)
REMARK    1  A    between atoms: C_14  and  C_35
REMARK    2  A    between atoms: C_17  and  O_30
REMARK    3  A    between atoms: C_19  and  O_32
REMARK    4  A    between atoms: C_35  and  O_36
REMARK                            x       y       z     vdW  Elec       q    Type
REMARK                         _______ _______ _______ _____ _____    ______ ____
ROOT
ATOM      1  C   UNL     1      47.875  -2.702  11.183  0.00  0.00    +0.000 C 
ATOM      2  C   UNL     1      47.242  -1.277  10.882  0.00  0.00    +0.000 C 
ATOM      3  C   UNL     1      47.966   0.044  11.162  0.00  0.00    +0.000 C 
ATOM      4  C   UNL     1      46.764  -3.763  11.799  0.00  0.00    +0.000 C 
ATOM      5  C   UNL     1      48.922   0.082  12.360  0.00  0.00    +0.000 C 
ATOM      6  C   UNL     1      48.958  -2.447  12.140  0.00  0.00    +0.000 C 
ATOM      7  C   UNL     1      49.483  -1.173  12.717  0.00  0.00    +0.000 C 
ATOM      8  C   UNL     1      45.394  -3.789  10.926  0.00  0.00    +0.000 C 
ATOM      9  C   UNL     1      49.091   1.366  13.158  0.00  0.00    +0.000 C 
ATOM     10  C   UNL     1      44.649  -5.013  10.557  0.00  0.00    +0.000 C 
ATOM     11  C   UNL     1      45.900  -1.373  10.397  0.00  0.00    +0.000 C 
ATOM     12  C   UNL     1      46.996   1.087  11.455  0.00  0.00    +0.000 C 
ATOM     13  C   UNL     1      47.217  -5.166  11.774  0.00  0.00    +0.000 C 
ATOM     14  C   UNL     1      45.376  -6.479  10.338  0.00  0.00    +0.000 C 
ATOM     15  C   UNL     1      48.479  -3.226   9.817  0.00  0.00    +0.000 C 
ATOM     16  C   UNL     1      46.589  -6.392  11.150  0.00  0.00    +0.000 C 
ATOM     17  C   UNL     1      48.013   2.472  13.024  0.00  0.00    +0.000 C 
ATOM     18  C   UNL     1      48.780   0.408   9.899  0.00  0.00    +0.000 C 
ATOM     19  C   UNL     1      46.852   2.228  12.237  0.00  0.00    +0.000 C 
ATOM     20  C   UNL     1      45.075  -2.628  10.428  0.00  0.00    +0.000 C 
ATOM     21  C   UNL     1      46.313  -3.370  13.270  0.00  0.00    +0.000 C 
ATOM     22  C   UNL     1      43.229  -5.084  10.900  0.00  0.00    +0.000 C 
ATOM     23  C   UNL     1      44.356  -7.459  10.796  0.00  0.00    +0.000 C 
ATOM     24  C   UNL     1      42.098  -6.008  11.289  0.00  0.00    +0.000 C 
ATOM     25  C   UNL     1      49.085   1.008  14.685  0.00  0.00    +0.000 C 
ATOM     26  C   UNL     1      50.464   2.010  12.810  0.00  0.00    +0.000 C 
ATOM     27  C   UNL     1      42.872  -7.289  11.211  0.00  0.00    +0.000 C 
ATOM     28  C   UNL     1      40.954  -5.964  10.260  0.00  0.00    +0.000 C 
ATOM     29  C   UNL     1      41.612  -5.720  12.721  0.00  0.00    +0.000 C 
ENDROOT
BRANCH  17  30
ATOM     30  O   UNL     1      48.118   3.728  13.618  0.00  0.00    +0.000 OA
ATOM     31  H   UNL     1      48.761   3.716  14.357  0.00  0.00    +0.000 HD
ENDBRANCH  17  30
BRANCH  19  32
ATOM     32  O   UNL     1      45.981   3.234  11.948  0.00  0.00    +0.000 OA
ATOM     33  H   UNL     1      45.250   3.263  12.596  0.00  0.00    +0.000 HD
ENDBRANCH  19  32
BRANCH  14  35
ATOM     34  O   UNL     1      44.842  -6.933   7.975  0.00  0.00    +0.000 OA
ATOM     35  C   UNL     1      45.658  -6.637   8.839  0.00  0.00    +0.000 C 
BRANCH  35  36
ATOM     36  O   UNL     1      46.959  -6.491   8.500  0.00  0.00    +0.000 OA
ATOM     37  H   UNL     1      47.124  -7.182   7.822  0.00  0.00    +0.000 HD
ENDBRANCH  35  36
ENDBRANCH  14  35
TORSDOF 4
ENDMDL
MODEL 3
REMARK VINA RESULT:      -7.9      3.465      6.157
REMARK  Name = 73659_MaslinicAcid.pdbqt.pdb
REMARK  4 active torsions:
REMARK  status: ('A' for Active; 'I' for Inactive)
REMARK    1  A    between atoms: C_14  and  C_35
REMARK    2  A    between atoms: C_17  and  O_30
REMARK    3  A    between atoms: C_19  and  O_32
REMARK    4  A    between atoms: C_35  and  O_36
REMARK                            x       y       z     vdW  Elec       q    Type
REMARK                         _______ _______ _______ _____ _____    ______ ____
ROOT
ATOM      1  C   UNL     1      46.567  -2.287  11.615  0.00  0.00    +0.000 C 
ATOM      2  C   UNL     1      45.798  -3.467  10.880  0.00  0.00    +0.000 C 
ATOM      3  C   UNL     1      44.481  -4.061  11.388  0.00  0.00    +0.000 C 
ATOM      4  C   UNL     1      48.207  -2.509  11.608  0.00  0.00    +0.000 C 
ATOM      5  C   UNL     1      44.260  -4.090  12.904  0.00  0.00    +0.000 C 
ATOM      6  C   UNL     1      46.034  -2.276  12.981  0.00  0.00    +0.000 C 
ATOM      7  C   UNL     1      44.964  -3.091  13.629  0.00  0.00    +0.000 C 
ATOM      8  C   UNL     1      48.768  -2.881  10.129  0.00  0.00    +0.000 C 
ATOM      9  C   UNL     1      43.464  -5.222  13.536  0.00  0.00    +0.000 C 
ATOM     10  C   UNL     1      49.999  -2.323   9.526  0.00  0.00    +0.000 C 
ATOM     11  C   UNL     1      46.517  -3.956   9.743  0.00  0.00    +0.000 C 
ATOM     12  C   UNL     1      44.382  -5.457  10.993  0.00  0.00    +0.000 C 
ATOM     13  C   UNL     1      48.964  -1.297  11.971  0.00  0.00    +0.000 C 
ATOM     14  C   UNL     1      50.577  -0.819   9.887  0.00  0.00    +0.000 C 
ATOM     15  C   UNL     1      46.161  -0.952  10.869  0.00  0.00    +0.000 C 
ATOM     16  C   UNL     1      50.046  -0.552  11.223  0.00  0.00    +0.000 C 
ATOM     17  C   UNL     1      43.249  -6.524  12.723  0.00  0.00    +0.000 C 
ATOM     18  C   UNL     1      43.327  -3.244  10.760  0.00  0.00    +0.000 C 
ATOM     19  C   UNL     1      43.874  -6.668  11.451  0.00  0.00    +0.000 C 
ATOM     20  C   UNL     1      47.945  -3.610   9.431  0.00  0.00    +0.000 C 
ATOM     21  C   UNL     1      48.651  -3.719  12.537  0.00  0.00    +0.000 C 
ATOM     22  C   UNL     1      51.007  -3.258   9.029  0.00  0.00    +0.000 C 
ATOM     23  C   UNL     1      52.054  -0.969   9.793  0.00  0.00    +0.000 C 
ATOM     24  C   UNL     1      52.487  -3.478   8.811  0.00  0.00    +0.000 C 
ATOM     25  C   UNL     1      44.214  -5.697  14.829  0.00  0.00    +0.000 C 
ATOM     26  C   UNL     1      42.060  -4.694  13.949  0.00  0.00    +0.000 C 
ATOM     27  C   UNL     1      52.945  -2.137   9.297  0.00  0.00    +0.000 C 
ATOM     28  C   UNL     1      52.811  -3.691   7.322  0.00  0.00    +0.000 C 
ATOM     29  C   UNL     1      53.016  -4.620   9.698  0.00  0.00    +0.000 C 
ENDROOT
BRANCH  17  30
ATOM     30  O   UNL     1      42.448  -7.579  13.153  0.00  0.00    +0.000 OA
ATOM     31  H   UNL     1      41.571  -7.258  13.450  0.00  0.00    +0.000 HD
ENDBRANCH  17  30
BRANCH  19  32
ATOM     32  O   UNL     1      43.560  -7.711  10.634  0.00  0.00    +0.000 OA
ATOM     33  H   UNL     1      42.670  -8.060  10.836  0.00  0.00    +0.000 HD
ENDBRANCH  19  32
BRANCH  14  35
ATOM     34  O   UNL     1      50.725   0.914   8.142  0.00  0.00    +0.000 OA
ATOM     35  C   UNL     1      50.052   0.148   8.819  0.00  0.00    +0.000 C 
BRANCH  35  36
ATOM     36  O   UNL     1      48.706   0.165   8.699  0.00  0.00    +0.000 OA
ATOM     37  H   UNL     1      48.536   0.168   7.732  0.00  0.00    +0.000 HD
ENDBRANCH  35  36
ENDBRANCH  14  35
TORSDOF 4
ENDMDL
MODEL 4
REMARK VINA RESULT:      -7.5     14.249     17.966
REMARK  Name = 73659_MaslinicAcid.pdbqt.pdb
REMARK  4 active torsions:
REMARK  status: ('A' for Active; 'I' for Inactive)
REMARK    1  A    between atoms: C_14  and  C_35
REMARK    2  A    between atoms: C_17  and  O_30
REMARK    3  A    between atoms: C_19  and  O_32
REMARK    4  A    between atoms: C_35  and  O_36
REMARK                            x       y       z     vdW  Elec       q    Type
REMARK                         _______ _______ _______ _____ _____    ______ ____
ROOT
ATOM      1  C   UNL     1      41.462  13.421  21.487  0.00  0.00    +0.000 C 
ATOM      2  C   UNL     1      39.931  13.354  21.066  0.00  0.00    +0.000 C 
ATOM      3  C   UNL     1      39.032  12.146  21.346  0.00  0.00    +0.000 C 
ATOM      4  C   UNL     1      42.400  14.136  20.327  0.00  0.00    +0.000 C 
ATOM      5  C   UNL     1      39.689  10.761  21.339  0.00  0.00    +0.000 C 
ATOM      6  C   UNL     1      41.859  12.027  21.712  0.00  0.00    +0.000 C 
ATOM      7  C   UNL     1      41.074  10.757  21.656  0.00  0.00    +0.000 C 
ATOM      8  C   UNL     1      41.767  15.539  19.807  0.00  0.00    +0.000 C 
ATOM      9  C   UNL     1      38.903   9.548  20.868  0.00  0.00    +0.000 C 
ATOM     10  C   UNL     1      42.540  16.776  19.558  0.00  0.00    +0.000 C 
ATOM     11  C   UNL     1      39.521  14.512  20.333  0.00  0.00    +0.000 C 
ATOM     12  C   UNL     1      38.002  12.049  20.324  0.00  0.00    +0.000 C 
ATOM     13  C   UNL     1      43.740  14.518  20.809  0.00  0.00    +0.000 C 
ATOM     14  C   UNL     1      43.920  17.156  20.380  0.00  0.00    +0.000 C 
ATOM     15  C   UNL     1      41.519  14.222  22.851  0.00  0.00    +0.000 C 
ATOM     16  C   UNL     1      44.440  15.858  20.810  0.00  0.00    +0.000 C 
ATOM     17  C   UNL     1      37.623   9.773  20.023  0.00  0.00    +0.000 C 
ATOM     18  C   UNL     1      38.389  12.355  22.737  0.00  0.00    +0.000 C 
ATOM     19  C   UNL     1      37.266  11.095  19.630  0.00  0.00    +0.000 C 
ATOM     20  C   UNL     1      40.464  15.539  19.774  0.00  0.00    +0.000 C 
ATOM     21  C   UNL     1      42.534  13.233  19.026  0.00  0.00    +0.000 C 
ATOM     22  C   UNL     1      42.420  17.411  18.247  0.00  0.00    +0.000 C 
ATOM     23  C   UNL     1      44.744  17.888  19.381  0.00  0.00    +0.000 C 
ATOM     24  C   UNL     1      43.142  18.229  17.200  0.00  0.00    +0.000 C 
ATOM     25  C   UNL     1      39.828   8.685  19.940  0.00  0.00    +0.000 C 
ATOM     26  C   UNL     1      38.501   8.686  22.099  0.00  0.00    +0.000 C 
ATOM     27  C   UNL     1      44.424  18.403  17.955  0.00  0.00    +0.000 C 
ATOM     28  C   UNL     1      42.435  19.573  16.949  0.00  0.00    +0.000 C 
ATOM     29  C   UNL     1      43.345  17.420  15.905  0.00  0.00    +0.000 C 
ENDROOT
BRANCH  17  30
ATOM     30  O   UNL     1      36.767   8.747  19.631  0.00  0.00    +0.000 OA
ATOM     31  H   UNL     1      36.950   8.466  18.711  0.00  0.00    +0.000 HD
ENDBRANCH  17  30
BRANCH  19  32
ATOM     32  O   UNL     1      36.060  11.348  19.051  0.00  0.00    +0.000 OA
ATOM     33  H   UNL     1      35.985  10.900  18.185  0.00  0.00    +0.000 HD
ENDBRANCH  19  32
BRANCH  14  35
ATOM     34  O   UNL     1      43.560  19.294  21.551  0.00  0.00    +0.000 OA
ATOM     35  C   UNL     1      43.528  18.071  21.547  0.00  0.00    +0.000 C 
BRANCH  35  36
ATOM     36  O   UNL     1      43.185  17.413  22.677  0.00  0.00    +0.000 OA
ATOM     37  H   UNL     1      42.220  17.250  22.594  0.00  0.00    +0.000 HD
ENDBRANCH  35  36
ENDBRANCH  14  35
TORSDOF 4
ENDMDL
MODEL 5
REMARK VINA RESULT:      -7.2     33.790     37.425
REMARK  Name = 73659_MaslinicAcid.pdbqt.pdb
REMARK  4 active torsions:
REMARK  status: ('A' for Active; 'I' for Inactive)
REMARK    1  A    between atoms: C_14  and  C_35
REMARK    2  A    between atoms: C_17  and  O_30
REMARK    3  A    between atoms: C_19  and  O_32
REMARK    4  A    between atoms: C_35  and  O_36
REMARK                            x       y       z     vdW  Elec       q    Type
REMARK                         _______ _______ _______ _____ _____    ______ ____
ROOT
ATOM      1  C   UNL     1      22.742  25.982   3.611  0.00  0.00    +0.000 C 
ATOM      2  C   UNL     1      23.831  26.890   4.328  0.00  0.00    +0.000 C 
ATOM      3  C   UNL     1      23.483  27.984   5.342  0.00  0.00    +0.000 C 
ATOM      4  C   UNL     1      23.101  25.714   2.018  0.00  0.00    +0.000 C 
ATOM      5  C   UNL     1      22.155  28.726   5.148  0.00  0.00    +0.000 C 
ATOM      6  C   UNL     1      21.478  26.711   3.760  0.00  0.00    +0.000 C 
ATOM      7  C   UNL     1      21.153  27.987   4.464  0.00  0.00    +0.000 C 
ATOM      8  C   UNL     1      24.640  25.238   1.809  0.00  0.00    +0.000 C 
ATOM      9  C   UNL     1      22.038  30.191   5.540  0.00  0.00    +0.000 C 
ATOM     10  C   UNL     1      25.074  24.157   0.897  0.00  0.00    +0.000 C 
ATOM     11  C   UNL     1      25.155  26.617   3.860  0.00  0.00    +0.000 C 
ATOM     12  C   UNL     1      24.483  29.038   5.296  0.00  0.00    +0.000 C 
ATOM     13  C   UNL     1      22.315  24.622   1.416  0.00  0.00    +0.000 C 
ATOM     14  C   UNL     1      24.123  22.863   0.516  0.00  0.00    +0.000 C 
ATOM     15  C   UNL     1      22.679  24.626   4.425  0.00  0.00    +0.000 C 
ATOM     16  C   UNL     1      22.762  23.359   0.715  0.00  0.00    +0.000 C 
ATOM     17  C   UNL     1      23.337  31.016   5.731  0.00  0.00    +0.000 C 
ATOM     18  C   UNL     1      23.456  27.331   6.744  0.00  0.00    +0.000 C 
ATOM     19  C   UNL     1      24.597  30.416   5.446  0.00  0.00    +0.000 C 
ATOM     20  C   UNL     1      25.471  25.790   2.647  0.00  0.00    +0.000 C 
ATOM     21  C   UNL     1      22.950  27.031   1.142  0.00  0.00    +0.000 C 
ATOM     22  C   UNL     1      26.106  24.465  -0.093  0.00  0.00    +0.000 C 
ATOM     23  C   UNL     1      24.497  22.541  -0.887  0.00  0.00    +0.000 C 
ATOM     24  C   UNL     1      26.622  24.148  -1.478  0.00  0.00    +0.000 C 
ATOM     25  C   UNL     1      21.265  30.950   4.406  0.00  0.00    +0.000 C 
ATOM     26  C   UNL     1      21.217  30.307   6.857  0.00  0.00    +0.000 C 
ATOM     27  C   UNL     1      25.623  23.081  -1.807  0.00  0.00    +0.000 C 
ATOM     28  C   UNL     1      28.058  23.597  -1.433  0.00  0.00    +0.000 C 
ATOM     29  C   UNL     1      26.488  25.365  -2.413  0.00  0.00    +0.000 C 
ENDROOT
BRANCH  17  30
ATOM     30  O   UNL     1      23.356  32.329   6.194  0.00  0.00    +0.000 OA
ATOM     31  H   UNL     1      23.532  32.959   5.464  0.00  0.00    +0.000 HD
ENDBRANCH  17  30
BRANCH  19  32
ATOM     32  O   UNL     1      25.759  31.044   5.776  0.00  0.00    +0.000 OA
ATOM     33  H   UNL     1      26.371  31.074   5.015  0.00  0.00    +0.000 HD
ENDBRANCH  19  32
BRANCH  14  35
ATOM     34  O   UNL     1      24.293  21.676   2.668  0.00  0.00    +0.000 OA
ATOM     35  C   UNL     1      24.498  21.717   1.463  0.00  0.00    +0.000 C 
BRANCH  35  36
ATOM     36  O   UNL     1      25.178  20.708   0.872  0.00  0.00    +0.000 OA
ATOM     37  H   UNL     1      24.508  20.007   0.713  0.00  0.00    +0.000 HD
ENDBRANCH  35  36
ENDBRANCH  14  35
TORSDOF 4
ENDMDL
MODEL 6
REMARK VINA RESULT:      -7.1     32.192     34.887
REMARK  Name = 73659_MaslinicAcid.pdbqt.pdb
REMARK  4 active torsions:
REMARK  status: ('A' for Active; 'I' for Inactive)
REMARK    1  A    between atoms: C_14  and  C_35
REMARK    2  A    between atoms: C_17  and  O_30
REMARK    3  A    between atoms: C_19  and  O_32
REMARK    4  A    between atoms: C_35  and  O_36
REMARK                            x       y       z     vdW  Elec       q    Type
REMARK                         _______ _______ _______ _____ _____    ______ ____
ROOT
ATOM      1  C   UNL     1      15.218   4.258  26.698  0.00  0.00    +0.000 C 
ATOM      2  C   UNL     1      15.746   3.004  27.516  0.00  0.00    +0.000 C 
ATOM      3  C   UNL     1      16.305   1.740  26.856  0.00  0.00    +0.000 C 
ATOM      4  C   UNL     1      13.853   4.913  27.367  0.00  0.00    +0.000 C 
ATOM      5  C   UNL     1      15.714   1.333  25.501  0.00  0.00    +0.000 C 
ATOM      6  C   UNL     1      14.961   3.752  25.345  0.00  0.00    +0.000 C 
ATOM      7  C   UNL     1      15.174   2.404  24.740  0.00  0.00    +0.000 C 
ATOM      8  C   UNL     1      14.010   5.151  28.966  0.00  0.00    +0.000 C 
ATOM      9  C   UNL     1      15.603  -0.138  25.131  0.00  0.00    +0.000 C 
ATOM     10  C   UNL     1      13.552   6.357  29.691  0.00  0.00    +0.000 C 
ATOM     11  C   UNL     1      15.566   3.164  28.927  0.00  0.00    +0.000 C 
ATOM     12  C   UNL     1      16.059   0.587  27.706  0.00  0.00    +0.000 C 
ATOM     13  C   UNL     1      13.531   6.255  26.847  0.00  0.00    +0.000 C 
ATOM     14  C   UNL     1      13.480   7.853  28.996  0.00  0.00    +0.000 C 
ATOM     15  C   UNL     1      16.404   5.306  26.663  0.00  0.00    +0.000 C 
ATOM     16  C   UNL     1      13.332   7.568  27.569  0.00  0.00    +0.000 C 
ATOM     17  C   UNL     1      15.690  -1.198  26.259  0.00  0.00    +0.000 C 
ATOM     18  C   UNL     1      17.826   1.948  26.662  0.00  0.00    +0.000 C 
ATOM     19  C   UNL     1      15.779  -0.772  27.615  0.00  0.00    +0.000 C 
ATOM     20  C   UNL     1      14.731   4.241  29.558  0.00  0.00    +0.000 C 
ATOM     21  C   UNL     1      12.593   3.958  27.210  0.00  0.00    +0.000 C 
ATOM     22  C   UNL     1      12.661   6.176  30.835  0.00  0.00    +0.000 C 
ATOM     23  C   UNL     1      12.314   8.500  29.653  0.00  0.00    +0.000 C 
ATOM     24  C   UNL     1      11.527   6.788  31.627  0.00  0.00    +0.000 C 
ATOM     25  C   UNL     1      14.195  -0.383  24.483  0.00  0.00    +0.000 C 
ATOM     26  C   UNL     1      16.695  -0.487  24.079  0.00  0.00    +0.000 C 
ATOM     27  C   UNL     1      11.426   8.064  30.847  0.00  0.00    +0.000 C 
ATOM     28  C   UNL     1      11.934   7.040  33.090  0.00  0.00    +0.000 C 
ATOM     29  C   UNL     1      10.246   5.942  31.509  0.00  0.00    +0.000 C 
ENDROOT
BRANCH  17  30
ATOM     30  O   UNL     1      15.711  -2.571  26.027  0.00  0.00    +0.000 OA
ATOM     31  H   UNL     1      16.096  -3.052  26.790  0.00  0.00    +0.000 HD
ENDBRANCH  17  30
BRANCH  19  32
ATOM     32  O   UNL     1      16.042  -1.665  28.610  0.00  0.00    +0.000 OA
ATOM     33  H   UNL     1      16.192  -2.560  28.248  0.00  0.00    +0.000 HD
ENDBRANCH  19  32
BRANCH  14  35
ATOM     34  O   UNL     1      15.492   9.207  28.557  0.00  0.00    +0.000 OA
ATOM     35  C   UNL     1      14.783   8.587  29.338  0.00  0.00    +0.000 C 
BRANCH  35  36
ATOM     36  O   UNL     1      15.176   8.449  30.624  0.00  0.00    +0.000 OA
ATOM     37  H   UNL     1      15.127   9.353  31.004  0.00  0.00    +0.000 HD
ENDBRANCH  35  36
ENDBRANCH  14  35
TORSDOF 4
ENDMDL
MODEL 7
REMARK VINA RESULT:      -6.9     26.580     28.603
REMARK  Name = 73659_MaslinicAcid.pdbqt.pdb
REMARK  4 active torsions:
REMARK  status: ('A' for Active; 'I' for Inactive)
REMARK    1  A    between atoms: C_14  and  C_35
REMARK    2  A    between atoms: C_17  and  O_30
REMARK    3  A    between atoms: C_19  and  O_32
REMARK    4  A    between atoms: C_35  and  O_36
REMARK                            x       y       z     vdW  Elec       q    Type
REMARK                         _______ _______ _______ _____ _____    ______ ____
ROOT
ATOM      1  C   UNL     1      30.173   8.962  -7.412  0.00  0.00    +0.000 C 
ATOM      2  C   UNL     1      29.516  10.401  -7.270  0.00  0.00    +0.000 C 
ATOM      3  C   UNL     1      28.024  10.673  -7.490  0.00  0.00    +0.000 C 
ATOM      4  C   UNL     1      31.655   9.020  -8.147  0.00  0.00    +0.000 C 
ATOM      5  C   UNL     1      27.297   9.811  -8.528  0.00  0.00    +0.000 C 
ATOM      6  C   UNL     1      29.215   8.180  -8.201  0.00  0.00    +0.000 C 
ATOM      7  C   UNL     1      27.868   8.527  -8.743  0.00  0.00    +0.000 C 
ATOM      8  C   UNL     1      32.617  10.155  -7.494  0.00  0.00    +0.000 C 
ATOM      9  C   UNL     1      26.155  10.400  -9.342  0.00  0.00    +0.000 C 
ATOM     10  C   UNL     1      34.054   9.975  -7.194  0.00  0.00    +0.000 C 
ATOM     11  C   UNL     1      30.487  11.414  -6.992  0.00  0.00    +0.000 C 
ATOM     12  C   UNL     1      27.834  12.032  -7.969  0.00  0.00    +0.000 C 
ATOM     13  C   UNL     1      32.434   7.778  -7.996  0.00  0.00    +0.000 C 
ATOM     14  C   UNL     1      34.718   8.514  -6.806  0.00  0.00    +0.000 C 
ATOM     15  C   UNL     1      30.276   8.367  -5.950  0.00  0.00    +0.000 C 
ATOM     16  C   UNL     1      33.814   7.545  -7.426  0.00  0.00    +0.000 C 
ATOM     17  C   UNL     1      26.017  11.942  -9.420  0.00  0.00    +0.000 C 
ATOM     18  C   UNL     1      27.309  10.479  -6.132  0.00  0.00    +0.000 C 
ATOM     19  C   UNL     1      27.005  12.767  -8.810  0.00  0.00    +0.000 C 
ATOM     20  C   UNL     1      31.972  11.216  -7.098  0.00  0.00    +0.000 C 
ATOM     21  C   UNL     1      31.545   9.403  -9.685  0.00  0.00    +0.000 C 
ATOM     22  C   UNL     1      35.000  10.943  -7.746  0.00  0.00    +0.000 C 
ATOM     23  C   UNL     1      36.090   8.579  -7.375  0.00  0.00    +0.000 C 
ATOM     24  C   UNL     1      36.406  11.138  -8.266  0.00  0.00    +0.000 C 
ATOM     25  C   UNL     1      26.328   9.955 -10.836  0.00  0.00    +0.000 C 
ATOM     26  C   UNL     1      24.804   9.838  -8.815  0.00  0.00    +0.000 C 
ATOM     27  C   UNL     1      36.889   9.741  -8.019  0.00  0.00    +0.000 C 
ATOM     28  C   UNL     1      37.180  12.170  -7.426  0.00  0.00    +0.000 C 
ATOM     29  C   UNL     1      36.402  11.484  -9.766  0.00  0.00    +0.000 C 
ENDROOT
BRANCH  17  30
ATOM     30  O   UNL     1      24.952  12.591 -10.041  0.00  0.00    +0.000 OA
ATOM     31  H   UNL     1      24.721  13.419  -9.571  0.00  0.00    +0.000 HD
ENDBRANCH  17  30
BRANCH  19  32
ATOM     32  O   UNL     1      26.820  14.112  -8.699  0.00  0.00    +0.000 OA
ATOM     33  H   UNL     1      26.980  14.560  -9.552  0.00  0.00    +0.000 HD
ENDBRANCH  19  32
BRANCH  14  35
ATOM     34  O   UNL     1      34.185   7.580  -4.588  0.00  0.00    +0.000 OA
ATOM     35  C   UNL     1      34.759   8.414  -5.276  0.00  0.00    +0.000 C 
BRANCH  35  36
ATOM     36  O   UNL     1      35.455   9.404  -4.674  0.00  0.00    +0.000 OA
ATOM     37  H   UNL     1      34.848   9.764  -3.991  0.00  0.00    +0.000 HD
ENDBRANCH  35  36
ENDBRANCH  14  35
TORSDOF 4
ENDMDL
MODEL 8
REMARK VINA RESULT:      -6.8     32.773     34.992
REMARK  Name = 73659_MaslinicAcid.pdbqt.pdb
REMARK  4 active torsions:
REMARK  status: ('A' for Active; 'I' for Inactive)
REMARK    1  A    between atoms: C_14  and  C_35
REMARK    2  A    between atoms: C_17  and  O_30
REMARK    3  A    between atoms: C_19  and  O_32
REMARK    4  A    between atoms: C_35  and  O_36
REMARK                            x       y       z     vdW  Elec       q    Type
REMARK                         _______ _______ _______ _____ _____    ______ ____
ROOT
ATOM      1  C   UNL     1      25.872  20.309  33.319  0.00  0.00    +0.000 C 
ATOM      2  C   UNL     1      25.690  19.203  32.192  0.00  0.00    +0.000 C 
ATOM      3  C   UNL     1      24.500  19.169  31.228  0.00  0.00    +0.000 C 
ATOM      4  C   UNL     1      26.453  19.673  34.732  0.00  0.00    +0.000 C 
ATOM      5  C   UNL     1      23.154  19.680  31.752  0.00  0.00    +0.000 C 
ATOM      6  C   UNL     1      24.538  20.892  33.502  0.00  0.00    +0.000 C 
ATOM      7  C   UNL     1      23.245  20.635  32.801  0.00  0.00    +0.000 C 
ATOM      8  C   UNL     1      27.745  18.719  34.488  0.00  0.00    +0.000 C 
ATOM      9  C   UNL     1      21.857  19.058  31.256  0.00  0.00    +0.000 C 
ATOM     10  C   UNL     1      28.963  18.713  35.329  0.00  0.00    +0.000 C 
ATOM     11  C   UNL     1      26.718  18.209  32.239  0.00  0.00    +0.000 C 
ATOM     12  C   UNL     1      24.223  17.798  30.831  0.00  0.00    +0.000 C 
ATOM     13  C   UNL     1      26.948  20.693  35.674  0.00  0.00    +0.000 C 
ATOM     14  C   UNL     1      29.505  20.046  36.138  0.00  0.00    +0.000 C 
ATOM     15  C   UNL     1      26.857  21.397  32.727  0.00  0.00    +0.000 C 
ATOM     16  C   UNL     1      28.300  20.852  36.331  0.00  0.00    +0.000 C 
ATOM     17  C   UNL     1      21.915  17.671  30.567  0.00  0.00    +0.000 C 
ATOM     18  C   UNL     1      24.877  20.019  29.992  0.00  0.00    +0.000 C 
ATOM     19  C   UNL     1      23.155  16.973  30.498  0.00  0.00    +0.000 C 
ATOM     20  C   UNL     1      27.692  18.050  33.371  0.00  0.00    +0.000 C 
ATOM     21  C   UNL     1      25.383  18.748  35.455  0.00  0.00    +0.000 C 
ATOM     22  C   UNL     1      29.403  17.439  35.893  0.00  0.00    +0.000 C 
ATOM     23  C   UNL     1      30.120  19.491  37.374  0.00  0.00    +0.000 C 
ATOM     24  C   UNL     1      30.094  16.780  37.066  0.00  0.00    +0.000 C 
ATOM     25  C   UNL     1      20.909  18.837  32.486  0.00  0.00    +0.000 C 
ATOM     26  C   UNL     1      21.162  20.039  30.269  0.00  0.00    +0.000 C 
ATOM     27  C   UNL     1      30.419  18.036  37.816  0.00  0.00    +0.000 C 
ATOM     28  C   UNL     1      31.363  16.029  36.624  0.00  0.00    +0.000 C 
ATOM     29  C   UNL     1      29.121  15.881  37.851  0.00  0.00    +0.000 C 
ENDROOT
BRANCH  17  30
ATOM     30  O   UNL     1      20.813  17.056  29.977  0.00  0.00    +0.000 OA
ATOM     31  H   UNL     1      20.152  16.793  30.652  0.00  0.00    +0.000 HD
ENDBRANCH  17  30
BRANCH  19  32
ATOM     32  O   UNL     1      23.279  15.846  29.743  0.00  0.00    +0.000 OA
ATOM     33  H   UNL     1      22.589  15.807  29.053  0.00  0.00    +0.000 HD
ENDBRANCH  19  32
BRANCH  14  35
ATOM     34  O   UNL     1      31.739  20.892  35.534  0.00  0.00    +0.000 OA
ATOM     35  C   UNL     1      30.558  20.727  35.256  0.00  0.00    +0.000 C 
BRANCH  35  36
ATOM     36  O   UNL     1      30.071  21.236  34.102  0.00  0.00    +0.000 OA
ATOM     37  H   UNL     1      29.740  20.459  33.601  0.00  0.00    +0.000 HD
ENDBRANCH  35  36
ENDBRANCH  14  35
TORSDOF 4
ENDMDL
MODEL 9
REMARK VINA RESULT:      -6.8     14.496     19.679
REMARK  Name = 73659_MaslinicAcid.pdbqt.pdb
REMARK  4 active torsions:
REMARK  status: ('A' for Active; 'I' for Inactive)
REMARK    1  A    between atoms: C_14  and  C_35
REMARK    2  A    between atoms: C_17  and  O_30
REMARK    3  A    between atoms: C_19  and  O_32
REMARK    4  A    between atoms: C_35  and  O_36
REMARK                            x       y       z     vdW  Elec       q    Type
REMARK                         _______ _______ _______ _____ _____    ______ ____
ROOT
ATOM      1  C   UNL     1      43.934  15.565  17.276  0.00  0.00    +0.000 C 
ATOM      2  C   UNL     1      43.066  16.880  17.075  0.00  0.00    +0.000 C 
ATOM      3  C   UNL     1      43.651  18.213  16.601  0.00  0.00    +0.000 C 
ATOM      4  C   UNL     1      43.486  14.717  18.625  0.00  0.00    +0.000 C 
ATOM      5  C   UNL     1      45.092  18.535  17.011  0.00  0.00    +0.000 C 
ATOM      6  C   UNL     1      45.321  16.033  17.374  0.00  0.00    +0.000 C 
ATOM      7  C   UNL     1      45.910  17.400  17.258  0.00  0.00    +0.000 C 
ATOM      8  C   UNL     1      41.878  14.499  18.704  0.00  0.00    +0.000 C 
ATOM      9  C   UNL     1      45.506  19.976  17.268  0.00  0.00    +0.000 C 
ATOM     10  C   UNL     1      41.214  13.237  19.098  0.00  0.00    +0.000 C 
ATOM     11  C   UNL     1      41.701  16.690  17.463  0.00  0.00    +0.000 C 
ATOM     12  C   UNL     1      42.876  19.316  17.147  0.00  0.00    +0.000 C 
ATOM     13  C   UNL     1      44.024  13.345  18.662  0.00  0.00    +0.000 C 
ATOM     14  C   UNL     1      41.881  11.749  18.839  0.00  0.00    +0.000 C 
ATOM     15  C   UNL     1      43.752  14.699  15.963  0.00  0.00    +0.000 C 
ATOM     16  C   UNL     1      43.318  12.015  18.788  0.00  0.00    +0.000 C 
ATOM     17  C   UNL     1      44.401  21.033  17.522  0.00  0.00    +0.000 C 
ATOM     18  C   UNL     1      43.587  18.228  15.055  0.00  0.00    +0.000 C 
ATOM     19  C   UNL     1      43.040  20.620  17.600  0.00  0.00    +0.000 C 
ATOM     20  C   UNL     1      41.195  15.502  18.229  0.00  0.00    +0.000 C 
ATOM     21  C   UNL     1      43.868  15.481  19.965  0.00  0.00    +0.000 C 
ATOM     22  C   UNL     1      40.236  13.284  20.184  0.00  0.00    +0.000 C 
ATOM     23  C   UNL     1      41.412  10.938  19.994  0.00  0.00    +0.000 C 
ATOM     24  C   UNL     1      39.630  12.511  21.334  0.00  0.00    +0.000 C 
ATOM     25  C   UNL     1      46.382  20.018  18.569  0.00  0.00    +0.000 C 
ATOM     26  C   UNL     1      46.370  20.483  16.078  0.00  0.00    +0.000 C 
ATOM     27  C   UNL     1      40.389  11.237  21.121  0.00  0.00    +0.000 C 
ATOM     28  C   UNL     1      38.115  12.316  21.144  0.00  0.00    +0.000 C 
ATOM     29  C   UNL     1      39.974  13.164  22.685  0.00  0.00    +0.000 C 
ENDROOT
BRANCH  17  30
ATOM     30  O   UNL     1      44.654  22.396  17.659  0.00  0.00    +0.000 OA
ATOM     31  H   UNL     1      43.827  22.893  17.831  0.00  0.00    +0.000 HD
ENDBRANCH  17  30
BRANCH  19  32
ATOM     32  O   UNL     1      42.034  21.538  17.636  0.00  0.00    +0.000 OA
ATOM     33  H   UNL     1      41.725  21.756  16.735  0.00  0.00    +0.000 HD
ENDBRANCH  19  32
BRANCH  14  35
ATOM     34  O   UNL     1      40.131  11.036  17.257  0.00  0.00    +0.000 OA
ATOM     35  C   UNL     1      41.314  11.209  17.521  0.00  0.00    +0.000 C 
BRANCH  35  36
ATOM     36  O   UNL     1      42.254  10.843  16.621  0.00  0.00    +0.000 OA
ATOM     37  H   UNL     1      42.206  11.520  15.911  0.00  0.00    +0.000 HD
ENDBRANCH  35  36
ENDBRANCH  14  35
TORSDOF 4
ENDMDL
