MODEL 1
REMARK VINA RESULT:      -4.4      0.000      0.000
REMARK  Name = 76617_Cardol.pdbqt.pdb
REMARK  10 active torsions:
REMARK  status: ('A' for Active; 'I' for Inactive)
REMARK    1  A    between atoms: C_1  and  C_2
REMARK    2  A    between atoms: C_3  and  C_4
REMARK    3  A    between atoms: C_5  and  C_6
REMARK    4  A    between atoms: C_7  and  C_8
REMARK    5  A    between atoms: C_8  and  C_9
REMARK    6  A    between atoms: C_10  and  C_11
REMARK    7  A    between atoms: C_14  and  C_15
REMARK    8  A    between atoms: C_15  and  C_16
REMARK    9  A    between atoms: C_19  and  O_24
REMARK   10  A    between atoms: C_20  and  O_22
REMARK                            x       y       z     vdW  Elec       q    Type
REMARK                         _______ _______ _______ _____ _____    ______ ____
ROOT
ATOM      1  C   UNL     1      15.983   3.614  25.928  0.00  0.00    +0.000 C 
ATOM      2  C   UNL     1      15.426   4.509  26.501  0.00  0.00    +0.000 C 
ENDROOT
BRANCH   1   3
ATOM      3  C   UNL     1      16.695   2.472  25.198  0.00  0.00    +0.000 C 
ATOM      4  C   UNL     1      17.407   1.330  24.465  0.00  0.00    +0.000 C 
BRANCH   4   5
ATOM      5  C   UNL     1      18.121   0.190  23.733  0.00  0.00    +0.000 C 
ATOM      6  C   UNL     1      18.835  -0.951  23.002  0.00  0.00    +0.000 C 
BRANCH   6   7
ATOM      7  C   UNL     1      19.549  -2.092  22.271  0.00  0.00    +0.000 C 
ATOM      8  C   UNL     1      20.263  -3.232  21.539  0.00  0.00    +0.000 C 
BRANCH   8   9
ATOM      9  C   UNL     1      20.977  -4.372  20.808  0.00  0.00    +0.000 C 
BRANCH   9  10
ATOM     10  C   UNL     1      21.692  -5.512  20.076  0.00  0.00    +0.000 C 
ATOM     11  C   UNL     1      22.409  -6.651  19.344  0.00  0.00    +0.000 C 
BRANCH  11  12
ATOM     12  C   UNL     1      23.125  -7.790  18.612  0.00  0.00    +0.000 C 
ATOM     13  C   UNL     1      23.839  -8.929  17.880  0.00  0.00    +0.000 C 
ATOM     14  C   UNL     1      24.555 -10.069  17.148  0.00  0.00    +0.000 C 
ENDBRANCH  11  12
ENDBRANCH   9  10
ENDBRANCH   8   9
ENDBRANCH   6   7
ENDBRANCH   4   5
ENDBRANCH   1   3
BRANCH   2  15
ATOM     15  C   UNL     1      14.712   5.651  27.233  0.00  0.00    +0.000 C 
BRANCH  15  16
ATOM     16  C   UNL     1      14.050   6.713  27.912  0.00  0.00    +0.000 A 
ATOM     17  C   UNL     1      14.480   8.027  27.733  0.00  0.00    +0.000 A 
ATOM     18  C   UNL     1      12.974   6.434  28.752  0.00  0.00    +0.000 A 
ATOM     19  C   UNL     1      12.332   7.480  29.412  0.00  0.00    +0.000 A 
ATOM     20  C   UNL     1      13.825   9.058  28.402  0.00  0.00    +0.000 A 
ATOM     21  C   UNL     1      12.750   8.796  29.244  0.00  0.00    +0.000 A 
BRANCH  20  22
ATOM     22  O   UNL     1      14.227  10.353  28.243  0.00  0.00    +0.000 OA
ATOM     23  H   UNL     1      15.181  10.357  28.053  0.00  0.00    +0.000 HD
ENDBRANCH  20  22
BRANCH  19  24
ATOM     24  O   UNL     1      11.276   7.234  30.241  0.00  0.00    +0.000 OA
ATOM     25  H   UNL     1      10.820   8.076  30.414  0.00  0.00    +0.000 HD
ENDBRANCH  19  24
ENDBRANCH  15  16
ENDBRANCH   2  15
TORSDOF 10
ENDMDL
MODEL 2
REMARK VINA RESULT:      -4.4      1.078      2.321
REMARK  Name = 76617_Cardol.pdbqt.pdb
REMARK  10 active torsions:
REMARK  status: ('A' for Active; 'I' for Inactive)
REMARK    1  A    between atoms: C_1  and  C_2
REMARK    2  A    between atoms: C_3  and  C_4
REMARK    3  A    between atoms: C_5  and  C_6
REMARK    4  A    between atoms: C_7  and  C_8
REMARK    5  A    between atoms: C_8  and  C_9
REMARK    6  A    between atoms: C_10  and  C_11
REMARK    7  A    between atoms: C_14  and  C_15
REMARK    8  A    between atoms: C_15  and  C_16
REMARK    9  A    between atoms: C_19  and  O_24
REMARK   10  A    between atoms: C_20  and  O_22
REMARK                            x       y       z     vdW  Elec       q    Type
REMARK                         _______ _______ _______ _____ _____    ______ ____
ROOT
ATOM      1  C   UNL     1      16.747   2.715  25.057  0.00  0.00    +0.000 C 
ATOM      2  C   UNL     1      16.168   3.651  25.535  0.00  0.00    +0.000 C 
ENDROOT
BRANCH   1   3
ATOM      3  C   UNL     1      17.487   1.521  24.446  0.00  0.00    +0.000 C 
ATOM      4  C   UNL     1      18.226   0.327  23.834  0.00  0.00    +0.000 C 
BRANCH   4   5
ATOM      5  C   UNL     1      18.966  -0.866  23.222  0.00  0.00    +0.000 C 
ATOM      6  C   UNL     1      19.706  -2.059  22.610  0.00  0.00    +0.000 C 
BRANCH   6   7
ATOM      7  C   UNL     1      20.445  -3.252  21.997  0.00  0.00    +0.000 C 
ATOM      8  C   UNL     1      21.185  -4.445  21.385  0.00  0.00    +0.000 C 
BRANCH   8   9
ATOM      9  C   UNL     1      21.925  -5.638  20.773  0.00  0.00    +0.000 C 
BRANCH   9  10
ATOM     10  C   UNL     1      22.664  -6.832  20.160  0.00  0.00    +0.000 C 
ATOM     11  C   UNL     1      23.402  -8.026  19.547  0.00  0.00    +0.000 C 
BRANCH  11  12
ATOM     12  C   UNL     1      24.141  -9.220  18.934  0.00  0.00    +0.000 C 
ATOM     13  C   UNL     1      24.879 -10.413  18.321  0.00  0.00    +0.000 C 
ATOM     14  C   UNL     1      25.618 -11.607  17.708  0.00  0.00    +0.000 C 
ENDBRANCH  11  12
ENDBRANCH   9  10
ENDBRANCH   8   9
ENDBRANCH   6   7
ENDBRANCH   4   5
ENDBRANCH   1   3
BRANCH   2  15
ATOM     15  C   UNL     1      15.426   4.845  26.146  0.00  0.00    +0.000 C 
BRANCH  15  16
ATOM     16  C   UNL     1      14.737   5.954  26.714  0.00  0.00    +0.000 A 
ATOM     17  C   UNL     1      14.051   5.802  27.918  0.00  0.00    +0.000 A 
ATOM     18  C   UNL     1      14.752   7.186  26.064  0.00  0.00    +0.000 A 
ATOM     19  C   UNL     1      14.075   8.265  26.627  0.00  0.00    +0.000 A 
ATOM     20  C   UNL     1      13.381   6.894  28.465  0.00  0.00    +0.000 A 
ATOM     21  C   UNL     1      13.385   8.130  27.828  0.00  0.00    +0.000 A 
BRANCH  20  22
ATOM     22  O   UNL     1      12.702   6.771  29.643  0.00  0.00    +0.000 OA
ATOM     23  H   UNL     1      12.215   7.598  29.805  0.00  0.00    +0.000 HD
ENDBRANCH  20  22
BRANCH  19  24
ATOM     24  O   UNL     1      14.074   9.483  26.010  0.00  0.00    +0.000 OA
ATOM     25  H   UNL     1      13.218   9.598  25.561  0.00  0.00    +0.000 HD
ENDBRANCH  19  24
ENDBRANCH  15  16
ENDBRANCH   2  15
TORSDOF 10
ENDMDL
MODEL 3
REMARK VINA RESULT:      -4.2     21.781     25.984
REMARK  Name = 76617_Cardol.pdbqt.pdb
REMARK  10 active torsions:
REMARK  status: ('A' for Active; 'I' for Inactive)
REMARK    1  A    between atoms: C_1  and  C_2
REMARK    2  A    between atoms: C_3  and  C_4
REMARK    3  A    between atoms: C_5  and  C_6
REMARK    4  A    between atoms: C_7  and  C_8
REMARK    5  A    between atoms: C_8  and  C_9
REMARK    6  A    between atoms: C_10  and  C_11
REMARK    7  A    between atoms: C_14  and  C_15
REMARK    8  A    between atoms: C_15  and  C_16
REMARK    9  A    between atoms: C_19  and  O_24
REMARK   10  A    between atoms: C_20  and  O_22
REMARK                            x       y       z     vdW  Elec       q    Type
REMARK                         _______ _______ _______ _____ _____    ______ ____
ROOT
ATOM      1  C   UNL     1      28.332  17.958  33.896  0.00  0.00    +0.000 C 
ATOM      2  C   UNL     1      27.419  18.155  33.143  0.00  0.00    +0.000 C 
ENDROOT
BRANCH   1   3
ATOM      3  C   UNL     1      29.498  17.707  34.857  0.00  0.00    +0.000 C 
ATOM      4  C   UNL     1      30.664  17.454  35.818  0.00  0.00    +0.000 C 
BRANCH   4   5
ATOM      5  C   UNL     1      31.830  17.202  36.778  0.00  0.00    +0.000 C 
ATOM      6  C   UNL     1      32.997  16.951  37.737  0.00  0.00    +0.000 C 
BRANCH   6   7
ATOM      7  C   UNL     1      34.165  16.699  38.697  0.00  0.00    +0.000 C 
ATOM      8  C   UNL     1      35.332  16.447  39.655  0.00  0.00    +0.000 C 
BRANCH   8   9
ATOM      9  C   UNL     1      36.500  16.195  40.613  0.00  0.00    +0.000 C 
BRANCH   9  10
ATOM     10  C   UNL     1      37.668  15.942  41.572  0.00  0.00    +0.000 C 
ATOM     11  C   UNL     1      38.835  15.687  42.530  0.00  0.00    +0.000 C 
BRANCH  11  12
ATOM     12  C   UNL     1      40.002  15.433  43.489  0.00  0.00    +0.000 C 
ATOM     13  C   UNL     1      41.168  15.178  44.448  0.00  0.00    +0.000 C 
ATOM     14  C   UNL     1      42.335  14.923  45.408  0.00  0.00    +0.000 C 
ENDBRANCH  11  12
ENDBRANCH   9  10
ENDBRANCH   8   9
ENDBRANCH   6   7
ENDBRANCH   4   5
ENDBRANCH   1   3
BRANCH   2  15
ATOM     15  C   UNL     1      26.253  18.405  32.181  0.00  0.00    +0.000 C 
BRANCH  15  16
ATOM     16  C   UNL     1      25.170  18.638  31.286  0.00  0.00    +0.000 A 
ATOM     17  C   UNL     1      25.320  19.539  30.233  0.00  0.00    +0.000 A 
ATOM     18  C   UNL     1      23.965  17.962  31.466  0.00  0.00    +0.000 A 
ATOM     19  C   UNL     1      22.911  18.196  30.586  0.00  0.00    +0.000 A 
ATOM     20  C   UNL     1      24.255  19.759  29.364  0.00  0.00    +0.000 A 
ATOM     21  C   UNL     1      23.045  19.093  29.530  0.00  0.00    +0.000 A 
BRANCH  20  22
ATOM     22  O   UNL     1      24.377  20.636  28.325  0.00  0.00    +0.000 OA
ATOM     23  H   UNL     1      24.228  20.153  27.494  0.00  0.00    +0.000 HD
ENDBRANCH  20  22
BRANCH  19  24
ATOM     24  O   UNL     1      21.719  17.549  30.740  0.00  0.00    +0.000 OA
ATOM     25  H   UNL     1      21.121  18.125  31.248  0.00  0.00    +0.000 HD
ENDBRANCH  19  24
ENDBRANCH  15  16
ENDBRANCH   2  15
TORSDOF 10
ENDMDL
MODEL 4
REMARK VINA RESULT:      -4.2     18.149     18.904
REMARK  Name = 76617_Cardol.pdbqt.pdb
REMARK  10 active torsions:
REMARK  status: ('A' for Active; 'I' for Inactive)
REMARK    1  A    between atoms: C_1  and  C_2
REMARK    2  A    between atoms: C_3  and  C_4
REMARK    3  A    between atoms: C_5  and  C_6
REMARK    4  A    between atoms: C_7  and  C_8
REMARK    5  A    between atoms: C_8  and  C_9
REMARK    6  A    between atoms: C_10  and  C_11
REMARK    7  A    between atoms: C_14  and  C_15
REMARK    8  A    between atoms: C_15  and  C_16
REMARK    9  A    between atoms: C_19  and  O_24
REMARK   10  A    between atoms: C_20  and  O_22
REMARK                            x       y       z     vdW  Elec       q    Type
REMARK                         _______ _______ _______ _____ _____    ______ ____
ROOT
ATOM      1  C   UNL     1      14.442   7.337   7.523  0.00  0.00    +0.000 C 
ATOM      2  C   UNL     1      14.216   8.399   8.033  0.00  0.00    +0.000 C 
ENDROOT
BRANCH   1   3
ATOM      3  C   UNL     1      14.730   5.981   6.873  0.00  0.00    +0.000 C 
ATOM      4  C   UNL     1      15.019   4.624   6.221  0.00  0.00    +0.000 C 
BRANCH   4   5
ATOM      5  C   UNL     1      15.309   3.269   5.570  0.00  0.00    +0.000 C 
ATOM      6  C   UNL     1      15.599   1.914   4.919  0.00  0.00    +0.000 C 
BRANCH   6   7
ATOM      7  C   UNL     1      15.889   0.558   4.267  0.00  0.00    +0.000 C 
ATOM      8  C   UNL     1      16.179  -0.797   3.616  0.00  0.00    +0.000 C 
BRANCH   8   9
ATOM      9  C   UNL     1      16.469  -2.153   2.965  0.00  0.00    +0.000 C 
BRANCH   9  10
ATOM     10  C   UNL     1      16.761  -3.508   2.313  0.00  0.00    +0.000 C 
ATOM     11  C   UNL     1      17.053  -4.862   1.660  0.00  0.00    +0.000 C 
BRANCH  11  12
ATOM     12  C   UNL     1      17.344  -6.217   1.008  0.00  0.00    +0.000 C 
ATOM     13  C   UNL     1      17.635  -7.571   0.355  0.00  0.00    +0.000 C 
ATOM     14  C   UNL     1      17.927  -8.927  -0.298  0.00  0.00    +0.000 C 
ENDBRANCH  11  12
ENDBRANCH   9  10
ENDBRANCH   8   9
ENDBRANCH   6   7
ENDBRANCH   4   5
ENDBRANCH   1   3
BRANCH   2  15
ATOM     15  C   UNL     1      13.928   9.757   8.683  0.00  0.00    +0.000 C 
BRANCH  15  16
ATOM     16  C   UNL     1      13.662  11.018   9.289  0.00  0.00    +0.000 A 
ATOM     17  C   UNL     1      13.166  12.067   8.518  0.00  0.00    +0.000 A 
ATOM     18  C   UNL     1      13.897  11.196  10.651  0.00  0.00    +0.000 A 
ATOM     19  C   UNL     1      13.633  12.433  11.234  0.00  0.00    +0.000 A 
ATOM     20  C   UNL     1      12.908  13.296   9.120  0.00  0.00    +0.000 A 
ATOM     21  C   UNL     1      13.139  13.491  10.477  0.00  0.00    +0.000 A 
BRANCH  20  22
ATOM     22  O   UNL     1      12.423  14.340   8.386  0.00  0.00    +0.000 OA
ATOM     23  H   UNL     1      13.149  14.704   7.851  0.00  0.00    +0.000 HD
ENDBRANCH  20  22
BRANCH  19  24
ATOM     24  O   UNL     1      13.856  12.635  12.566  0.00  0.00    +0.000 OA
ATOM     25  H   UNL     1      14.815  12.716  12.707  0.00  0.00    +0.000 HD
ENDBRANCH  19  24
ENDBRANCH  15  16
ENDBRANCH   2  15
TORSDOF 10
ENDMDL
MODEL 5
REMARK VINA RESULT:      -4.2     27.424     30.972
REMARK  Name = 76617_Cardol.pdbqt.pdb
REMARK  10 active torsions:
REMARK  status: ('A' for Active; 'I' for Inactive)
REMARK    1  A    between atoms: C_1  and  C_2
REMARK    2  A    between atoms: C_3  and  C_4
REMARK    3  A    between atoms: C_5  and  C_6
REMARK    4  A    between atoms: C_7  and  C_8
REMARK    5  A    between atoms: C_8  and  C_9
REMARK    6  A    between atoms: C_10  and  C_11
REMARK    7  A    between atoms: C_14  and  C_15
REMARK    8  A    between atoms: C_15  and  C_16
REMARK    9  A    between atoms: C_19  and  O_24
REMARK   10  A    between atoms: C_20  and  O_22
REMARK                            x       y       z     vdW  Elec       q    Type
REMARK                         _______ _______ _______ _____ _____    ______ ____
ROOT
ATOM      1  C   UNL     1      44.335   2.724  20.596  0.00  0.00    +0.000 C 
ATOM      2  C   UNL     1      43.889   2.069  21.498  0.00  0.00    +0.000 C 
ENDROOT
BRANCH   1   3
ATOM      3  C   UNL     1      44.905   3.558  19.445  0.00  0.00    +0.000 C 
ATOM      4  C   UNL     1      45.474   4.393  18.294  0.00  0.00    +0.000 C 
BRANCH   4   5
ATOM      5  C   UNL     1      46.043   5.229  17.144  0.00  0.00    +0.000 C 
ATOM      6  C   UNL     1      46.613   6.064  15.994  0.00  0.00    +0.000 C 
BRANCH   6   7
ATOM      7  C   UNL     1      47.184   6.900  14.844  0.00  0.00    +0.000 C 
ATOM      8  C   UNL     1      47.753   7.735  13.694  0.00  0.00    +0.000 C 
BRANCH   8   9
ATOM      9  C   UNL     1      48.323   8.570  12.543  0.00  0.00    +0.000 C 
BRANCH   9  10
ATOM     10  C   UNL     1      48.892   9.406  11.393  0.00  0.00    +0.000 C 
ATOM     11  C   UNL     1      49.462  10.243  10.244  0.00  0.00    +0.000 C 
BRANCH  11  12
ATOM     12  C   UNL     1      50.031  11.080   9.093  0.00  0.00    +0.000 C 
ATOM     13  C   UNL     1      50.598  11.917   7.944  0.00  0.00    +0.000 C 
ATOM     14  C   UNL     1      51.167  12.754   6.793  0.00  0.00    +0.000 C 
ENDBRANCH  11  12
ENDBRANCH   9  10
ENDBRANCH   8   9
ENDBRANCH   6   7
ENDBRANCH   4   5
ENDBRANCH   1   3
BRANCH   2  15
ATOM     15  C   UNL     1      43.317   1.235  22.649  0.00  0.00    +0.000 C 
BRANCH  15  16
ATOM     16  C   UNL     1      42.786   0.460  23.720  0.00  0.00    +0.000 A 
ATOM     17  C   UNL     1      42.093  -0.718  23.447  0.00  0.00    +0.000 A 
ATOM     18  C   UNL     1      42.962   0.884  25.035  0.00  0.00    +0.000 A 
ATOM     19  C   UNL     1      42.439   0.120  26.076  0.00  0.00    +0.000 A 
ATOM     20  C   UNL     1      41.579  -1.468  24.502  0.00  0.00    +0.000 A 
ATOM     21  C   UNL     1      41.745  -1.059  25.820  0.00  0.00    +0.000 A 
BRANCH  20  22
ATOM     22  O   UNL     1      40.897  -2.626  24.260  0.00  0.00    +0.000 OA
ATOM     23  H   UNL     1      40.115  -2.415  23.721  0.00  0.00    +0.000 HD
ENDBRANCH  20  22
BRANCH  19  24
ATOM     24  O   UNL     1      42.597   0.512  27.374  0.00  0.00    +0.000 OA
ATOM     25  H   UNL     1      41.909   0.082  27.910  0.00  0.00    +0.000 HD
ENDBRANCH  19  24
ENDBRANCH  15  16
ENDBRANCH   2  15
TORSDOF 10
ENDMDL
MODEL 6
REMARK VINA RESULT:      -4.1     10.615     10.802
REMARK  Name = 76617_Cardol.pdbqt.pdb
REMARK  10 active torsions:
REMARK  status: ('A' for Active; 'I' for Inactive)
REMARK    1  A    between atoms: C_1  and  C_2
REMARK    2  A    between atoms: C_3  and  C_4
REMARK    3  A    between atoms: C_5  and  C_6
REMARK    4  A    between atoms: C_7  and  C_8
REMARK    5  A    between atoms: C_8  and  C_9
REMARK    6  A    between atoms: C_10  and  C_11
REMARK    7  A    between atoms: C_14  and  C_15
REMARK    8  A    between atoms: C_15  and  C_16
REMARK    9  A    between atoms: C_19  and  O_24
REMARK   10  A    between atoms: C_20  and  O_22
REMARK                            x       y       z     vdW  Elec       q    Type
REMARK                         _______ _______ _______ _____ _____    ______ ____
ROOT
ATOM      1  C   UNL     1      24.042   0.658  33.329  0.00  0.00    +0.000 C 
ATOM      2  C   UNL     1      23.749   1.254  34.328  0.00  0.00    +0.000 C 
ENDROOT
BRANCH   1   3
ATOM      3  C   UNL     1      24.418  -0.104  32.055  0.00  0.00    +0.000 C 
ATOM      4  C   UNL     1      24.795  -0.867  30.780  0.00  0.00    +0.000 C 
BRANCH   4   5
ATOM      5  C   UNL     1      25.172  -1.630  29.507  0.00  0.00    +0.000 C 
ATOM      6  C   UNL     1      25.548  -2.394  28.234  0.00  0.00    +0.000 C 
BRANCH   6   7
ATOM      7  C   UNL     1      25.924  -3.158  26.961  0.00  0.00    +0.000 C 
ATOM      8  C   UNL     1      26.299  -3.922  25.688  0.00  0.00    +0.000 C 
BRANCH   8   9
ATOM      9  C   UNL     1      26.674  -4.687  24.415  0.00  0.00    +0.000 C 
BRANCH   9  10
ATOM     10  C   UNL     1      27.050  -5.452  23.142  0.00  0.00    +0.000 C 
ATOM     11  C   UNL     1      27.428  -6.215  21.870  0.00  0.00    +0.000 C 
BRANCH  11  12
ATOM     12  C   UNL     1      27.804  -6.980  20.596  0.00  0.00    +0.000 C 
ATOM     13  C   UNL     1      28.181  -7.742  19.323  0.00  0.00    +0.000 C 
ATOM     14  C   UNL     1      28.557  -8.506  18.050  0.00  0.00    +0.000 C 
ENDBRANCH  11  12
ENDBRANCH   9  10
ENDBRANCH   8   9
ENDBRANCH   6   7
ENDBRANCH   4   5
ENDBRANCH   1   3
BRANCH   2  15
ATOM     15  C   UNL     1      23.372   2.016  35.603  0.00  0.00    +0.000 C 
BRANCH  15  16
ATOM     16  C   UNL     1      23.020   2.725  36.787  0.00  0.00    +0.000 A 
ATOM     17  C   UNL     1      23.251   4.097  36.869  0.00  0.00    +0.000 A 
ATOM     18  C   UNL     1      22.447   2.043  37.858  0.00  0.00    +0.000 A 
ATOM     19  C   UNL     1      22.107   2.745  39.012  0.00  0.00    +0.000 A 
ATOM     20  C   UNL     1      22.904   4.780  38.032  0.00  0.00    +0.000 A 
ATOM     21  C   UNL     1      22.331   4.115  39.110  0.00  0.00    +0.000 A 
BRANCH  20  22
ATOM     22  O   UNL     1      23.120   6.124  38.137  0.00  0.00    +0.000 OA
ATOM     23  H   UNL     1      23.869   6.269  38.740  0.00  0.00    +0.000 HD
ENDBRANCH  20  22
BRANCH  19  24
ATOM     24  O   UNL     1      21.544   2.101  40.077  0.00  0.00    +0.000 OA
ATOM     25  H   UNL     1      21.538   2.711  40.835  0.00  0.00    +0.000 HD
ENDBRANCH  19  24
ENDBRANCH  15  16
ENDBRANCH   2  15
TORSDOF 10
ENDMDL
MODEL 7
REMARK VINA RESULT:      -3.9      2.150      3.727
REMARK  Name = 76617_Cardol.pdbqt.pdb
REMARK  10 active torsions:
REMARK  status: ('A' for Active; 'I' for Inactive)
REMARK    1  A    between atoms: C_1  and  C_2
REMARK    2  A    between atoms: C_3  and  C_4
REMARK    3  A    between atoms: C_5  and  C_6
REMARK    4  A    between atoms: C_7  and  C_8
REMARK    5  A    between atoms: C_8  and  C_9
REMARK    6  A    between atoms: C_10  and  C_11
REMARK    7  A    between atoms: C_14  and  C_15
REMARK    8  A    between atoms: C_15  and  C_16
REMARK    9  A    between atoms: C_19  and  O_24
REMARK   10  A    between atoms: C_20  and  O_22
REMARK                            x       y       z     vdW  Elec       q    Type
REMARK                         _______ _______ _______ _____ _____    ______ ____
ROOT
ATOM      1  C   UNL     1      17.513   0.950  24.448  0.00  0.00    +0.000 C 
ATOM      2  C   UNL     1      16.772   1.755  24.940  0.00  0.00    +0.000 C 
ENDROOT
BRANCH   1   3
ATOM      3  C   UNL     1      18.460  -0.076  23.819  0.00  0.00    +0.000 C 
ATOM      4  C   UNL     1      19.407  -1.104  23.192  0.00  0.00    +0.000 C 
BRANCH   4   5
ATOM      5  C   UNL     1      20.353  -2.132  22.565  0.00  0.00    +0.000 C 
ATOM      6  C   UNL     1      21.300  -3.160  21.938  0.00  0.00    +0.000 C 
BRANCH   6   7
ATOM      7  C   UNL     1      22.246  -4.189  21.312  0.00  0.00    +0.000 C 
ATOM      8  C   UNL     1      23.193  -5.217  20.686  0.00  0.00    +0.000 C 
BRANCH   8   9
ATOM      9  C   UNL     1      24.140  -6.245  20.061  0.00  0.00    +0.000 C 
BRANCH   9  10
ATOM     10  C   UNL     1      25.087  -7.274  19.434  0.00  0.00    +0.000 C 
ATOM     11  C   UNL     1      26.033  -8.303  18.809  0.00  0.00    +0.000 C 
BRANCH  11  12
ATOM     12  C   UNL     1      26.980  -9.331  18.183  0.00  0.00    +0.000 C 
ATOM     13  C   UNL     1      27.927 -10.359  17.556  0.00  0.00    +0.000 C 
ATOM     14  C   UNL     1      28.874 -11.388  16.930  0.00  0.00    +0.000 C 
ENDBRANCH  11  12
ENDBRANCH   9  10
ENDBRANCH   8   9
ENDBRANCH   6   7
ENDBRANCH   4   5
ENDBRANCH   1   3
BRANCH   2  15
ATOM     15  C   UNL     1      15.824   2.782  25.569  0.00  0.00    +0.000 C 
BRANCH  15  16
ATOM     16  C   UNL     1      14.944   3.737  26.153  0.00  0.00    +0.000 A 
ATOM     17  C   UNL     1      15.231   5.097  26.056  0.00  0.00    +0.000 A 
ATOM     18  C   UNL     1      13.798   3.307  26.820  0.00  0.00    +0.000 A 
ATOM     19  C   UNL     1      12.943   4.248  27.388  0.00  0.00    +0.000 A 
ATOM     20  C   UNL     1      14.364   6.023  26.630  0.00  0.00    +0.000 A 
ATOM     21  C   UNL     1      13.217   5.610  27.299  0.00  0.00    +0.000 A 
BRANCH  20  22
ATOM     22  O   UNL     1      14.623   7.360  26.548  0.00  0.00    +0.000 OA
ATOM     23  H   UNL     1      14.690   7.604  25.609  0.00  0.00    +0.000 HD
ENDBRANCH  20  22
BRANCH  19  24
ATOM     24  O   UNL     1      11.814   3.853  28.047  0.00  0.00    +0.000 OA
ATOM     25  H   UNL     1      11.447   4.624  28.513  0.00  0.00    +0.000 HD
ENDBRANCH  19  24
ENDBRANCH  15  16
ENDBRANCH   2  15
TORSDOF 10
ENDMDL
MODEL 8
REMARK VINA RESULT:      -3.8     10.034     10.551
REMARK  Name = 76617_Cardol.pdbqt.pdb
REMARK  10 active torsions:
REMARK  status: ('A' for Active; 'I' for Inactive)
REMARK    1  A    between atoms: C_1  and  C_2
REMARK    2  A    between atoms: C_3  and  C_4
REMARK    3  A    between atoms: C_5  and  C_6
REMARK    4  A    between atoms: C_7  and  C_8
REMARK    5  A    between atoms: C_8  and  C_9
REMARK    6  A    between atoms: C_10  and  C_11
REMARK    7  A    between atoms: C_14  and  C_15
REMARK    8  A    between atoms: C_15  and  C_16
REMARK    9  A    between atoms: C_19  and  O_24
REMARK   10  A    between atoms: C_20  and  O_22
REMARK                            x       y       z     vdW  Elec       q    Type
REMARK                         _______ _______ _______ _____ _____    ______ ____
ROOT
ATOM      1  C   UNL     1      24.498  -0.754  31.381  0.00  0.00    +0.000 C 
ATOM      2  C   UNL     1      24.266  -0.171  32.403  0.00  0.00    +0.000 C 
ENDROOT
BRANCH   1   3
ATOM      3  C   UNL     1      24.794  -1.498  30.076  0.00  0.00    +0.000 C 
ATOM      4  C   UNL     1      25.091  -2.245  28.771  0.00  0.00    +0.000 C 
BRANCH   4   5
ATOM      5  C   UNL     1      25.386  -2.990  27.466  0.00  0.00    +0.000 C 
ATOM      6  C   UNL     1      25.681  -3.737  26.162  0.00  0.00    +0.000 C 
BRANCH   6   7
ATOM      7  C   UNL     1      25.976  -4.484  24.857  0.00  0.00    +0.000 C 
ATOM      8  C   UNL     1      26.271  -5.231  23.554  0.00  0.00    +0.000 C 
BRANCH   8   9
ATOM      9  C   UNL     1      26.566  -5.978  22.250  0.00  0.00    +0.000 C 
BRANCH   9  10
ATOM     10  C   UNL     1      26.861  -6.725  20.945  0.00  0.00    +0.000 C 
ATOM     11  C   UNL     1      27.153  -7.471  19.641  0.00  0.00    +0.000 C 
BRANCH  11  12
ATOM     12  C   UNL     1      27.447  -8.219  18.336  0.00  0.00    +0.000 C 
ATOM     13  C   UNL     1      27.740  -8.966  17.032  0.00  0.00    +0.000 C 
ATOM     14  C   UNL     1      28.034  -9.714  15.727  0.00  0.00    +0.000 C 
ENDBRANCH  11  12
ENDBRANCH   9  10
ENDBRANCH   8   9
ENDBRANCH   6   7
ENDBRANCH   4   5
ENDBRANCH   1   3
BRANCH   2  15
ATOM     15  C   UNL     1      23.969   0.574  33.709  0.00  0.00    +0.000 C 
BRANCH  15  16
ATOM     16  C   UNL     1      23.691   1.267  34.922  0.00  0.00    +0.000 A 
ATOM     17  C   UNL     1      23.409   2.632  34.894  0.00  0.00    +0.000 A 
ATOM     18  C   UNL     1      23.702   0.577  36.132  0.00  0.00    +0.000 A 
ATOM     19  C   UNL     1      23.429   1.263  37.313  0.00  0.00    +0.000 A 
ATOM     20  C   UNL     1      23.138   3.299  36.086  0.00  0.00    +0.000 A 
ATOM     21  C   UNL     1      23.146   2.625  37.302  0.00  0.00    +0.000 A 
BRANCH  20  22
ATOM     22  O   UNL     1      22.859   4.635  36.084  0.00  0.00    +0.000 OA
ATOM     23  H   UNL     1      22.560   4.886  35.192  0.00  0.00    +0.000 HD
ENDBRANCH  20  22
BRANCH  19  24
ATOM     24  O   UNL     1      23.434   0.610  38.513  0.00  0.00    +0.000 OA
ATOM     25  H   UNL     1      22.878   1.110  39.136  0.00  0.00    +0.000 HD
ENDBRANCH  19  24
ENDBRANCH  15  16
ENDBRANCH   2  15
TORSDOF 10
ENDMDL
MODEL 9
REMARK VINA RESULT:      -3.7     32.314     33.359
REMARK  Name = 76617_Cardol.pdbqt.pdb
REMARK  10 active torsions:
REMARK  status: ('A' for Active; 'I' for Inactive)
REMARK    1  A    between atoms: C_1  and  C_2
REMARK    2  A    between atoms: C_3  and  C_4
REMARK    3  A    between atoms: C_5  and  C_6
REMARK    4  A    between atoms: C_7  and  C_8
REMARK    5  A    between atoms: C_8  and  C_9
REMARK    6  A    between atoms: C_10  and  C_11
REMARK    7  A    between atoms: C_14  and  C_15
REMARK    8  A    between atoms: C_15  and  C_16
REMARK    9  A    between atoms: C_19  and  O_24
REMARK   10  A    between atoms: C_20  and  O_22
REMARK                            x       y       z     vdW  Elec       q    Type
REMARK                         _______ _______ _______ _____ _____    ______ ____
ROOT
ATOM      1  C   UNL     1      20.954  28.520   6.673  0.00  0.00    +0.000 C 
ATOM      2  C   UNL     1      20.289  29.007   7.545  0.00  0.00    +0.000 C 
ENDROOT
BRANCH   1   3
ATOM      3  C   UNL     1      21.805  27.900   5.561  0.00  0.00    +0.000 C 
ATOM      4  C   UNL     1      22.657  27.280   4.448  0.00  0.00    +0.000 C 
BRANCH   4   5
ATOM      5  C   UNL     1      23.509  26.661   3.337  0.00  0.00    +0.000 C 
ATOM      6  C   UNL     1      24.362  26.040   2.227  0.00  0.00    +0.000 C 
BRANCH   6   7
ATOM      7  C   UNL     1      25.215  25.419   1.116  0.00  0.00    +0.000 C 
ATOM      8  C   UNL     1      26.068  24.799   0.005  0.00  0.00    +0.000 C 
BRANCH   8   9
ATOM      9  C   UNL     1      26.921  24.180  -1.105  0.00  0.00    +0.000 C 
BRANCH   9  10
ATOM     10  C   UNL     1      27.774  23.559  -2.216  0.00  0.00    +0.000 C 
ATOM     11  C   UNL     1      28.624  22.938  -3.328  0.00  0.00    +0.000 C 
BRANCH  11  12
ATOM     12  C   UNL     1      29.476  22.317  -4.439  0.00  0.00    +0.000 C 
ATOM     13  C   UNL     1      30.327  21.695  -5.550  0.00  0.00    +0.000 C 
ATOM     14  C   UNL     1      31.179  21.074  -6.662  0.00  0.00    +0.000 C 
ENDBRANCH  11  12
ENDBRANCH   9  10
ENDBRANCH   8   9
ENDBRANCH   6   7
ENDBRANCH   4   5
ENDBRANCH   1   3
BRANCH   2  15
ATOM     15  C   UNL     1      19.437  29.627   8.657  0.00  0.00    +0.000 C 
BRANCH  15  16
ATOM     16  C   UNL     1      18.644  30.202   9.692  0.00  0.00    +0.000 A 
ATOM     17  C   UNL     1      17.487  30.907   9.369  0.00  0.00    +0.000 A 
ATOM     18  C   UNL     1      19.031  30.057  11.023  0.00  0.00    +0.000 A 
ATOM     19  C   UNL     1      18.249  30.623  12.027  0.00  0.00    +0.000 A 
ATOM     20  C   UNL     1      16.719  31.466  10.388  0.00  0.00    +0.000 A 
ATOM     21  C   UNL     1      17.091  31.330  11.721  0.00  0.00    +0.000 A 
BRANCH  20  22
ATOM     22  O   UNL     1      15.581  32.161  10.097  0.00  0.00    +0.000 OA
ATOM     23  H   UNL     1      15.826  33.078   9.883  0.00  0.00    +0.000 HD
ENDBRANCH  20  22
BRANCH  19  24
ATOM     24  O   UNL     1      18.606  30.496  13.339  0.00  0.00    +0.000 OA
ATOM     25  H   UNL     1      17.953  30.973  13.881  0.00  0.00    +0.000 HD
ENDBRANCH  19  24
ENDBRANCH  15  16
ENDBRANCH   2  15
TORSDOF 10
ENDMDL
