MODEL 1
REMARK VINA RESULT:      -6.4      0.000      0.000
REMARK  Name = 85668777_Hyaluronidase.pdbqt.pdb
REMARK  5 active torsions:
REMARK  status: ('A' for Active; 'I' for Inactive)
REMARK    1  A    between atoms: N_1  and  C_13
REMARK    2  A    between atoms: C_14  and  C_15
REMARK    3  A    between atoms: C_15  and  C_16
REMARK    4  A    between atoms: C_17  and  C_19
REMARK    5  A    between atoms: C_19  and  O_20
REMARK                            x       y       z     vdW  Elec       q    Type
REMARK                         _______ _______ _______ _____ _____    ______ ____
ROOT
ATOM      1  N   UNL     1      44.220  -3.868  11.710  0.00  0.00    +0.000 N 
ATOM      2  C   UNL     1      43.055  -5.263  13.309  0.00  0.00    +0.000 C 
ATOM      3  C   UNL     1      42.444  -5.340  11.910  0.00  0.00    +0.000 A 
ATOM      4  C   UNL     1      44.236  -4.249  13.053  0.00  0.00    +0.000 C 
ATOM      5  C   UNL     1      43.168  -4.507  11.032  0.00  0.00    +0.000 A 
ATOM      6  C   UNL     1      41.990  -4.698  14.302  0.00  0.00    +0.000 C 
ATOM      7  C   UNL     1      43.567  -6.680  13.721  0.00  0.00    +0.000 C 
ATOM      8  C   UNL     1      41.355  -6.075  11.461  0.00  0.00    +0.000 A 
ATOM      9  C   UNL     1      42.814  -4.399   9.699  0.00  0.00    +0.000 A 
ATOM     10  C   UNL     1      45.160  -3.764  13.908  0.00  0.00    +0.000 C 
ATOM     11  C   UNL     1      40.999  -5.965  10.118  0.00  0.00    +0.000 A 
ATOM     12  C   UNL     1      41.720  -5.137   9.247  0.00  0.00    +0.000 A 
ENDROOT
BRANCH   1  13
ATOM     13  C   UNL     1      45.139  -2.953  11.077  0.00  0.00    +0.000 C 
ATOM     14  C   UNL     1      46.118  -1.986  10.403  0.00  0.00    +0.000 C 
BRANCH  14  15
ATOM     15  C   UNL     1      47.097  -1.020   9.729  0.00  0.00    +0.000 C 
BRANCH  15  16
ATOM     16  C   UNL     1      48.076  -0.055   9.056  0.00  0.00    +0.000 C 
ATOM     17  C   UNL     1      49.056   0.911   8.383  0.00  0.00    +0.000 C 
BRANCH  17  19
ATOM     18  O   UNL     1      50.944   1.451   7.118  0.00  0.00    +0.000 OA
ATOM     19  C   UNL     1      49.971   1.815   7.755  0.00  0.00    +0.000 C 
BRANCH  19  20
ATOM     20  O   UNL     1      49.664   3.113   7.928  0.00  0.00    +0.000 OA
ATOM     21  H   UNL     1      49.048   3.106   8.688  0.00  0.00    +0.000 HD
ENDBRANCH  19  20
ENDBRANCH  17  19
ENDBRANCH  15  16
ENDBRANCH  14  15
ENDBRANCH   1  13
TORSDOF 5
ENDMDL
MODEL 2
REMARK VINA RESULT:      -6.0      1.011      2.773
REMARK  Name = 85668777_Hyaluronidase.pdbqt.pdb
REMARK  5 active torsions:
REMARK  status: ('A' for Active; 'I' for Inactive)
REMARK    1  A    between atoms: N_1  and  C_13
REMARK    2  A    between atoms: C_14  and  C_15
REMARK    3  A    between atoms: C_15  and  C_16
REMARK    4  A    between atoms: C_17  and  C_19
REMARK    5  A    between atoms: C_19  and  O_20
REMARK                            x       y       z     vdW  Elec       q    Type
REMARK                         _______ _______ _______ _____ _____    ______ ____
ROOT
ATOM      1  N   UNL     1      44.329  -4.089  11.140  0.00  0.00    +0.000 N 
ATOM      2  C   UNL     1      42.852  -5.980  11.454  0.00  0.00    +0.000 C 
ATOM      3  C   UNL     1      42.823  -5.013  12.637  0.00  0.00    +0.000 A 
ATOM      4  C   UNL     1      43.893  -5.258  10.513  0.00  0.00    +0.000 C 
ATOM      5  C   UNL     1      43.704  -3.939  12.389  0.00  0.00    +0.000 A 
ATOM      6  C   UNL     1      43.358  -7.374  11.943  0.00  0.00    +0.000 C 
ATOM      7  C   UNL     1      41.426  -6.050  10.818  0.00  0.00    +0.000 C 
ATOM      8  C   UNL     1      42.092  -5.080  13.815  0.00  0.00    +0.000 A 
ATOM      9  C   UNL     1      43.862  -2.922  13.313  0.00  0.00    +0.000 A 
ATOM     10  C   UNL     1      44.355  -5.617   9.298  0.00  0.00    +0.000 C 
ATOM     11  C   UNL     1      42.253  -4.054  14.745  0.00  0.00    +0.000 A 
ATOM     12  C   UNL     1      43.128  -2.987  14.497  0.00  0.00    +0.000 A 
ENDROOT
BRANCH   1  13
ATOM     13  C   UNL     1      45.283  -3.147  10.607  0.00  0.00    +0.000 C 
ATOM     14  C   UNL     1      46.292  -2.144  10.039  0.00  0.00    +0.000 C 
BRANCH  14  15
ATOM     15  C   UNL     1      47.300  -1.140   9.471  0.00  0.00    +0.000 C 
BRANCH  15  16
ATOM     16  C   UNL     1      48.308  -0.138   8.902  0.00  0.00    +0.000 C 
ATOM     17  C   UNL     1      49.317   0.865   8.334  0.00  0.00    +0.000 C 
BRANCH  17  19
ATOM     18  O   UNL     1      51.337   1.476   7.333  0.00  0.00    +0.000 OA
ATOM     19  C   UNL     1      50.261   1.802   7.804  0.00  0.00    +0.000 C 
BRANCH  19  20
ATOM     20  O   UNL     1      49.859   3.083   7.871  0.00  0.00    +0.000 OA
ATOM     21  H   UNL     1      49.080   3.112   7.279  0.00  0.00    +0.000 HD
ENDBRANCH  19  20
ENDBRANCH  17  19
ENDBRANCH  15  16
ENDBRANCH  14  15
ENDBRANCH   1  13
TORSDOF 5
ENDMDL
MODEL 3
REMARK VINA RESULT:      -5.7      2.053      3.295
REMARK  Name = 85668777_Hyaluronidase.pdbqt.pdb
REMARK  5 active torsions:
REMARK  status: ('A' for Active; 'I' for Inactive)
REMARK    1  A    between atoms: N_1  and  C_13
REMARK    2  A    between atoms: C_14  and  C_15
REMARK    3  A    between atoms: C_15  and  C_16
REMARK    4  A    between atoms: C_17  and  C_19
REMARK    5  A    between atoms: C_19  and  O_20
REMARK                            x       y       z     vdW  Elec       q    Type
REMARK                         _______ _______ _______ _____ _____    ______ ____
ROOT
ATOM      1  N   UNL     1      45.207  -2.125  12.007  0.00  0.00    +0.000 N 
ATOM      2  C   UNL     1      44.114  -3.901  13.235  0.00  0.00    +0.000 C 
ATOM      3  C   UNL     1      43.471  -2.537  13.484  0.00  0.00    +0.000 A 
ATOM      4  C   UNL     1      45.264  -3.501  12.231  0.00  0.00    +0.000 C 
ATOM      5  C   UNL     1      44.154  -1.552  12.742  0.00  0.00    +0.000 A 
ATOM      6  C   UNL     1      44.670  -4.459  14.583  0.00  0.00    +0.000 C 
ATOM      7  C   UNL     1      43.060  -4.852  12.582  0.00  0.00    +0.000 C 
ATOM      8  C   UNL     1      42.391  -2.205  14.289  0.00  0.00    +0.000 A 
ATOM      9  C   UNL     1      43.765  -0.225  12.794  0.00  0.00    +0.000 A 
ATOM     10  C   UNL     1      46.196  -4.271  11.631  0.00  0.00    +0.000 C 
ATOM     11  C   UNL     1      42.000  -0.867  14.341  0.00  0.00    +0.000 A 
ATOM     12  C   UNL     1      42.679   0.111  13.602  0.00  0.00    +0.000 A 
ENDROOT
BRANCH   1  13
ATOM     13  C   UNL     1      46.086  -1.367  11.150  0.00  0.00    +0.000 C 
ATOM     14  C   UNL     1      47.015  -0.561  10.238  0.00  0.00    +0.000 C 
BRANCH  14  15
ATOM     15  C   UNL     1      47.944   0.247   9.325  0.00  0.00    +0.000 C 
BRANCH  15  16
ATOM     16  C   UNL     1      48.872   1.053   8.413  0.00  0.00    +0.000 C 
ATOM     17  C   UNL     1      49.801   1.858   7.500  0.00  0.00    +0.000 C 
BRANCH  17  19
ATOM     18  O   UNL     1      51.310   2.114   5.735  0.00  0.00    +0.000 OA
ATOM     19  C   UNL     1      50.669   2.611   6.645  0.00  0.00    +0.000 C 
BRANCH  19  20
ATOM     20  O   UNL     1      50.719   3.923   6.933  0.00  0.00    +0.000 OA
ATOM     21  H   UNL     1      49.819   4.123   7.260  0.00  0.00    +0.000 HD
ENDBRANCH  19  20
ENDBRANCH  17  19
ENDBRANCH  15  16
ENDBRANCH  14  15
ENDBRANCH   1  13
TORSDOF 5
ENDMDL
MODEL 4
REMARK VINA RESULT:      -5.6     31.885     34.812
REMARK  Name = 85668777_Hyaluronidase.pdbqt.pdb
REMARK  5 active torsions:
REMARK  status: ('A' for Active; 'I' for Inactive)
REMARK    1  A    between atoms: N_1  and  C_13
REMARK    2  A    between atoms: C_14  and  C_15
REMARK    3  A    between atoms: C_15  and  C_16
REMARK    4  A    between atoms: C_17  and  C_19
REMARK    5  A    between atoms: C_19  and  O_20
REMARK                            x       y       z     vdW  Elec       q    Type
REMARK                         _______ _______ _______ _____ _____    ______ ____
ROOT
ATOM      1  N   UNL     1      14.780   5.260  27.520  0.00  0.00    +0.000 N 
ATOM      2  C   UNL     1      13.566   6.496  29.210  0.00  0.00    +0.000 C 
ATOM      3  C   UNL     1      13.976   7.372  28.026  0.00  0.00    +0.000 A 
ATOM      4  C   UNL     1      14.157   5.104  28.759  0.00  0.00    +0.000 C 
ATOM      5  C   UNL     1      14.677   6.592  27.083  0.00  0.00    +0.000 A 
ATOM      6  C   UNL     1      14.244   7.038  30.508  0.00  0.00    +0.000 C 
ATOM      7  C   UNL     1      12.007   6.473  29.313  0.00  0.00    +0.000 C 
ATOM      8  C   UNL     1      13.751   8.724  27.809  0.00  0.00    +0.000 A 
ATOM      9  C   UNL     1      15.159   7.153  25.914  0.00  0.00    +0.000 A 
ATOM     10  C   UNL     1      14.126   3.908  29.383  0.00  0.00    +0.000 C 
ATOM     11  C   UNL     1      14.238   9.288  26.631  0.00  0.00    +0.000 A 
ATOM     12  C   UNL     1      14.933   8.511  25.694  0.00  0.00    +0.000 A 
ENDROOT
BRANCH   1  13
ATOM     13  C   UNL     1      15.442   4.222  26.767  0.00  0.00    +0.000 C 
ATOM     14  C   UNL     1      16.149   3.124  25.967  0.00  0.00    +0.000 C 
BRANCH  14  15
ATOM     15  C   UNL     1      16.857   2.027  25.166  0.00  0.00    +0.000 C 
BRANCH  15  16
ATOM     16  C   UNL     1      17.565   0.930  24.367  0.00  0.00    +0.000 C 
ATOM     17  C   UNL     1      18.273  -0.168  23.567  0.00  0.00    +0.000 C 
BRANCH  17  19
ATOM     18  O   UNL     1      18.466  -1.698  21.812  0.00  0.00    +0.000 OA
ATOM     19  C   UNL     1      18.934  -1.195  22.819  0.00  0.00    +0.000 C 
BRANCH  19  20
ATOM     20  O   UNL     1      20.124  -1.563  23.326  0.00  0.00    +0.000 OA
ATOM     21  H   UNL     1      20.547  -0.713  23.562  0.00  0.00    +0.000 HD
ENDBRANCH  19  20
ENDBRANCH  17  19
ENDBRANCH  15  16
ENDBRANCH  14  15
ENDBRANCH   1  13
TORSDOF 5
ENDMDL
MODEL 5
REMARK VINA RESULT:      -5.4      5.493      6.771
REMARK  Name = 85668777_Hyaluronidase.pdbqt.pdb
REMARK  5 active torsions:
REMARK  status: ('A' for Active; 'I' for Inactive)
REMARK    1  A    between atoms: N_1  and  C_13
REMARK    2  A    between atoms: C_14  and  C_15
REMARK    3  A    between atoms: C_15  and  C_16
REMARK    4  A    between atoms: C_17  and  C_19
REMARK    5  A    between atoms: C_19  and  O_20
REMARK                            x       y       z     vdW  Elec       q    Type
REMARK                         _______ _______ _______ _____ _____    ______ ____
ROOT
ATOM      1  N   UNL     1      44.557  -5.506  12.185  0.00  0.00    +0.000 N 
ATOM      2  C   UNL     1      42.612  -5.776  10.771  0.00  0.00    +0.000 C 
ATOM      3  C   UNL     1      43.872  -6.384  10.155  0.00  0.00    +0.000 A 
ATOM      4  C   UNL     1      43.192  -5.219  12.128  0.00  0.00    +0.000 C 
ATOM      5  C   UNL     1      44.963  -6.191  11.028  0.00  0.00    +0.000 A 
ATOM      6  C   UNL     1      42.083  -4.641   9.839  0.00  0.00    +0.000 C 
ATOM      7  C   UNL     1      41.557  -6.907  10.996  0.00  0.00    +0.000 C 
ATOM      8  C   UNL     1      44.034  -7.040   8.943  0.00  0.00    +0.000 A 
ATOM      9  C   UNL     1      46.226  -6.652  10.700  0.00  0.00    +0.000 A 
ATOM     10  C   UNL     1      42.572  -4.563  13.130  0.00  0.00    +0.000 C 
ATOM     11  C   UNL     1      45.307  -7.504   8.614  0.00  0.00    +0.000 A 
ATOM     12  C   UNL     1      46.390  -7.313   9.482  0.00  0.00    +0.000 A 
ENDROOT
BRANCH   1  13
ATOM     13  C   UNL     1      45.452  -5.163  13.265  0.00  0.00    +0.000 C 
ATOM     14  C   UNL     1      46.397  -4.800  14.414  0.00  0.00    +0.000 C 
BRANCH  14  15
ATOM     15  C   UNL     1      47.341  -4.437  15.564  0.00  0.00    +0.000 C 
BRANCH  15  16
ATOM     16  C   UNL     1      48.285  -4.075  16.713  0.00  0.00    +0.000 C 
ATOM     17  C   UNL     1      49.231  -3.712  17.863  0.00  0.00    +0.000 C 
BRANCH  17  19
ATOM     18  O   UNL     1      50.921  -2.459  18.879  0.00  0.00    +0.000 OA
ATOM     19  C   UNL     1      50.116  -3.373  18.936  0.00  0.00    +0.000 C 
BRANCH  19  20
ATOM     20  O   UNL     1      49.984  -4.153  20.023  0.00  0.00    +0.000 OA
ATOM     21  H   UNL     1      50.750  -4.759  19.968  0.00  0.00    +0.000 HD
ENDBRANCH  19  20
ENDBRANCH  17  19
ENDBRANCH  15  16
ENDBRANCH  14  15
ENDBRANCH   1  13
TORSDOF 5
ENDMDL
MODEL 6
REMARK VINA RESULT:      -5.3      1.529      3.598
REMARK  Name = 85668777_Hyaluronidase.pdbqt.pdb
REMARK  5 active torsions:
REMARK  status: ('A' for Active; 'I' for Inactive)
REMARK    1  A    between atoms: N_1  and  C_13
REMARK    2  A    between atoms: C_14  and  C_15
REMARK    3  A    between atoms: C_15  and  C_16
REMARK    4  A    between atoms: C_17  and  C_19
REMARK    5  A    between atoms: C_19  and  O_20
REMARK                            x       y       z     vdW  Elec       q    Type
REMARK                         _______ _______ _______ _____ _____    ______ ____
ROOT
ATOM      1  N   UNL     1      45.431  -3.316  12.237  0.00  0.00    +0.000 N 
ATOM      2  C   UNL     1      43.657  -4.676  13.166  0.00  0.00    +0.000 C 
ATOM      3  C   UNL     1      44.939  -4.739  13.997  0.00  0.00    +0.000 A 
ATOM      4  C   UNL     1      44.105  -3.693  12.016  0.00  0.00    +0.000 C 
ATOM      5  C   UNL     1      45.927  -3.928  13.401  0.00  0.00    +0.000 A 
ATOM      6  C   UNL     1      43.323  -6.105  12.632  0.00  0.00    +0.000 C 
ATOM      7  C   UNL     1      42.509  -4.080  14.043  0.00  0.00    +0.000 C 
ATOM      8  C   UNL     1      45.202  -5.446  15.162  0.00  0.00    +0.000 A 
ATOM      9  C   UNL     1      47.186  -3.813  13.962  0.00  0.00    +0.000 A 
ATOM     10  C   UNL     1      43.413  -3.232  10.954  0.00  0.00    +0.000 C 
ATOM     11  C   UNL     1      46.471  -5.329  15.726  0.00  0.00    +0.000 A 
ATOM     12  C   UNL     1      47.452  -4.522  15.134  0.00  0.00    +0.000 A 
ENDROOT
BRANCH   1  13
ATOM     13  C   UNL     1      46.208  -2.426  11.410  0.00  0.00    +0.000 C 
ATOM     14  C   UNL     1      47.031  -1.476  10.533  0.00  0.00    +0.000 C 
BRANCH  14  15
ATOM     15  C   UNL     1      47.852  -0.526   9.656  0.00  0.00    +0.000 C 
BRANCH  15  16
ATOM     16  C   UNL     1      48.674   0.423   8.780  0.00  0.00    +0.000 C 
ATOM     17  C   UNL     1      49.497   1.373   7.904  0.00  0.00    +0.000 C 
BRANCH  17  19
ATOM     18  O   UNL     1      50.882   1.896   6.097  0.00  0.00    +0.000 OA
ATOM     19  C   UNL     1      50.267   2.259   7.085  0.00  0.00    +0.000 C 
BRANCH  19  20
ATOM     20  O   UNL     1      50.256   3.538   7.500  0.00  0.00    +0.000 OA
ATOM     21  H   UNL     1      50.946   3.965   6.954  0.00  0.00    +0.000 HD
ENDBRANCH  19  20
ENDBRANCH  17  19
ENDBRANCH  15  16
ENDBRANCH  14  15
ENDBRANCH   1  13
TORSDOF 5
ENDMDL
MODEL 7
REMARK VINA RESULT:      -5.3      3.644      4.081
REMARK  Name = 85668777_Hyaluronidase.pdbqt.pdb
REMARK  5 active torsions:
REMARK  status: ('A' for Active; 'I' for Inactive)
REMARK    1  A    between atoms: N_1  and  C_13
REMARK    2  A    between atoms: C_14  and  C_15
REMARK    3  A    between atoms: C_15  and  C_16
REMARK    4  A    between atoms: C_17  and  C_19
REMARK    5  A    between atoms: C_19  and  O_20
REMARK                            x       y       z     vdW  Elec       q    Type
REMARK                         _______ _______ _______ _____ _____    ______ ____
ROOT
ATOM      1  N   UNL     1      44.126  -3.714  12.521  0.00  0.00    +0.000 N 
ATOM      2  C   UNL     1      43.010  -5.843  12.804  0.00  0.00    +0.000 C 
ATOM      3  C   UNL     1      44.039  -5.868  11.674  0.00  0.00    +0.000 A 
ATOM      4  C   UNL     1      43.156  -4.352  13.298  0.00  0.00    +0.000 C 
ATOM      5  C   UNL     1      44.649  -4.600  11.565  0.00  0.00    +0.000 A 
ATOM      6  C   UNL     1      41.594  -6.138  12.213  0.00  0.00    +0.000 C 
ATOM      7  C   UNL     1      43.429  -6.875  13.900  0.00  0.00    +0.000 C 
ATOM      8  C   UNL     1      44.397  -6.908  10.829  0.00  0.00    +0.000 A 
ATOM      9  C   UNL     1      45.622  -4.360  10.611  0.00  0.00    +0.000 A 
ATOM     10  C   UNL     1      42.510  -3.700  14.286  0.00  0.00    +0.000 C 
ATOM     11  C   UNL     1      45.378  -6.664   9.869  0.00  0.00    +0.000 A 
ATOM     12  C   UNL     1      45.984  -5.405   9.762  0.00  0.00    +0.000 A 
ENDROOT
BRANCH   1  13
ATOM     13  C   UNL     1      44.554  -2.343  12.657  0.00  0.00    +0.000 C 
ATOM     14  C   UNL     1      45.013  -0.889  12.802  0.00  0.00    +0.000 C 
BRANCH  14  15
ATOM     15  C   UNL     1      45.474   0.565  12.946  0.00  0.00    +0.000 C 
BRANCH  15  16
ATOM     16  C   UNL     1      45.935   2.018  13.092  0.00  0.00    +0.000 C 
ATOM     17  C   UNL     1      46.396   3.471  13.236  0.00  0.00    +0.000 C 
BRANCH  17  19
ATOM     18  O   UNL     1      47.669   5.192  14.172  0.00  0.00    +0.000 OA
ATOM     19  C   UNL     1      46.825   4.831  13.371  0.00  0.00    +0.000 C 
BRANCH  19  20
ATOM     20  O   UNL     1      46.212   5.684  12.531  0.00  0.00    +0.000 OA
ATOM     21  H   UNL     1      45.692   6.261  13.127  0.00  0.00    +0.000 HD
ENDBRANCH  19  20
ENDBRANCH  17  19
ENDBRANCH  15  16
ENDBRANCH  14  15
ENDBRANCH   1  13
TORSDOF 5
ENDMDL
MODEL 8
REMARK VINA RESULT:      -5.2      5.447      8.239
REMARK  Name = 85668777_Hyaluronidase.pdbqt.pdb
REMARK  5 active torsions:
REMARK  status: ('A' for Active; 'I' for Inactive)
REMARK    1  A    between atoms: N_1  and  C_13
REMARK    2  A    between atoms: C_14  and  C_15
REMARK    3  A    between atoms: C_15  and  C_16
REMARK    4  A    between atoms: C_17  and  C_19
REMARK    5  A    between atoms: C_19  and  O_20
REMARK                            x       y       z     vdW  Elec       q    Type
REMARK                         _______ _______ _______ _____ _____    ______ ____
ROOT
ATOM      1  N   UNL     1      46.008  -2.625  10.898  0.00  0.00    +0.000 N 
ATOM      2  C   UNL     1      45.690  -0.573  12.141  0.00  0.00    +0.000 C 
ATOM      3  C   UNL     1      46.708  -0.420  11.010  0.00  0.00    +0.000 A 
ATOM      4  C   UNL     1      45.289  -2.089  11.967  0.00  0.00    +0.000 C 
ATOM      5  C   UNL     1      46.845  -1.648  10.331  0.00  0.00    +0.000 A 
ATOM      6  C   UNL     1      46.396  -0.296  13.506  0.00  0.00    +0.000 C 
ATOM      7  C   UNL     1      44.489   0.393  11.880  0.00  0.00    +0.000 C 
ATOM      8  C   UNL     1      47.440   0.694  10.626  0.00  0.00    +0.000 A 
ATOM      9  C   UNL     1      47.711  -1.776   9.260  0.00  0.00    +0.000 A 
ATOM     10  C   UNL     1      44.417  -2.839  12.672  0.00  0.00    +0.000 C 
ATOM     11  C   UNL     1      48.313   0.565   9.547  0.00  0.00    +0.000 A 
ATOM     12  C   UNL     1      48.447  -0.656   8.871  0.00  0.00    +0.000 A 
ENDROOT
BRANCH   1  13
ATOM     13  C   UNL     1      45.926  -3.983  10.416  0.00  0.00    +0.000 C 
ATOM     14  C   UNL     1      45.842  -5.423   9.901  0.00  0.00    +0.000 C 
BRANCH  14  15
ATOM     15  C   UNL     1      45.758  -6.863   9.385  0.00  0.00    +0.000 C 
BRANCH  15  16
ATOM     16  C   UNL     1      45.674  -8.301   8.869  0.00  0.00    +0.000 C 
ATOM     17  C   UNL     1      45.589  -9.741   8.353  0.00  0.00    +0.000 C 
BRANCH  17  19
ATOM     18  O   UNL     1      46.213 -11.523   6.977  0.00  0.00    +0.000 OA
ATOM     19  C   UNL     1      45.509 -11.087   7.871  0.00  0.00    +0.000 C 
BRANCH  19  20
ATOM     20  O   UNL     1      44.582 -11.837   8.493  0.00  0.00    +0.000 OA
ATOM     21  H   UNL     1      44.944 -12.745   8.438  0.00  0.00    +0.000 HD
ENDBRANCH  19  20
ENDBRANCH  17  19
ENDBRANCH  15  16
ENDBRANCH  14  15
ENDBRANCH   1  13
TORSDOF 5
ENDMDL
MODEL 9
REMARK VINA RESULT:      -5.0     37.398     39.410
REMARK  Name = 85668777_Hyaluronidase.pdbqt.pdb
REMARK  5 active torsions:
REMARK  status: ('A' for Active; 'I' for Inactive)
REMARK    1  A    between atoms: N_1  and  C_13
REMARK    2  A    between atoms: C_14  and  C_15
REMARK    3  A    between atoms: C_15  and  C_16
REMARK    4  A    between atoms: C_17  and  C_19
REMARK    5  A    between atoms: C_19  and  O_20
REMARK                            x       y       z     vdW  Elec       q    Type
REMARK                         _______ _______ _______ _____ _____    ______ ____
ROOT
ATOM      1  N   UNL     1      20.313  18.682  31.859  0.00  0.00    +0.000 N 
ATOM      2  C   UNL     1      19.581  16.636  32.923  0.00  0.00    +0.000 C 
ATOM      3  C   UNL     1      20.651  16.391  31.860  0.00  0.00    +0.000 A 
ATOM      4  C   UNL     1      19.437  18.204  32.835  0.00  0.00    +0.000 C 
ATOM      5  C   UNL     1      21.030  17.621  31.282  0.00  0.00    +0.000 A 
ATOM      6  C   UNL     1      18.270  15.893  32.511  0.00  0.00    +0.000 C 
ATOM      7  C   UNL     1      20.124  16.167  34.311  0.00  0.00    +0.000 C 
ATOM      8  C   UNL     1      21.228  15.199  31.446  0.00  0.00    +0.000 A 
ATOM      9  C   UNL     1      21.990  17.673  30.286  0.00  0.00    +0.000 A 
ATOM     10  C   UNL     1      18.638  19.040  33.531  0.00  0.00    +0.000 C 
ATOM     11  C   UNL     1      22.195  15.253  30.442  0.00  0.00    +0.000 A 
ATOM     12  C   UNL     1      22.571  16.475  29.870  0.00  0.00    +0.000 A 
ENDROOT
BRANCH   1  13
ATOM     13  C   UNL     1      20.484  20.063  31.476  0.00  0.00    +0.000 C 
ATOM     14  C   UNL     1      20.662  21.530  31.073  0.00  0.00    +0.000 C 
BRANCH  14  15
ATOM     15  C   UNL     1      20.839  22.997  30.670  0.00  0.00    +0.000 C 
BRANCH  15  16
ATOM     16  C   UNL     1      21.017  24.464  30.269  0.00  0.00    +0.000 C 
ATOM     17  C   UNL     1      21.195  25.931  29.867  0.00  0.00    +0.000 C 
BRANCH  17  19
ATOM     18  O   UNL     1      22.437  27.880  29.522  0.00  0.00    +0.000 OA
ATOM     19  C   UNL     1      21.364  27.302  29.491  0.00  0.00    +0.000 C 
BRANCH  19  20
ATOM     20  O   UNL     1      20.229  27.906  29.097  0.00  0.00    +0.000 OA
ATOM     21  H   UNL     1      20.427  28.200  28.185  0.00  0.00    +0.000 HD
ENDBRANCH  19  20
ENDBRANCH  17  19
ENDBRANCH  15  16
ENDBRANCH  14  15
ENDBRANCH   1  13
TORSDOF 5
ENDMDL
