MODEL 1
REMARK VINA RESULT:      -4.9      0.000      0.000
REMARK  Name = 86311066_OplopantriolA.pdbqt.pdb
REMARK  12 active torsions:
REMARK  status: ('A' for Active; 'I' for Inactive)
REMARK    1  A    between atoms: C_1  and  C_3
REMARK    2  A    between atoms: C_2  and  C_13
REMARK    3  A    between atoms: C_4  and  C_5
REMARK    4  A    between atoms: C_6  and  C_7
REMARK    5  A    between atoms: C_8  and  C_9
REMARK    6  A    between atoms: C_10  and  O_11
REMARK    7  A    between atoms: C_13  and  O_14
REMARK    8  A    between atoms: C_13  and  C_16
REMARK    9  A    between atoms: C_17  and  C_18
REMARK   10  A    between atoms: C_19  and  C_20
REMARK   11  A    between atoms: C_20  and  C_21
REMARK   12  A    between atoms: C_20  and  O_23
REMARK                            x       y       z     vdW  Elec       q    Type
REMARK                         _______ _______ _______ _____ _____    ______ ____
ROOT
ATOM      1  C   UNL     1      27.975  -5.796  22.308  0.00  0.00    +0.000 C 
ATOM      2  C   UNL     1      28.341  -6.366  21.316  0.00  0.00    +0.000 C 
ENDROOT
BRANCH   1   3
ATOM      3  C   UNL     1      27.507  -5.070  23.572  0.00  0.00    +0.000 C 
ATOM      4  C   UNL     1      27.040  -4.343  24.836  0.00  0.00    +0.000 C 
BRANCH   4   5
ATOM      5  C   UNL     1      26.574  -3.616  26.101  0.00  0.00    +0.000 C 
ATOM      6  C   UNL     1      26.105  -2.891  27.366  0.00  0.00    +0.000 C 
BRANCH   6   7
ATOM      7  C   UNL     1      25.637  -2.164  28.631  0.00  0.00    +0.000 C 
ATOM      8  C   UNL     1      25.170  -1.438  29.896  0.00  0.00    +0.000 C 
BRANCH   8   9
ATOM      9  C   UNL     1      24.702  -0.711  31.160  0.00  0.00    +0.000 C 
ATOM     10  C   UNL     1      24.235   0.016  32.425  0.00  0.00    +0.000 C 
BRANCH  10  11
ATOM     11  O   UNL     1      23.829   0.647  33.520  0.00  0.00    +0.000 OA
ATOM     12  H   UNL     1      22.872   0.810  33.482  0.00  0.00    +0.000 HD
ENDBRANCH  10  11
ENDBRANCH   8   9
ENDBRANCH   6   7
ENDBRANCH   4   5
ENDBRANCH   1   3
BRANCH   2  13
ATOM     13  C   UNL     1      28.773  -7.037  20.145  0.00  0.00    +0.000 C 
BRANCH  13  14
ATOM     14  O   UNL     1      28.987  -8.394  20.233  0.00  0.00    +0.000 OA
ATOM     15  H   UNL     1      28.308  -8.830  20.774  0.00  0.00    +0.000 HD
ENDBRANCH  13  14
BRANCH  13  16
ATOM     16  C   UNL     1      28.992  -6.389  18.903  0.00  0.00    +0.000 C 
ATOM     17  C   UNL     1      29.178  -5.840  17.851  0.00  0.00    +0.000 C 
BRANCH  17  18
ATOM     18  C   UNL     1      29.414  -5.138  16.512  0.00  0.00    +0.000 C 
ATOM     19  C   UNL     1      29.600  -4.587  15.461  0.00  0.00    +0.000 C 
BRANCH  19  20
ATOM     20  C   UNL     1      29.820  -3.935  14.219  0.00  0.00    +0.000 C 
BRANCH  20  21
ATOM     21  C   UNL     1      28.807  -3.218  13.522  0.00  0.00    +0.000 C 
ATOM     22  C   UNL     1      27.859  -2.556  12.857  0.00  0.00    +0.000 C 
ENDBRANCH  20  21
BRANCH  20  23
ATOM     23  O   UNL     1      31.080  -4.002  13.659  0.00  0.00    +0.000 OA
ATOM     24  H   UNL     1      31.068  -3.775  12.713  0.00  0.00    +0.000 HD
ENDBRANCH  20  23
ENDBRANCH  19  20
ENDBRANCH  17  18
ENDBRANCH  13  16
ENDBRANCH   2  13
TORSDOF 12
ENDMDL
MODEL 2
REMARK VINA RESULT:      -4.7     17.287     21.978
REMARK  Name = 86311066_OplopantriolA.pdbqt.pdb
REMARK  12 active torsions:
REMARK  status: ('A' for Active; 'I' for Inactive)
REMARK    1  A    between atoms: C_1  and  C_3
REMARK    2  A    between atoms: C_2  and  C_13
REMARK    3  A    between atoms: C_4  and  C_5
REMARK    4  A    between atoms: C_6  and  C_7
REMARK    5  A    between atoms: C_8  and  C_9
REMARK    6  A    between atoms: C_10  and  O_11
REMARK    7  A    between atoms: C_13  and  O_14
REMARK    8  A    between atoms: C_13  and  C_16
REMARK    9  A    between atoms: C_17  and  C_18
REMARK   10  A    between atoms: C_19  and  C_20
REMARK   11  A    between atoms: C_20  and  C_21
REMARK   12  A    between atoms: C_20  and  O_23
REMARK                            x       y       z     vdW  Elec       q    Type
REMARK                         _______ _______ _______ _____ _____    ______ ____
ROOT
ATOM      1  C   UNL     1      44.001   3.560  15.897  0.00  0.00    +0.000 C 
ATOM      2  C   UNL     1      44.099   4.539  16.586  0.00  0.00    +0.000 C 
ENDROOT
BRANCH   1   3
ATOM      3  C   UNL     1      43.878   2.313  15.018  0.00  0.00    +0.000 C 
ATOM      4  C   UNL     1      43.754   1.064  14.139  0.00  0.00    +0.000 C 
BRANCH   4   5
ATOM      5  C   UNL     1      43.631  -0.184  13.261  0.00  0.00    +0.000 C 
ATOM      6  C   UNL     1      43.510  -1.432  12.381  0.00  0.00    +0.000 C 
BRANCH   6   7
ATOM      7  C   UNL     1      43.387  -2.680  11.501  0.00  0.00    +0.000 C 
ATOM      8  C   UNL     1      43.265  -3.928  10.621  0.00  0.00    +0.000 C 
BRANCH   8   9
ATOM      9  C   UNL     1      43.141  -5.176   9.743  0.00  0.00    +0.000 C 
ATOM     10  C   UNL     1      43.018  -6.424   8.863  0.00  0.00    +0.000 C 
BRANCH  10  11
ATOM     11  O   UNL     1      42.911  -7.506   8.102  0.00  0.00    +0.000 OA
ATOM     12  H   UNL     1      42.976  -8.310   8.645  0.00  0.00    +0.000 HD
ENDBRANCH  10  11
ENDBRANCH   8   9
ENDBRANCH   6   7
ENDBRANCH   4   5
ENDBRANCH   1   3
BRANCH   2  13
ATOM     13  C   UNL     1      44.212   5.694  17.398  0.00  0.00    +0.000 C 
BRANCH  13  14
ATOM     14  O   UNL     1      45.423   6.347  17.410  0.00  0.00    +0.000 OA
ATOM     15  H   UNL     1      46.017   5.988  18.090  0.00  0.00    +0.000 HD
ENDBRANCH  13  14
BRANCH  13  16
ATOM     16  C   UNL     1      43.153   6.206  18.191  0.00  0.00    +0.000 C 
ATOM     17  C   UNL     1      42.257   6.639  18.862  0.00  0.00    +0.000 C 
BRANCH  17  18
ATOM     18  C   UNL     1      41.115   7.193  19.719  0.00  0.00    +0.000 C 
ATOM     19  C   UNL     1      40.220   7.627  20.392  0.00  0.00    +0.000 C 
BRANCH  19  20
ATOM     20  C   UNL     1      39.162   8.140  21.187  0.00  0.00    +0.000 C 
BRANCH  20  21
ATOM     21  C   UNL     1      38.834   9.523  21.254  0.00  0.00    +0.000 C 
ATOM     22  C   UNL     1      38.536  10.823  21.306  0.00  0.00    +0.000 C 
ENDBRANCH  20  21
BRANCH  20  23
ATOM     23  O   UNL     1      38.414   7.251  21.933  0.00  0.00    +0.000 OA
ATOM     24  H   UNL     1      38.191   7.612  22.809  0.00  0.00    +0.000 HD
ENDBRANCH  20  23
ENDBRANCH  19  20
ENDBRANCH  17  18
ENDBRANCH  13  16
ENDBRANCH   2  13
TORSDOF 12
ENDMDL
MODEL 3
REMARK VINA RESULT:      -4.5     24.100     26.624
REMARK  Name = 86311066_OplopantriolA.pdbqt.pdb
REMARK  12 active torsions:
REMARK  status: ('A' for Active; 'I' for Inactive)
REMARK    1  A    between atoms: C_1  and  C_3
REMARK    2  A    between atoms: C_2  and  C_13
REMARK    3  A    between atoms: C_4  and  C_5
REMARK    4  A    between atoms: C_6  and  C_7
REMARK    5  A    between atoms: C_8  and  C_9
REMARK    6  A    between atoms: C_10  and  O_11
REMARK    7  A    between atoms: C_13  and  O_14
REMARK    8  A    between atoms: C_13  and  C_16
REMARK    9  A    between atoms: C_17  and  C_18
REMARK   10  A    between atoms: C_19  and  C_20
REMARK   11  A    between atoms: C_20  and  C_21
REMARK   12  A    between atoms: C_20  and  O_23
REMARK                            x       y       z     vdW  Elec       q    Type
REMARK                         _______ _______ _______ _____ _____    ______ ____
ROOT
ATOM      1  C   UNL     1      41.178  15.910  20.463  0.00  0.00    +0.000 C 
ATOM      2  C   UNL     1      40.486  15.160  21.098  0.00  0.00    +0.000 C 
ENDROOT
BRANCH   1   3
ATOM      3  C   UNL     1      42.060  16.865  19.655  0.00  0.00    +0.000 C 
ATOM      4  C   UNL     1      42.943  17.819  18.845  0.00  0.00    +0.000 C 
BRANCH   4   5
ATOM      5  C   UNL     1      43.826  18.774  18.036  0.00  0.00    +0.000 C 
ATOM      6  C   UNL     1      44.712  19.727  17.228  0.00  0.00    +0.000 C 
BRANCH   6   7
ATOM      7  C   UNL     1      45.596  20.682  16.420  0.00  0.00    +0.000 C 
ATOM      8  C   UNL     1      46.480  21.636  15.612  0.00  0.00    +0.000 C 
BRANCH   8   9
ATOM      9  C   UNL     1      47.365  22.591  14.805  0.00  0.00    +0.000 C 
ATOM     10  C   UNL     1      48.250  23.546  13.998  0.00  0.00    +0.000 C 
BRANCH  10  11
ATOM     11  O   UNL     1      49.017  24.373  13.298  0.00  0.00    +0.000 OA
ATOM     12  H   UNL     1      48.876  24.241  12.345  0.00  0.00    +0.000 HD
ENDBRANCH  10  11
ENDBRANCH   8   9
ENDBRANCH   6   7
ENDBRANCH   4   5
ENDBRANCH   1   3
BRANCH   2  13
ATOM     13  C   UNL     1      39.670  14.278  21.847  0.00  0.00    +0.000 C 
BRANCH  13  14
ATOM     14  O   UNL     1      39.677  14.414  23.217  0.00  0.00    +0.000 OA
ATOM     15  H   UNL     1      40.488  14.048  23.609  0.00  0.00    +0.000 HD
ENDBRANCH  13  14
BRANCH  13  16
ATOM     16  C   UNL     1      38.856  13.273  21.264  0.00  0.00    +0.000 C 
ATOM     17  C   UNL     1      38.168  12.423  20.770  0.00  0.00    +0.000 C 
BRANCH  17  18
ATOM     18  C   UNL     1      37.291  11.338  20.138  0.00  0.00    +0.000 C 
ATOM     19  C   UNL     1      36.603  10.488  19.643  0.00  0.00    +0.000 C 
BRANCH  19  20
ATOM     20  C   UNL     1      35.790   9.481  19.058  0.00  0.00    +0.000 C 
BRANCH  20  21
ATOM     21  C   UNL     1      34.371   9.466  19.159  0.00  0.00    +0.000 C 
ATOM     22  C   UNL     1      33.041   9.458  19.268  0.00  0.00    +0.000 C 
ENDBRANCH  20  21
BRANCH  20  23
ATOM     23  O   UNL     1      36.409   8.466  18.356  0.00  0.00    +0.000 OA
ATOM     24  H   UNL     1      37.073   8.808  17.733  0.00  0.00    +0.000 HD
ENDBRANCH  20  23
ENDBRANCH  19  20
ENDBRANCH  17  18
ENDBRANCH  13  16
ENDBRANCH   2  13
TORSDOF 12
ENDMDL
MODEL 4
REMARK VINA RESULT:      -4.4     11.346     16.160
REMARK  Name = 86311066_OplopantriolA.pdbqt.pdb
REMARK  12 active torsions:
REMARK  status: ('A' for Active; 'I' for Inactive)
REMARK    1  A    between atoms: C_1  and  C_3
REMARK    2  A    between atoms: C_2  and  C_13
REMARK    3  A    between atoms: C_4  and  C_5
REMARK    4  A    between atoms: C_6  and  C_7
REMARK    5  A    between atoms: C_8  and  C_9
REMARK    6  A    between atoms: C_10  and  O_11
REMARK    7  A    between atoms: C_13  and  O_14
REMARK    8  A    between atoms: C_13  and  C_16
REMARK    9  A    between atoms: C_17  and  C_18
REMARK   10  A    between atoms: C_19  and  C_20
REMARK   11  A    between atoms: C_20  and  C_21
REMARK   12  A    between atoms: C_20  and  O_23
REMARK                            x       y       z     vdW  Elec       q    Type
REMARK                         _______ _______ _______ _____ _____    ______ ____
ROOT
ATOM      1  C   UNL     1      18.348  -1.930  11.923  0.00  0.00    +0.000 C 
ATOM      2  C   UNL     1      17.320  -1.585  11.405  0.00  0.00    +0.000 C 
ENDROOT
BRANCH   1   3
ATOM      3  C   UNL     1      19.659  -2.370  12.581  0.00  0.00    +0.000 C 
ATOM      4  C   UNL     1      20.969  -2.810  13.241  0.00  0.00    +0.000 C 
BRANCH   4   5
ATOM      5  C   UNL     1      22.280  -3.250  13.901  0.00  0.00    +0.000 C 
ATOM      6  C   UNL     1      23.590  -3.687  14.561  0.00  0.00    +0.000 C 
BRANCH   6   7
ATOM      7  C   UNL     1      24.901  -4.125  15.221  0.00  0.00    +0.000 C 
ATOM      8  C   UNL     1      26.212  -4.564  15.881  0.00  0.00    +0.000 C 
BRANCH   8   9
ATOM      9  C   UNL     1      27.524  -5.001  16.541  0.00  0.00    +0.000 C 
ATOM     10  C   UNL     1      28.835  -5.437  17.200  0.00  0.00    +0.000 C 
BRANCH  10  11
ATOM     11  O   UNL     1      29.972  -5.815  17.772  0.00  0.00    +0.000 OA
ATOM     12  H   UNL     1      30.711  -5.274  17.446  0.00  0.00    +0.000 HD
ENDBRANCH  10  11
ENDBRANCH   8   9
ENDBRANCH   6   7
ENDBRANCH   4   5
ENDBRANCH   1   3
BRANCH   2  13
ATOM     13  C   UNL     1      16.107  -1.180  10.797  0.00  0.00    +0.000 C 
BRANCH  13  14
ATOM     14  O   UNL     1      15.100  -2.112  10.704  0.00  0.00    +0.000 OA
ATOM     15  H   UNL     1      14.230  -1.691  10.604  0.00  0.00    +0.000 HD
ENDBRANCH  13  14
BRANCH  13  16
ATOM     16  C   UNL     1      15.881   0.124  10.285  0.00  0.00    +0.000 C 
ATOM     17  C   UNL     1      15.690   1.226   9.850  0.00  0.00    +0.000 C 
BRANCH  17  18
ATOM     18  C   UNL     1      15.445   2.632   9.295  0.00  0.00    +0.000 C 
ATOM     19  C   UNL     1      15.253   3.734   8.859  0.00  0.00    +0.000 C 
BRANCH  19  20
ATOM     20  C   UNL     1      15.027   5.038   8.344  0.00  0.00    +0.000 C 
BRANCH  20  21
ATOM     21  C   UNL     1      16.006   5.773   7.620  0.00  0.00    +0.000 C 
ATOM     22  C   UNL     1      16.933   6.464   6.953  0.00  0.00    +0.000 C 
ENDBRANCH  20  21
BRANCH  20  23
ATOM     23  O   UNL     1      13.795   5.622   8.559  0.00  0.00    +0.000 OA
ATOM     24  H   UNL     1      13.291   5.161   9.252  0.00  0.00    +0.000 HD
ENDBRANCH  20  23
ENDBRANCH  19  20
ENDBRANCH  17  18
ENDBRANCH  13  16
ENDBRANCH   2  13
TORSDOF 12
ENDMDL
MODEL 5
REMARK VINA RESULT:      -4.2     22.327     27.504
REMARK  Name = 86311066_OplopantriolA.pdbqt.pdb
REMARK  12 active torsions:
REMARK  status: ('A' for Active; 'I' for Inactive)
REMARK    1  A    between atoms: C_1  and  C_3
REMARK    2  A    between atoms: C_2  and  C_13
REMARK    3  A    between atoms: C_4  and  C_5
REMARK    4  A    between atoms: C_6  and  C_7
REMARK    5  A    between atoms: C_8  and  C_9
REMARK    6  A    between atoms: C_10  and  O_11
REMARK    7  A    between atoms: C_13  and  O_14
REMARK    8  A    between atoms: C_13  and  C_16
REMARK    9  A    between atoms: C_17  and  C_18
REMARK   10  A    between atoms: C_19  and  C_20
REMARK   11  A    between atoms: C_20  and  C_21
REMARK   12  A    between atoms: C_20  and  O_23
REMARK                            x       y       z     vdW  Elec       q    Type
REMARK                         _______ _______ _______ _____ _____    ______ ____
ROOT
ATOM      1  C   UNL     1      50.098   2.188   7.082  0.00  0.00    +0.000 C 
ATOM      2  C   UNL     1      50.780   2.793   6.298  0.00  0.00    +0.000 C 
ENDROOT
BRANCH   1   3
ATOM      3  C   UNL     1      49.231   1.418   8.080  0.00  0.00    +0.000 C 
ATOM      4  C   UNL     1      48.363   0.648   9.080  0.00  0.00    +0.000 C 
BRANCH   4   5
ATOM      5  C   UNL     1      47.496  -0.123  10.081  0.00  0.00    +0.000 C 
ATOM      6  C   UNL     1      46.630  -0.892  11.082  0.00  0.00    +0.000 C 
BRANCH   6   7
ATOM      7  C   UNL     1      45.763  -1.663  12.084  0.00  0.00    +0.000 C 
ATOM      8  C   UNL     1      44.897  -2.433  13.085  0.00  0.00    +0.000 C 
BRANCH   8   9
ATOM      9  C   UNL     1      44.031  -3.202  14.086  0.00  0.00    +0.000 C 
ATOM     10  C   UNL     1      43.163  -3.972  15.087  0.00  0.00    +0.000 C 
BRANCH  10  11
ATOM     11  O   UNL     1      42.412  -4.639  15.955  0.00  0.00    +0.000 OA
ATOM     12  H   UNL     1      42.684  -5.571  15.992  0.00  0.00    +0.000 HD
ENDBRANCH  10  11
ENDBRANCH   8   9
ENDBRANCH   6   7
ENDBRANCH   4   5
ENDBRANCH   1   3
BRANCH   2  13
ATOM     13  C   UNL     1      51.583   3.504   5.374  0.00  0.00    +0.000 C 
BRANCH  13  14
ATOM     14  O   UNL     1      52.587   2.810   4.738  0.00  0.00    +0.000 OA
ATOM     15  H   UNL     1      52.567   2.952   3.777  0.00  0.00    +0.000 HD
ENDBRANCH  13  14
BRANCH  13  16
ATOM     16  C   UNL     1      51.407   4.879   5.074  0.00  0.00    +0.000 C 
ATOM     17  C   UNL     1      51.258   6.043   4.821  0.00  0.00    +0.000 C 
BRANCH  17  18
ATOM     18  C   UNL     1      51.068   7.528   4.501  0.00  0.00    +0.000 C 
ATOM     19  C   UNL     1      50.919   8.693   4.250  0.00  0.00    +0.000 C 
BRANCH  19  20
ATOM     20  C   UNL     1      50.743  10.071   3.953  0.00  0.00    +0.000 C 
BRANCH  20  21
ATOM     21  C   UNL     1      51.386  10.724   2.864  0.00  0.00    +0.000 C 
ATOM     22  C   UNL     1      52.001  11.340   1.853  0.00  0.00    +0.000 C 
ENDBRANCH  20  21
BRANCH  20  23
ATOM     23  O   UNL     1      49.908  10.813   4.763  0.00  0.00    +0.000 OA
ATOM     24  H   UNL     1      50.031  11.769   4.630  0.00  0.00    +0.000 HD
ENDBRANCH  20  23
ENDBRANCH  19  20
ENDBRANCH  17  18
ENDBRANCH  13  16
ENDBRANCH   2  13
TORSDOF 12
ENDMDL
MODEL 6
REMARK VINA RESULT:      -4.1     32.821     35.607
REMARK  Name = 86311066_OplopantriolA.pdbqt.pdb
REMARK  12 active torsions:
REMARK  status: ('A' for Active; 'I' for Inactive)
REMARK    1  A    between atoms: C_1  and  C_3
REMARK    2  A    between atoms: C_2  and  C_13
REMARK    3  A    between atoms: C_4  and  C_5
REMARK    4  A    between atoms: C_6  and  C_7
REMARK    5  A    between atoms: C_8  and  C_9
REMARK    6  A    between atoms: C_10  and  O_11
REMARK    7  A    between atoms: C_13  and  O_14
REMARK    8  A    between atoms: C_13  and  C_16
REMARK    9  A    between atoms: C_17  and  C_18
REMARK   10  A    between atoms: C_19  and  C_20
REMARK   11  A    between atoms: C_20  and  C_21
REMARK   12  A    between atoms: C_20  and  O_23
REMARK                            x       y       z     vdW  Elec       q    Type
REMARK                         _______ _______ _______ _____ _____    ______ ____
ROOT
ATOM      1  C   UNL     1      24.304  27.295   5.205  0.00  0.00    +0.000 C 
ATOM      2  C   UNL     1      24.839  26.559   4.421  0.00  0.00    +0.000 C 
ENDROOT
BRANCH   1   3
ATOM      3  C   UNL     1      23.623  28.232   6.205  0.00  0.00    +0.000 C 
ATOM      4  C   UNL     1      22.942  29.171   7.206  0.00  0.00    +0.000 C 
BRANCH   4   5
ATOM      5  C   UNL     1      22.261  30.108   8.208  0.00  0.00    +0.000 C 
ATOM      6  C   UNL     1      21.579  31.044   9.210  0.00  0.00    +0.000 C 
BRANCH   6   7
ATOM      7  C   UNL     1      20.896  31.981  10.212  0.00  0.00    +0.000 C 
ATOM      8  C   UNL     1      20.214  32.918  11.214  0.00  0.00    +0.000 C 
BRANCH   8   9
ATOM      9  C   UNL     1      19.532  33.855  12.214  0.00  0.00    +0.000 C 
ATOM     10  C   UNL     1      18.849  34.792  13.215  0.00  0.00    +0.000 C 
BRANCH  10  11
ATOM     11  O   UNL     1      18.258  35.605  14.083  0.00  0.00    +0.000 OA
ATOM     12  H   UNL     1      17.293  35.498  14.043  0.00  0.00    +0.000 HD
ENDBRANCH  10  11
ENDBRANCH   8   9
ENDBRANCH   6   7
ENDBRANCH   4   5
ENDBRANCH   1   3
BRANCH   2  13
ATOM     13  C   UNL     1      25.468  25.691   3.495  0.00  0.00    +0.000 C 
BRANCH  13  14
ATOM     14  O   UNL     1      26.726  26.035   3.054  0.00  0.00    +0.000 OA
ATOM     15  H   UNL     1      27.360  25.310   3.183  0.00  0.00    +0.000 HD
ENDBRANCH  13  14
BRANCH  13  16
ATOM     16  C   UNL     1      24.874  24.499   3.004  0.00  0.00    +0.000 C 
ATOM     17  C   UNL     1      24.373  23.490   2.590  0.00  0.00    +0.000 C 
BRANCH  17  18
ATOM     18  C   UNL     1      23.734  22.203   2.062  0.00  0.00    +0.000 C 
ATOM     19  C   UNL     1      23.233  21.193   1.649  0.00  0.00    +0.000 C 
BRANCH  19  20
ATOM     20  C   UNL     1      22.641  19.999   1.158  0.00  0.00    +0.000 C 
BRANCH  20  21
ATOM     21  C   UNL     1      22.459  19.728  -0.227  0.00  0.00    +0.000 C 
ATOM     22  C   UNL     1      22.304  19.470  -1.527  0.00  0.00    +0.000 C 
ENDBRANCH  20  21
BRANCH  20  23
ATOM     23  O   UNL     1      22.218  19.055   2.072  0.00  0.00    +0.000 OA
ATOM     24  H   UNL     1      21.461  18.543   1.739  0.00  0.00    +0.000 HD
ENDBRANCH  20  23
ENDBRANCH  19  20
ENDBRANCH  17  18
ENDBRANCH  13  16
ENDBRANCH   2  13
TORSDOF 12
ENDMDL
MODEL 7
REMARK VINA RESULT:      -4.1     12.128     17.792
REMARK  Name = 86311066_OplopantriolA.pdbqt.pdb
REMARK  12 active torsions:
REMARK  status: ('A' for Active; 'I' for Inactive)
REMARK    1  A    between atoms: C_1  and  C_3
REMARK    2  A    between atoms: C_2  and  C_13
REMARK    3  A    between atoms: C_4  and  C_5
REMARK    4  A    between atoms: C_6  and  C_7
REMARK    5  A    between atoms: C_8  and  C_9
REMARK    6  A    between atoms: C_10  and  O_11
REMARK    7  A    between atoms: C_13  and  O_14
REMARK    8  A    between atoms: C_13  and  C_16
REMARK    9  A    between atoms: C_17  and  C_18
REMARK   10  A    between atoms: C_19  and  C_20
REMARK   11  A    between atoms: C_20  and  C_21
REMARK   12  A    between atoms: C_20  and  O_23
REMARK                            x       y       z     vdW  Elec       q    Type
REMARK                         _______ _______ _______ _____ _____    ______ ____
ROOT
ATOM      1  C   UNL     1      17.537  -1.089  11.613  0.00  0.00    +0.000 C 
ATOM      2  C   UNL     1      16.611  -0.346  11.430  0.00  0.00    +0.000 C 
ENDROOT
BRANCH   1   3
ATOM      3  C   UNL     1      18.716  -2.037  11.845  0.00  0.00    +0.000 C 
ATOM      4  C   UNL     1      19.896  -2.985  12.079  0.00  0.00    +0.000 C 
BRANCH   4   5
ATOM      5  C   UNL     1      21.077  -3.932  12.312  0.00  0.00    +0.000 C 
ATOM      6  C   UNL     1      22.259  -4.878  12.545  0.00  0.00    +0.000 C 
BRANCH   6   7
ATOM      7  C   UNL     1      23.441  -5.824  12.777  0.00  0.00    +0.000 C 
ATOM      8  C   UNL     1      24.623  -6.771  13.010  0.00  0.00    +0.000 C 
BRANCH   8   9
ATOM      9  C   UNL     1      25.803  -7.718  13.242  0.00  0.00    +0.000 C 
ATOM     10  C   UNL     1      26.984  -8.667  13.475  0.00  0.00    +0.000 C 
BRANCH  10  11
ATOM     11  O   UNL     1      28.007  -9.488  13.676  0.00  0.00    +0.000 OA
ATOM     12  H   UNL     1      28.164 -10.032  12.886  0.00  0.00    +0.000 HD
ENDBRANCH  10  11
ENDBRANCH   8   9
ENDBRANCH   6   7
ENDBRANCH   4   5
ENDBRANCH   1   3
BRANCH   2  13
ATOM     13  C   UNL     1      15.519   0.530  11.217  0.00  0.00    +0.000 C 
BRANCH  13  14
ATOM     14  O   UNL     1      14.415   0.380  12.025  0.00  0.00    +0.000 OA
ATOM     15  H   UNL     1      13.729   1.037  11.820  0.00  0.00    +0.000 HD
ENDBRANCH  13  14
BRANCH  13  16
ATOM     16  C   UNL     1      15.505   1.543  10.223  0.00  0.00    +0.000 C 
ATOM     17  C   UNL     1      15.494   2.399   9.381  0.00  0.00    +0.000 C 
BRANCH  17  18
ATOM     18  C   UNL     1      15.480   3.489   8.306  0.00  0.00    +0.000 C 
ATOM     19  C   UNL     1      15.469   4.344   7.463  0.00  0.00    +0.000 C 
BRANCH  19  20
ATOM     20  C   UNL     1      15.456   5.354   6.466  0.00  0.00    +0.000 C 
BRANCH  20  21
ATOM     21  C   UNL     1      16.475   5.494   5.482  0.00  0.00    +0.000 C 
ATOM     22  C   UNL     1      17.419   5.623   4.548  0.00  0.00    +0.000 C 
ENDBRANCH  20  21
BRANCH  20  23
ATOM     23  O   UNL     1      14.403   6.246   6.451  0.00  0.00    +0.000 OA
ATOM     24  H   UNL     1      14.467   6.894   7.174  0.00  0.00    +0.000 HD
ENDBRANCH  20  23
ENDBRANCH  19  20
ENDBRANCH  17  18
ENDBRANCH  13  16
ENDBRANCH   2  13
TORSDOF 12
ENDMDL
MODEL 8
REMARK VINA RESULT:      -4.1     21.545     25.820
REMARK  Name = 86311066_OplopantriolA.pdbqt.pdb
REMARK  12 active torsions:
REMARK  status: ('A' for Active; 'I' for Inactive)
REMARK    1  A    between atoms: C_1  and  C_3
REMARK    2  A    between atoms: C_2  and  C_13
REMARK    3  A    between atoms: C_4  and  C_5
REMARK    4  A    between atoms: C_6  and  C_7
REMARK    5  A    between atoms: C_8  and  C_9
REMARK    6  A    between atoms: C_10  and  O_11
REMARK    7  A    between atoms: C_13  and  O_14
REMARK    8  A    between atoms: C_13  and  C_16
REMARK    9  A    between atoms: C_17  and  C_18
REMARK   10  A    between atoms: C_19  and  C_20
REMARK   11  A    between atoms: C_20  and  C_21
REMARK   12  A    between atoms: C_20  and  O_23
REMARK                            x       y       z     vdW  Elec       q    Type
REMARK                         _______ _______ _______ _____ _____    ______ ____
ROOT
ATOM      1  C   UNL     1      14.094   8.261   7.966  0.00  0.00    +0.000 C 
ATOM      2  C   UNL     1      13.846   9.319   8.479  0.00  0.00    +0.000 C 
ENDROOT
BRANCH   1   3
ATOM      3  C   UNL     1      14.412   6.913   7.314  0.00  0.00    +0.000 C 
ATOM      4  C   UNL     1      14.729   5.564   6.661  0.00  0.00    +0.000 C 
BRANCH   4   5
ATOM      5  C   UNL     1      15.045   4.215   6.008  0.00  0.00    +0.000 C 
ATOM      6  C   UNL     1      15.361   2.865   5.358  0.00  0.00    +0.000 C 
BRANCH   6   7
ATOM      7  C   UNL     1      15.678   1.516   4.706  0.00  0.00    +0.000 C 
ATOM      8  C   UNL     1      15.995   0.166   4.055  0.00  0.00    +0.000 C 
BRANCH   8   9
ATOM      9  C   UNL     1      16.312  -1.183   3.402  0.00  0.00    +0.000 C 
ATOM     10  C   UNL     1      16.629  -2.532   2.750  0.00  0.00    +0.000 C 
BRANCH  10  11
ATOM     11  O   UNL     1      16.904  -3.701   2.184  0.00  0.00    +0.000 OA
ATOM     12  H   UNL     1      17.004  -3.597   1.223  0.00  0.00    +0.000 HD
ENDBRANCH  10  11
ENDBRANCH   8   9
ENDBRANCH   6   7
ENDBRANCH   4   5
ENDBRANCH   1   3
BRANCH   2  13
ATOM     13  C   UNL     1      13.553  10.567   9.081  0.00  0.00    +0.000 C 
BRANCH  13  14
ATOM     14  O   UNL     1      13.802  11.703   8.344  0.00  0.00    +0.000 OA
ATOM     15  H   UNL     1      13.313  12.468   8.690  0.00  0.00    +0.000 HD
ENDBRANCH  13  14
BRANCH  13  16
ATOM     16  C   UNL     1      13.023  10.704  10.390  0.00  0.00    +0.000 C 
ATOM     17  C   UNL     1      12.575  10.819  11.497  0.00  0.00    +0.000 C 
BRANCH  17  18
ATOM     18  C   UNL     1      12.004  10.964  12.911  0.00  0.00    +0.000 C 
ATOM     19  C   UNL     1      11.556  11.077  14.019  0.00  0.00    +0.000 C 
BRANCH  19  20
ATOM     20  C   UNL     1      11.026  11.210  15.329  0.00  0.00    +0.000 C 
BRANCH  20  21
ATOM     21  C   UNL     1      11.306  12.318  16.177  0.00  0.00    +0.000 C 
ATOM     22  C   UNL     1      11.555  13.363  16.970  0.00  0.00    +0.000 C 
ENDBRANCH  20  21
BRANCH  20  23
ATOM     23  O   UNL     1      10.198  10.214  15.805  0.00  0.00    +0.000 OA
ATOM     24  H   UNL     1       9.698  10.502  16.588  0.00  0.00    +0.000 HD
ENDBRANCH  20  23
ENDBRANCH  19  20
ENDBRANCH  17  18
ENDBRANCH  13  16
ENDBRANCH   2  13
TORSDOF 12
ENDMDL
MODEL 9
REMARK VINA RESULT:      -4.0     21.081     27.752
REMARK  Name = 86311066_OplopantriolA.pdbqt.pdb
REMARK  12 active torsions:
REMARK  status: ('A' for Active; 'I' for Inactive)
REMARK    1  A    between atoms: C_1  and  C_3
REMARK    2  A    between atoms: C_2  and  C_13
REMARK    3  A    between atoms: C_4  and  C_5
REMARK    4  A    between atoms: C_6  and  C_7
REMARK    5  A    between atoms: C_8  and  C_9
REMARK    6  A    between atoms: C_10  and  O_11
REMARK    7  A    between atoms: C_13  and  O_14
REMARK    8  A    between atoms: C_13  and  C_16
REMARK    9  A    between atoms: C_17  and  C_18
REMARK   10  A    between atoms: C_19  and  C_20
REMARK   11  A    between atoms: C_20  and  C_21
REMARK   12  A    between atoms: C_20  and  O_23
REMARK                            x       y       z     vdW  Elec       q    Type
REMARK                         _______ _______ _______ _____ _____    ______ ____
ROOT
ATOM      1  C   UNL     1      49.845  -0.770   9.087  0.00  0.00    +0.000 C 
ATOM      2  C   UNL     1      49.628  -1.819   9.631  0.00  0.00    +0.000 C 
ENDROOT
BRANCH   1   3
ATOM      3  C   UNL     1      50.123   0.567   8.395  0.00  0.00    +0.000 C 
ATOM      4  C   UNL     1      50.402   1.904   7.703  0.00  0.00    +0.000 C 
BRANCH   4   5
ATOM      5  C   UNL     1      50.682   3.242   7.011  0.00  0.00    +0.000 C 
ATOM      6  C   UNL     1      50.961   4.581   6.321  0.00  0.00    +0.000 C 
BRANCH   6   7
ATOM      7  C   UNL     1      51.239   5.919   5.630  0.00  0.00    +0.000 C 
ATOM      8  C   UNL     1      51.518   7.257   4.939  0.00  0.00    +0.000 C 
BRANCH   8   9
ATOM      9  C   UNL     1      51.795   8.596   4.249  0.00  0.00    +0.000 C 
ATOM     10  C   UNL     1      52.073   9.934   3.558  0.00  0.00    +0.000 C 
BRANCH  10  11
ATOM     11  O   UNL     1      52.313  11.095   2.959  0.00  0.00    +0.000 OA
ATOM     12  H   UNL     1      51.478  11.549   2.754  0.00  0.00    +0.000 HD
ENDBRANCH  10  11
ENDBRANCH   8   9
ENDBRANCH   6   7
ENDBRANCH   4   5
ENDBRANCH   1   3
BRANCH   2  13
ATOM     13  C   UNL     1      49.370  -3.056  10.272  0.00  0.00    +0.000 C 
BRANCH  13  14
ATOM     14  O   UNL     1      50.347  -3.558  11.101  0.00  0.00    +0.000 OA
ATOM     15  H   UNL     1      51.236  -3.316  10.794  0.00  0.00    +0.000 HD
ENDBRANCH  13  14
BRANCH  13  16
ATOM     16  C   UNL     1      48.170  -3.794  10.105  0.00  0.00    +0.000 C 
ATOM     17  C   UNL     1      47.155  -4.419   9.962  0.00  0.00    +0.000 C 
BRANCH  17  18
ATOM     18  C   UNL     1      45.861  -5.216   9.779  0.00  0.00    +0.000 C 
ATOM     19  C   UNL     1      44.846  -5.842   9.635  0.00  0.00    +0.000 C 
BRANCH  19  20
ATOM     20  C   UNL     1      43.646  -6.581   9.464  0.00  0.00    +0.000 C 
BRANCH  20  21
ATOM     21  C   UNL     1      42.801  -6.960  10.544  0.00  0.00    +0.000 C 
ATOM     22  C   UNL     1      42.007  -7.301  11.561  0.00  0.00    +0.000 C 
ENDBRANCH  20  21
BRANCH  20  23
ATOM     23  O   UNL     1      43.281  -6.950   8.185  0.00  0.00    +0.000 OA
ATOM     24  H   UNL     1      42.497  -6.462   7.877  0.00  0.00    +0.000 HD
ENDBRANCH  20  23
ENDBRANCH  19  20
ENDBRANCH  17  18
ENDBRANCH  13  16
ENDBRANCH   2  13
TORSDOF 12
ENDMDL
