REMARK  Name = 91746246_sitosterol.pdbqt.pdb
REMARK  10 active torsions:
REMARK  status: ('A' for Active; 'I' for Inactive)
REMARK    1  A    between atoms: C_5  and  C_20
REMARK    2  A    between atoms: C_19  and  O_30
REMARK    3  A    between atoms: C_20  and  C_22
REMARK    4  A    between atoms: C_23  and  C_24
REMARK    5  A    between atoms: C_24  and  C_28
REMARK    6  A    between atoms: O_30  and  C_32
REMARK    7  A    between atoms: C_32  and  C_33
REMARK    8  A    between atoms: C_34  and  C_35
REMARK    9  A    between atoms: C_38  and  O_41
REMARK   10  A    between atoms: C_40  and  O_43
REMARK                            x       y       z     vdW  Elec       q    Type
REMARK                         _______ _______ _______ _____ _____    ______ ____
ROOT
ATOM      1  C   UNL     1       4.463   1.827   0.864  0.00  0.00    +0.000 C 
ATOM      2  C   UNL     1       3.561   0.791   1.724  0.00  0.00    +0.000 C 
ATOM      3  C   UNL     1       2.093   0.918   1.824  0.00  0.00    +0.000 C 
ATOM      4  C   UNL     1       1.222   1.814   0.979  0.00  0.00    +0.000 C 
ATOM      5  C   UNL     1       5.441   0.911   0.139  0.00  0.00    +0.000 C 
ATOM      6  C   UNL     1       3.507   2.518   0.000  0.00  0.00    +0.000 C 
ATOM      7  C   UNL     1      -0.312   1.947   1.165  0.00  0.00    +0.000 C 
ATOM      8  C   UNL     1       4.165  -0.500   1.604  0.00  0.00    +0.000 C 
ATOM      9  C   UNL     1       1.999   2.552   0.047  0.00  0.00    +0.000 C 
ATOM     10  C   UNL     1       5.295  -0.426   0.613  0.00  0.00    +0.000 C 
ATOM     11  C   UNL     1       1.340   0.055   2.658  0.00  0.00    +0.000 C 
ATOM     12  C   UNL     1       5.197   2.741   1.881  0.00  0.00    +0.000 C 
ATOM     13  C   UNL     1      -0.992   0.719   2.033  0.00  0.00    +0.000 C 
ATOM     14  C   UNL     1      -1.005   1.872  -0.155  0.00  0.00    +0.000 C 
ATOM     15  C   UNL     1      -0.157  -0.001   2.718  0.00  0.00    +0.000 C 
ATOM     16  C   UNL     1      -0.626   3.273   1.918  0.00  0.00    +0.000 C 
ATOM     17  C   UNL     1      -2.090   0.037   1.385  0.00  0.00    +0.000 C 
ATOM     18  C   UNL     1      -2.157   1.016  -0.707  0.00  0.00    +0.000 C 
ATOM     19  C   UNL     1      -2.774   0.016   0.119  0.00  0.00    +0.000 C 
ENDROOT
BRANCH   5  20
ATOM     20  C   UNL     1       6.510   1.371  -0.688  0.00  0.00    +0.000 C 
ATOM     21  C   UNL     1       6.333   2.482  -1.688  0.00  0.00    +0.000 C 
BRANCH  20  22
ATOM     22  C   UNL     1       7.726   0.639  -0.788  0.00  0.00    +0.000 C 
ATOM     23  C   UNL     1       9.038  -0.153  -0.898  0.00  0.00    +0.000 C 
BRANCH  23  24
ATOM     24  C   UNL     1      10.248  -0.904  -0.998  0.00  0.00    +0.000 C 
ATOM     25  C   UNL     1      11.459  -0.308  -1.521  0.00  0.00    +0.000 C 
ATOM     26  C   UNL     1      12.756  -1.069  -1.687  0.00  0.00    +0.000 C 
ATOM     27  C   UNL     1      11.538   1.143  -1.949  0.00  0.00    +0.000 C 
BRANCH  24  28
ATOM     28  C   UNL     1      10.265  -2.261  -0.578  0.00  0.00    +0.000 C 
ATOM     29  C   UNL     1      10.216  -3.719  -0.107  0.00  0.00    +0.000 C 
ENDBRANCH  24  28
ENDBRANCH  23  24
ENDBRANCH  20  22
ENDBRANCH   5  20
BRANCH  19  30
ATOM     30  O   UNL     1      -4.155  -0.156   0.116  0.00  0.00    +0.000 OA
BRANCH  30  32
ATOM     31  O   UNL     1      -3.912  -1.138  -1.978  0.00  0.00    +0.000 OA
ATOM     32  C   UNL     1      -4.586  -0.744  -1.038  0.00  0.00    +0.000 C 
BRANCH  32  33
ATOM     33  C   UNL     1      -6.019  -0.905  -1.046  0.00  0.00    +0.000 C 
ATOM     34  C   UNL     1      -7.211  -1.057  -1.047  0.00  0.00    +0.000 C 
BRANCH  34  35
ATOM     35  C   UNL     1      -8.623  -1.256  -1.043  0.00  0.00    +0.000 A 
ATOM     36  C   UNL     1      -9.184  -2.214  -0.200  0.00  0.00    +0.000 A 
ATOM     37  C   UNL     1      -9.437  -0.501  -1.883  0.00  0.00    +0.000 A 
ATOM     38  C   UNL     1     -10.565  -2.428  -0.185  0.00  0.00    +0.000 A 
ATOM     39  C   UNL     1     -10.815  -0.704  -1.879  0.00  0.00    +0.000 A 
ATOM     40  C   UNL     1     -11.370  -1.664  -1.034  0.00  0.00    +0.000 A 
BRANCH  38  41
ATOM     41  O   UNL     1     -11.197  -3.351   0.612  0.00  0.00    +0.000 OA
ATOM     42  C   UNL     1     -10.359  -4.093   1.460  0.00  0.00    +0.000 C 
ENDBRANCH  38  41
BRANCH  40  43
ATOM     43  O   UNL     1     -12.724  -1.860  -1.036  0.00  0.00    +0.000 OA
ATOM     44  H   UNL     1     -13.127  -1.251  -1.683  0.00  0.00    +0.000 HD
ENDBRANCH  40  43
ENDBRANCH  34  35
ENDBRANCH  32  33
ENDBRANCH  30  32
ENDBRANCH  19  30
TORSDOF 10
