MODEL 1
REMARK VINA RESULT:      -8.6      0.000      0.000
REMARK  Name = 91746246_sitosterol.pdbqt.pdb
REMARK  10 active torsions:
REMARK  status: ('A' for Active; 'I' for Inactive)
REMARK    1  A    between atoms: C_5  and  C_20
REMARK    2  A    between atoms: C_19  and  O_30
REMARK    3  A    between atoms: C_20  and  C_22
REMARK    4  A    between atoms: C_23  and  C_24
REMARK    5  A    between atoms: C_24  and  C_28
REMARK    6  A    between atoms: O_30  and  C_32
REMARK    7  A    between atoms: C_32  and  C_33
REMARK    8  A    between atoms: C_34  and  C_35
REMARK    9  A    between atoms: C_38  and  O_41
REMARK   10  A    between atoms: C_40  and  O_43
REMARK                            x       y       z     vdW  Elec       q    Type
REMARK                         _______ _______ _______ _____ _____    ______ ____
ROOT
ATOM      1  C   UNL     1      27.539  -7.206  18.264  0.00  0.00    +0.000 C 
ATOM      2  C   UNL     1      28.137  -6.280  17.077  0.00  0.00    +0.000 C 
ATOM      3  C   UNL     1      27.276  -5.431  16.229  0.00  0.00    +0.000 C 
ATOM      4  C   UNL     1      25.827  -5.103  16.487  0.00  0.00    +0.000 C 
ATOM      5  C   UNL     1      28.524  -6.982  19.405  0.00  0.00    +0.000 C 
ATOM      6  C   UNL     1      26.193  -6.683  18.497  0.00  0.00    +0.000 C 
ATOM      7  C   UNL     1      24.955  -4.248  15.531  0.00  0.00    +0.000 C 
ATOM      8  C   UNL     1      29.413  -5.803  17.512  0.00  0.00    +0.000 C 
ATOM      9  C   UNL     1      25.364  -5.727  17.675  0.00  0.00    +0.000 C 
ATOM     10  C   UNL     1      29.631  -6.211  18.944  0.00  0.00    +0.000 C 
ATOM     11  C   UNL     1      27.814  -4.704  15.138  0.00  0.00    +0.000 C 
ATOM     12  C   UNL     1      27.586  -8.674  17.762  0.00  0.00    +0.000 C 
ATOM     13  C   UNL     1      25.824  -3.347  14.454  0.00  0.00    +0.000 C 
ATOM     14  C   UNL     1      24.183  -3.228  16.301  0.00  0.00    +0.000 C 
ATOM     15  C   UNL     1      27.064  -3.703  14.312  0.00  0.00    +0.000 C 
ATOM     16  C   UNL     1      24.026  -5.185  14.704  0.00  0.00    +0.000 C 
ATOM     17  C   UNL     1      25.527  -1.932  14.449  0.00  0.00    +0.000 C 
ATOM     18  C   UNL     1      24.024  -1.703  16.189  0.00  0.00    +0.000 C 
ATOM     19  C   UNL     1      24.738  -0.975  15.178  0.00  0.00    +0.000 C 
ENDROOT
BRANCH   5  20
ATOM     20  C   UNL     1      28.469  -7.661  20.659  0.00  0.00    +0.000 C 
ATOM     21  C   UNL     1      28.671  -9.148  20.778  0.00  0.00    +0.000 C 
BRANCH  20  22
ATOM     22  C   UNL     1      27.974  -7.011  21.824  0.00  0.00    +0.000 C 
ATOM     23  C   UNL     1      27.437  -6.309  23.081  0.00  0.00    +0.000 C 
BRANCH  23  24
ATOM     24  C   UNL     1      26.927  -5.647  24.239  0.00  0.00    +0.000 C 
ATOM     25  C   UNL     1      27.681  -4.600  24.896  0.00  0.00    +0.000 C 
ATOM     26  C   UNL     1      27.207  -3.896  26.148  0.00  0.00    +0.000 C 
ATOM     27  C   UNL     1      29.019  -4.110  24.384  0.00  0.00    +0.000 C 
BRANCH  24  28
ATOM     28  C   UNL     1      25.659  -6.022  24.756  0.00  0.00    +0.000 C 
ATOM     29  C   UNL     1      24.276  -6.458  25.254  0.00  0.00    +0.000 C 
ENDBRANCH  24  28
ENDBRANCH  23  24
ENDBRANCH  20  22
ENDBRANCH   5  20
BRANCH  19  30
ATOM     30  O   UNL     1      24.118   0.049  14.467  0.00  0.00    +0.000 OA
BRANCH  30  32
ATOM     31  O   UNL     1      24.802   0.168  12.248  0.00  0.00    +0.000 OA
ATOM     32  C   UNL     1      24.058  -0.230  13.132  0.00  0.00    +0.000 C 
BRANCH  32  33
ATOM     33  C   UNL     1      22.976  -1.133  12.829  0.00  0.00    +0.000 C 
ATOM     34  C   UNL     1      22.083  -1.890  12.559  0.00  0.00    +0.000 C 
BRANCH  34  35
ATOM     35  C   UNL     1      21.031  -2.792  12.222  0.00  0.00    +0.000 A 
ATOM     36  C   UNL     1      19.739  -2.306  12.025  0.00  0.00    +0.000 A 
ATOM     37  C   UNL     1      21.292  -4.154  12.098  0.00  0.00    +0.000 A 
ATOM     38  C   UNL     1      18.694  -3.174  11.699  0.00  0.00    +0.000 A 
ATOM     39  C   UNL     1      20.259  -5.031  11.775  0.00  0.00    +0.000 A 
ATOM     40  C   UNL     1      18.970  -4.539  11.579  0.00  0.00    +0.000 A 
BRANCH  38  41
ATOM     41  O   UNL     1      17.395  -2.778  11.491  0.00  0.00    +0.000 OA
ATOM     42  C   UNL     1      17.098  -1.457  11.861  0.00  0.00    +0.000 C 
ENDBRANCH  38  41
BRANCH  40  43
ATOM     43  O   UNL     1      17.959  -5.405  11.263  0.00  0.00    +0.000 OA
ATOM     44  H   UNL     1      17.215  -5.254  11.876  0.00  0.00    +0.000 HD
ENDBRANCH  40  43
ENDBRANCH  34  35
ENDBRANCH  32  33
ENDBRANCH  30  32
ENDBRANCH  19  30
TORSDOF 10
ENDMDL
MODEL 2
REMARK VINA RESULT:      -8.4      1.998      4.246
REMARK  Name = 91746246_sitosterol.pdbqt.pdb
REMARK  10 active torsions:
REMARK  status: ('A' for Active; 'I' for Inactive)
REMARK    1  A    between atoms: C_5  and  C_20
REMARK    2  A    between atoms: C_19  and  O_30
REMARK    3  A    between atoms: C_20  and  C_22
REMARK    4  A    between atoms: C_23  and  C_24
REMARK    5  A    between atoms: C_24  and  C_28
REMARK    6  A    between atoms: O_30  and  C_32
REMARK    7  A    between atoms: C_32  and  C_33
REMARK    8  A    between atoms: C_34  and  C_35
REMARK    9  A    between atoms: C_38  and  O_41
REMARK   10  A    between atoms: C_40  and  O_43
REMARK                            x       y       z     vdW  Elec       q    Type
REMARK                         _______ _______ _______ _____ _____    ______ ____
ROOT
ATOM      1  C   UNL     1      27.889  -7.421  17.819  0.00  0.00    +0.000 C 
ATOM      2  C   UNL     1      28.502  -6.249  16.882  0.00  0.00    +0.000 C 
ATOM      3  C   UNL     1      27.648  -5.374  16.054  0.00  0.00    +0.000 C 
ATOM      4  C   UNL     1      26.147  -5.258  16.145  0.00  0.00    +0.000 C 
ATOM      5  C   UNL     1      28.685  -7.279  19.110  0.00  0.00    +0.000 C 
ATOM      6  C   UNL     1      26.468  -7.098  17.929  0.00  0.00    +0.000 C 
ATOM      7  C   UNL     1      25.295  -4.360  15.211  0.00  0.00    +0.000 C 
ATOM      8  C   UNL     1      29.638  -5.710  17.563  0.00  0.00    +0.000 C 
ATOM      9  C   UNL     1      25.627  -6.119  17.147  0.00  0.00    +0.000 C 
ATOM     10  C   UNL     1      29.728  -6.323  18.935  0.00  0.00    +0.000 C 
ATOM     11  C   UNL     1      28.216  -4.420  15.174  0.00  0.00    +0.000 C 
ATOM     12  C   UNL     1      28.196  -8.770  17.115  0.00  0.00    +0.000 C 
ATOM     13  C   UNL     1      26.163  -3.201  14.418  0.00  0.00    +0.000 C 
ATOM     14  C   UNL     1      24.303  -3.576  16.005  0.00  0.00    +0.000 C 
ATOM     15  C   UNL     1      27.448  -3.386  14.406  0.00  0.00    +0.000 C 
ATOM     16  C   UNL     1      24.611  -5.245  14.128  0.00  0.00    +0.000 C 
ATOM     17  C   UNL     1      25.682  -1.847  14.581  0.00  0.00    +0.000 C 
ATOM     18  C   UNL     1      23.956  -2.081  16.099  0.00  0.00    +0.000 C 
ATOM     19  C   UNL     1      24.686  -1.119  15.322  0.00  0.00    +0.000 C 
ENDROOT
BRANCH   5  20
ATOM     20  C   UNL     1      28.565  -8.160  20.228  0.00  0.00    +0.000 C 
ATOM     21  C   UNL     1      27.782  -7.793  21.460  0.00  0.00    +0.000 C 
BRANCH  20  22
ATOM     22  C   UNL     1      29.382  -9.319  20.338  0.00  0.00    +0.000 C 
ATOM     23  C   UNL     1      30.265 -10.571  20.460  0.00  0.00    +0.000 C 
BRANCH  23  24
ATOM     24  C   UNL     1      31.097 -11.724  20.582  0.00  0.00    +0.000 C 
ATOM     25  C   UNL     1      30.929 -12.658  21.675  0.00  0.00    +0.000 C 
ATOM     26  C   UNL     1      31.809 -13.872  21.874  0.00  0.00    +0.000 C 
ATOM     27  C   UNL     1      29.846 -12.505  22.723  0.00  0.00    +0.000 C 
BRANCH  24  28
ATOM     28  C   UNL     1      32.110 -11.960  19.614  0.00  0.00    +0.000 C 
ATOM     29  C   UNL     1      33.158 -12.252  18.534  0.00  0.00    +0.000 C 
ENDBRANCH  24  28
ENDBRANCH  23  24
ENDBRANCH  20  22
ENDBRANCH   5  20
BRANCH  19  30
ATOM     30  O   UNL     1      24.029  -0.068  14.690  0.00  0.00    +0.000 OA
BRANCH  30  32
ATOM     31  O   UNL     1      24.755   0.285  12.509  0.00  0.00    +0.000 OA
ATOM     32  C   UNL     1      24.014  -0.227  13.334  0.00  0.00    +0.000 C 
BRANCH  32  33
ATOM     33  C   UNL     1      22.987  -1.151  12.921  0.00  0.00    +0.000 C 
ATOM     34  C   UNL     1      22.132  -1.929  12.594  0.00  0.00    +0.000 C 
BRANCH  34  35
ATOM     35  C   UNL     1      21.119  -2.862  12.223  0.00  0.00    +0.000 A 
ATOM     36  C   UNL     1      21.480  -4.121  11.745  0.00  0.00    +0.000 A 
ATOM     37  C   UNL     1      19.775  -2.515  12.332  0.00  0.00    +0.000 A 
ATOM     38  C   UNL     1      20.503  -5.047  11.371  0.00  0.00    +0.000 A 
ATOM     39  C   UNL     1      18.791  -3.428  11.963  0.00  0.00    +0.000 A 
ATOM     40  C   UNL     1      19.158  -4.685  11.484  0.00  0.00    +0.000 A 
BRANCH  38  41
ATOM     41  O   UNL     1      20.772  -6.305  10.889  0.00  0.00    +0.000 OA
ATOM     42  C   UNL     1      21.626  -6.356   9.775  0.00  0.00    +0.000 C 
ENDBRANCH  38  41
BRANCH  40  43
ATOM     43  O   UNL     1      18.186  -5.577  11.121  0.00  0.00    +0.000 OA
ATOM     44  H   UNL     1      17.941  -5.410  10.192  0.00  0.00    +0.000 HD
ENDBRANCH  40  43
ENDBRANCH  34  35
ENDBRANCH  32  33
ENDBRANCH  30  32
ENDBRANCH  19  30
TORSDOF 10
ENDMDL
MODEL 3
REMARK VINA RESULT:      -8.2      6.186     13.291
REMARK  Name = 91746246_sitosterol.pdbqt.pdb
REMARK  10 active torsions:
REMARK  status: ('A' for Active; 'I' for Inactive)
REMARK    1  A    between atoms: C_5  and  C_20
REMARK    2  A    between atoms: C_19  and  O_30
REMARK    3  A    between atoms: C_20  and  C_22
REMARK    4  A    between atoms: C_23  and  C_24
REMARK    5  A    between atoms: C_24  and  C_28
REMARK    6  A    between atoms: O_30  and  C_32
REMARK    7  A    between atoms: C_32  and  C_33
REMARK    8  A    between atoms: C_34  and  C_35
REMARK    9  A    between atoms: C_38  and  O_41
REMARK   10  A    between atoms: C_40  and  O_43
REMARK                            x       y       z     vdW  Elec       q    Type
REMARK                         _______ _______ _______ _____ _____    ______ ____
ROOT
ATOM      1  C   UNL     1      22.197  -5.258  21.876  0.00  0.00    +0.000 C 
ATOM      2  C   UNL     1      22.600  -5.219  23.445  0.00  0.00    +0.000 C 
ATOM      3  C   UNL     1      23.953  -5.570  23.921  0.00  0.00    +0.000 C 
ATOM      4  C   UNL     1      25.176  -5.752  23.057  0.00  0.00    +0.000 C 
ATOM      5  C   UNL     1      21.393  -3.977  21.695  0.00  0.00    +0.000 C 
ATOM      6  C   UNL     1      23.476  -5.290  21.168  0.00  0.00    +0.000 C 
ATOM      7  C   UNL     1      26.563  -6.175  23.607  0.00  0.00    +0.000 C 
ATOM      8  C   UNL     1      21.888  -4.130  24.040  0.00  0.00    +0.000 C 
ATOM      9  C   UNL     1      24.870  -5.544  21.686  0.00  0.00    +0.000 C 
ATOM     10  C   UNL     1      21.176  -3.358  22.962  0.00  0.00    +0.000 C 
ATOM     11  C   UNL     1      24.251  -5.618  25.305  0.00  0.00    +0.000 C 
ATOM     12  C   UNL     1      21.308  -6.513  21.667  0.00  0.00    +0.000 C 
ATOM     13  C   UNL     1      26.729  -5.974  25.237  0.00  0.00    +0.000 C 
ATOM     14  C   UNL     1      27.637  -5.310  23.034  0.00  0.00    +0.000 C 
ATOM     15  C   UNL     1      25.618  -5.815  25.889  0.00  0.00    +0.000 C 
ATOM     16  C   UNL     1      26.799  -7.683  23.302  0.00  0.00    +0.000 C 
ATOM     17  C   UNL     1      27.868  -5.185  25.651  0.00  0.00    +0.000 C 
ATOM     18  C   UNL     1      28.769  -4.469  23.647  0.00  0.00    +0.000 C 
ATOM     19  C   UNL     1      28.923  -4.395  25.073  0.00  0.00    +0.000 C 
ENDROOT
BRANCH   5  20
ATOM     20  C   UNL     1      20.739  -3.603  20.483  0.00  0.00    +0.000 C 
ATOM     21  C   UNL     1      19.265  -3.818  20.263  0.00  0.00    +0.000 C 
BRANCH  20  22
ATOM     22  C   UNL     1      21.487  -3.239  19.328  0.00  0.00    +0.000 C 
ATOM     23  C   UNL     1      22.294  -2.845  18.082  0.00  0.00    +0.000 C 
BRANCH  23  24
ATOM     24  C   UNL     1      23.029  -2.478  16.914  0.00  0.00    +0.000 C 
ATOM     25  C   UNL     1      23.061  -3.334  15.748  0.00  0.00    +0.000 C 
ATOM     26  C   UNL     1      23.855  -3.014  14.501  0.00  0.00    +0.000 C 
ATOM     27  C   UNL     1      22.292  -4.637  15.669  0.00  0.00    +0.000 C 
BRANCH  24  28
ATOM     28  C   UNL     1      23.744  -1.250  16.896  0.00  0.00    +0.000 C 
ATOM     29  C   UNL     1      24.564   0.044  16.838  0.00  0.00    +0.000 C 
ENDBRANCH  24  28
ENDBRANCH  23  24
ENDBRANCH  20  22
ENDBRANCH   5  20
BRANCH  19  30
ATOM     30  O   UNL     1      30.186  -4.450  25.656  0.00  0.00    +0.000 OA
BRANCH  30  32
ATOM     31  O   UNL     1      31.391  -2.462  25.715  0.00  0.00    +0.000 OA
ATOM     32  C   UNL     1      30.559  -3.239  26.161  0.00  0.00    +0.000 C 
BRANCH  32  33
ATOM     33  C   UNL     1      29.809  -2.906  27.347  0.00  0.00    +0.000 C 
ATOM     34  C   UNL     1      29.175  -2.616  28.325  0.00  0.00    +0.000 C 
BRANCH  34  35
ATOM     35  C   UNL     1      28.414  -2.258  29.477  0.00  0.00    +0.000 A 
ATOM     36  C   UNL     1      27.608  -1.120  29.446  0.00  0.00    +0.000 A 
ATOM     37  C   UNL     1      28.480  -3.037  30.628  0.00  0.00    +0.000 A 
ATOM     38  C   UNL     1      26.858  -0.749  30.565  0.00  0.00    +0.000 A 
ATOM     39  C   UNL     1      27.739  -2.678  31.752  0.00  0.00    +0.000 A 
ATOM     40  C   UNL     1      26.935  -1.540  31.715  0.00  0.00    +0.000 A 
BRANCH  38  41
ATOM     41  O   UNL     1      26.042   0.355  30.620  0.00  0.00    +0.000 OA
ATOM     42  C   UNL     1      26.069   1.183  29.486  0.00  0.00    +0.000 C 
ENDBRANCH  38  41
BRANCH  40  43
ATOM     43  O   UNL     1      26.211  -1.192  32.822  0.00  0.00    +0.000 OA
ATOM     44  H   UNL     1      26.624  -0.409  33.233  0.00  0.00    +0.000 HD
ENDBRANCH  40  43
ENDBRANCH  34  35
ENDBRANCH  32  33
ENDBRANCH  30  32
ENDBRANCH  19  30
TORSDOF 10
ENDMDL
MODEL 4
REMARK VINA RESULT:      -8.1      3.612      6.931
REMARK  Name = 91746246_sitosterol.pdbqt.pdb
REMARK  10 active torsions:
REMARK  status: ('A' for Active; 'I' for Inactive)
REMARK    1  A    between atoms: C_5  and  C_20
REMARK    2  A    between atoms: C_19  and  O_30
REMARK    3  A    between atoms: C_20  and  C_22
REMARK    4  A    between atoms: C_23  and  C_24
REMARK    5  A    between atoms: C_24  and  C_28
REMARK    6  A    between atoms: O_30  and  C_32
REMARK    7  A    between atoms: C_32  and  C_33
REMARK    8  A    between atoms: C_34  and  C_35
REMARK    9  A    between atoms: C_38  and  O_41
REMARK   10  A    between atoms: C_40  and  O_43
REMARK                            x       y       z     vdW  Elec       q    Type
REMARK                         _______ _______ _______ _____ _____    ______ ____
ROOT
ATOM      1  C   UNL     1      27.055  -5.173  24.979  0.00  0.00    +0.000 C 
ATOM      2  C   UNL     1      27.219  -5.731  23.466  0.00  0.00    +0.000 C 
ATOM      3  C   UNL     1      26.068  -5.890  22.555  0.00  0.00    +0.000 C 
ATOM      4  C   UNL     1      24.680  -5.342  22.777  0.00  0.00    +0.000 C 
ATOM      5  C   UNL     1      28.223  -4.206  25.117  0.00  0.00    +0.000 C 
ATOM      6  C   UNL     1      25.732  -4.552  25.001  0.00  0.00    +0.000 C 
ATOM      7  C   UNL     1      23.493  -5.586  21.809  0.00  0.00    +0.000 C 
ATOM      8  C   UNL     1      28.470  -5.249  22.968  0.00  0.00    +0.000 C 
ATOM      9  C   UNL     1      24.600  -4.635  24.006  0.00  0.00    +0.000 C 
ATOM     10  C   UNL     1      29.065  -4.295  23.969  0.00  0.00    +0.000 C 
ATOM     11  C   UNL     1      26.227  -6.468  21.271  0.00  0.00    +0.000 C 
ATOM     12  C   UNL     1      27.216  -6.389  25.931  0.00  0.00    +0.000 C 
ATOM     13  C   UNL     1      23.947  -6.095  20.306  0.00  0.00    +0.000 C 
ATOM     14  C   UNL     1      22.765  -4.310  21.545  0.00  0.00    +0.000 C 
ATOM     15  C   UNL     1      25.163  -6.539  20.217  0.00  0.00    +0.000 C 
ATOM     16  C   UNL     1      22.561  -6.681  22.404  0.00  0.00    +0.000 C 
ATOM     17  C   UNL     1      23.440  -5.305  19.206  0.00  0.00    +0.000 C 
ATOM     18  C   UNL     1      22.349  -3.566  20.266  0.00  0.00    +0.000 C 
ATOM     19  C   UNL     1      22.695  -4.096  18.976  0.00  0.00    +0.000 C 
ENDROOT
BRANCH   5  20
ATOM     20  C   UNL     1      28.559  -3.517  26.322  0.00  0.00    +0.000 C 
ATOM     21  C   UNL     1      29.984  -3.275  26.740  0.00  0.00    +0.000 C 
BRANCH  20  22
ATOM     22  C   UNL     1      27.571  -3.247  27.310  0.00  0.00    +0.000 C 
ATOM     23  C   UNL     1      26.505  -2.958  28.377  0.00  0.00    +0.000 C 
BRANCH  23  24
ATOM     24  C   UNL     1      25.502  -2.700  29.361  0.00  0.00    +0.000 C 
ATOM     25  C   UNL     1      24.617  -3.749  29.821  0.00  0.00    +0.000 C 
ATOM     26  C   UNL     1      23.513  -3.521  30.830  0.00  0.00    +0.000 C 
ATOM     27  C   UNL     1      24.720  -5.179  29.333  0.00  0.00    +0.000 C 
BRANCH  24  28
ATOM     28  C   UNL     1      25.370  -1.392  29.898  0.00  0.00    +0.000 C 
ATOM     29  C   UNL     1      25.158   0.014  30.473  0.00  0.00    +0.000 C 
ENDBRANCH  24  28
ENDBRANCH  23  24
ENDBRANCH  20  22
ENDBRANCH   5  20
BRANCH  19  30
ATOM     30  O   UNL     1      21.779  -4.071  17.928  0.00  0.00    +0.000 OA
BRANCH  30  32
ATOM     31  O   UNL     1      21.093  -2.034  17.043  0.00  0.00    +0.000 OA
ATOM     32  C   UNL     1      21.903  -2.938  17.178  0.00  0.00    +0.000 C 
BRANCH  32  33
ATOM     33  C   UNL     1      23.189  -2.873  16.528  0.00  0.00    +0.000 C 
ATOM     34  C   UNL     1      24.254  -2.830  15.973  0.00  0.00    +0.000 C 
BRANCH  34  35
ATOM     35  C   UNL     1      25.511  -2.793  15.301  0.00  0.00    +0.000 A 
ATOM     36  C   UNL     1      25.592  -2.262  14.014  0.00  0.00    +0.000 A 
ATOM     37  C   UNL     1      26.651  -3.291  15.925  0.00  0.00    +0.000 A 
ATOM     38  C   UNL     1      26.814  -2.222  13.337  0.00  0.00    +0.000 A 
ATOM     39  C   UNL     1      27.875  -3.257  15.261  0.00  0.00    +0.000 A 
ATOM     40  C   UNL     1      27.950  -2.726  13.975  0.00  0.00    +0.000 A 
BRANCH  38  41
ATOM     41  O   UNL     1      26.980  -1.718  12.070  0.00  0.00    +0.000 OA
ATOM     42  C   UNL     1      26.009  -0.792  11.654  0.00  0.00    +0.000 C 
ENDBRANCH  38  41
BRANCH  40  43
ATOM     43  O   UNL     1      29.155  -2.697  13.327  0.00  0.00    +0.000 OA
ATOM     44  H   UNL     1      29.071  -2.134  12.535  0.00  0.00    +0.000 HD
ENDBRANCH  40  43
ENDBRANCH  34  35
ENDBRANCH  32  33
ENDBRANCH  30  32
ENDBRANCH  19  30
TORSDOF 10
ENDMDL
MODEL 5
REMARK VINA RESULT:      -8.0      4.816      9.076
REMARK  Name = 91746246_sitosterol.pdbqt.pdb
REMARK  10 active torsions:
REMARK  status: ('A' for Active; 'I' for Inactive)
REMARK    1  A    between atoms: C_5  and  C_20
REMARK    2  A    between atoms: C_19  and  O_30
REMARK    3  A    between atoms: C_20  and  C_22
REMARK    4  A    between atoms: C_23  and  C_24
REMARK    5  A    between atoms: C_24  and  C_28
REMARK    6  A    between atoms: O_30  and  C_32
REMARK    7  A    between atoms: C_32  and  C_33
REMARK    8  A    between atoms: C_34  and  C_35
REMARK    9  A    between atoms: C_38  and  O_41
REMARK   10  A    between atoms: C_40  and  O_43
REMARK                            x       y       z     vdW  Elec       q    Type
REMARK                         _______ _______ _______ _____ _____    ______ ____
ROOT
ATOM      1  C   UNL     1      26.689  -4.683  25.896  0.00  0.00    +0.000 C 
ATOM      2  C   UNL     1      26.526  -6.277  25.647  0.00  0.00    +0.000 C 
ATOM      3  C   UNL     1      26.608  -6.877  24.301  0.00  0.00    +0.000 C 
ATOM      4  C   UNL     1      27.093  -6.186  23.051  0.00  0.00    +0.000 C 
ATOM      5  C   UNL     1      27.583  -4.618  27.127  0.00  0.00    +0.000 C 
ATOM      6  C   UNL     1      27.294  -4.179  24.665  0.00  0.00    +0.000 C 
ATOM      7  C   UNL     1      27.106  -6.851  21.650  0.00  0.00    +0.000 C 
ATOM      8  C   UNL     1      27.109  -6.944  26.770  0.00  0.00    +0.000 C 
ATOM      9  C   UNL     1      27.470  -4.844  23.322  0.00  0.00    +0.000 C 
ATOM     10  C   UNL     1      27.778  -5.928  27.656  0.00  0.00    +0.000 C 
ATOM     11  C   UNL     1      26.369  -8.260  24.101  0.00  0.00    +0.000 C 
ATOM     12  C   UNL     1      25.273  -4.125  26.199  0.00  0.00    +0.000 C 
ATOM     13  C   UNL     1      26.987  -8.497  21.687  0.00  0.00    +0.000 C 
ATOM     14  C   UNL     1      28.413  -6.607  20.970  0.00  0.00    +0.000 C 
ATOM     15  C   UNL     1      26.571  -8.995  22.811  0.00  0.00    +0.000 C 
ATOM     16  C   UNL     1      25.903  -6.321  20.816  0.00  0.00    +0.000 C 
ATOM     17  C   UNL     1      28.031  -9.209  20.984  0.00  0.00    +0.000 C 
ATOM     18  C   UNL     1      29.457  -7.522  20.307  0.00  0.00    +0.000 C 
ATOM     19  C   UNL     1      29.264  -8.945  20.291  0.00  0.00    +0.000 C 
ENDROOT
BRANCH   5  20
ATOM     20  C   UNL     1      27.946  -3.408  27.793  0.00  0.00    +0.000 C 
ATOM     21  C   UNL     1      29.356  -2.882  27.795  0.00  0.00    +0.000 C 
BRANCH  20  22
ATOM     22  C   UNL     1      27.049  -2.771  28.696  0.00  0.00    +0.000 C 
ATOM     23  C   UNL     1      26.078  -2.083  29.668  0.00  0.00    +0.000 C 
BRANCH  23  24
ATOM     24  C   UNL     1      25.177  -1.429  30.562  0.00  0.00    +0.000 C 
ATOM     25  C   UNL     1      25.168   0.012  30.695  0.00  0.00    +0.000 C 
ATOM     26  C   UNL     1      24.264   0.753  31.656  0.00  0.00    +0.000 C 
ATOM     27  C   UNL     1      26.067   0.915  29.876  0.00  0.00    +0.000 C 
BRANCH  24  28
ATOM     28  C   UNL     1      24.274  -2.206  31.336  0.00  0.00    +0.000 C 
ATOM     29  C   UNL     1      23.346  -3.096  32.171  0.00  0.00    +0.000 C 
ENDBRANCH  24  28
ENDBRANCH  23  24
ENDBRANCH  20  22
ENDBRANCH   5  20
BRANCH  19  30
ATOM     30  O   UNL     1      29.556  -9.689  19.152  0.00  0.00    +0.000 OA
BRANCH  30  32
ATOM     31  O   UNL     1      27.703 -10.691  18.167  0.00  0.00    +0.000 OA
ATOM     32  C   UNL     1      28.484  -9.762  18.311  0.00  0.00    +0.000 C 
BRANCH  32  33
ATOM     33  C   UNL     1      28.313  -8.540  17.564  0.00  0.00    +0.000 C 
ATOM     34  C   UNL     1      28.153  -7.527  16.938  0.00  0.00    +0.000 C 
BRANCH  34  35
ATOM     35  C   UNL     1      27.945  -6.330  16.192  0.00  0.00    +0.000 A 
ATOM     36  C   UNL     1      28.060  -6.352  14.803  0.00  0.00    +0.000 A 
ATOM     37  C   UNL     1      27.635  -5.142  16.849  0.00  0.00    +0.000 A 
ATOM     38  C   UNL     1      27.865  -5.189  14.053  0.00  0.00    +0.000 A 
ATOM     39  C   UNL     1      27.439  -3.975  16.115  0.00  0.00    +0.000 A 
ATOM     40  C   UNL     1      27.556  -4.004  14.726  0.00  0.00    +0.000 A 
BRANCH  38  41
ATOM     41  O   UNL     1      27.961  -5.124  12.685  0.00  0.00    +0.000 OA
ATOM     42  C   UNL     1      29.226  -5.421  12.152  0.00  0.00    +0.000 C 
ENDBRANCH  38  41
BRANCH  40  43
ATOM     43  O   UNL     1      27.363  -2.853  14.010  0.00  0.00    +0.000 OA
ATOM     44  H   UNL     1      27.778  -2.958  13.133  0.00  0.00    +0.000 HD
ENDBRANCH  40  43
ENDBRANCH  34  35
ENDBRANCH  32  33
ENDBRANCH  30  32
ENDBRANCH  19  30
TORSDOF 10
ENDMDL
MODEL 6
REMARK VINA RESULT:      -7.8     15.830     22.212
REMARK  Name = 91746246_sitosterol.pdbqt.pdb
REMARK  10 active torsions:
REMARK  status: ('A' for Active; 'I' for Inactive)
REMARK    1  A    between atoms: C_5  and  C_20
REMARK    2  A    between atoms: C_19  and  O_30
REMARK    3  A    between atoms: C_20  and  C_22
REMARK    4  A    between atoms: C_23  and  C_24
REMARK    5  A    between atoms: C_24  and  C_28
REMARK    6  A    between atoms: O_30  and  C_32
REMARK    7  A    between atoms: C_32  and  C_33
REMARK    8  A    between atoms: C_34  and  C_35
REMARK    9  A    between atoms: C_38  and  O_41
REMARK   10  A    between atoms: C_40  and  O_43
REMARK                            x       y       z     vdW  Elec       q    Type
REMARK                         _______ _______ _______ _____ _____    ______ ____
ROOT
ATOM      1  C   UNL     1      23.142   1.085  35.708  0.00  0.00    +0.000 C 
ATOM      2  C   UNL     1      22.575   1.742  37.076  0.00  0.00    +0.000 C 
ATOM      3  C   UNL     1      22.859   3.141  37.456  0.00  0.00    +0.000 C 
ATOM      4  C   UNL     1      23.459   4.197  36.562  0.00  0.00    +0.000 C 
ATOM      5  C   UNL     1      21.943   0.311  35.175  0.00  0.00    +0.000 C 
ATOM      6  C   UNL     1      23.553   2.227  34.893  0.00  0.00    +0.000 C 
ATOM      7  C   UNL     1      23.785   5.639  37.032  0.00  0.00    +0.000 C 
ATOM      8  C   UNL     1      21.280   1.181  37.313  0.00  0.00    +0.000 C 
ATOM      9  C   UNL     1      23.735   3.677  35.270  0.00  0.00    +0.000 C 
ATOM     10  C   UNL     1      20.888   0.330  36.136  0.00  0.00    +0.000 C 
ATOM     11  C   UNL     1      22.429   3.662  38.702  0.00  0.00    +0.000 C 
ATOM     12  C   UNL     1      24.295   0.127  36.111  0.00  0.00    +0.000 C 
ATOM     13  C   UNL     1      23.023   6.079  38.428  0.00  0.00    +0.000 C 
ATOM     14  C   UNL     1      23.297   6.635  36.034  0.00  0.00    +0.000 C 
ATOM     15  C   UNL     1      22.531   5.098  39.121  0.00  0.00    +0.000 C 
ATOM     16  C   UNL     1      25.317   5.763  37.284  0.00  0.00    +0.000 C 
ATOM     17  C   UNL     1      22.252   7.300  38.354  0.00  0.00    +0.000 C 
ATOM     18  C   UNL     1      22.404   7.884  36.124  0.00  0.00    +0.000 C 
ATOM     19  C   UNL     1      21.832   8.274  37.382  0.00  0.00    +0.000 C 
ENDROOT
BRANCH   5  20
ATOM     20  C   UNL     1      21.973  -0.519  34.014  0.00  0.00    +0.000 C 
ATOM     21  C   UNL     1      20.906  -1.541  33.728  0.00  0.00    +0.000 C 
BRANCH  20  22
ATOM     22  C   UNL     1      23.138  -0.598  33.202  0.00  0.00    +0.000 C 
ATOM     23  C   UNL     1      24.395  -0.685  32.322  0.00  0.00    +0.000 C 
BRANCH  23  24
ATOM     24  C   UNL     1      25.558  -0.782  31.499  0.00  0.00    +0.000 C 
ATOM     25  C   UNL     1      26.481  -1.889  31.635  0.00  0.00    +0.000 C 
ATOM     26  C   UNL     1      27.749  -2.019  30.819  0.00  0.00    +0.000 C 
ATOM     27  C   UNL     1      26.258  -3.026  32.611  0.00  0.00    +0.000 C 
BRANCH  24  28
ATOM     28  C   UNL     1      25.816   0.225  30.531  0.00  0.00    +0.000 C 
ATOM     29  C   UNL     1      26.160   1.314  29.508  0.00  0.00    +0.000 C 
ENDBRANCH  24  28
ENDBRANCH  23  24
ENDBRANCH  20  22
ENDBRANCH   5  20
BRANCH  19  30
ATOM     30  O   UNL     1      21.794   9.613  37.762  0.00  0.00    +0.000 OA
BRANCH  30  32
ATOM     31  O   UNL     1      19.545  10.196  37.878  0.00  0.00    +0.000 OA
ATOM     32  C   UNL     1      20.645  10.221  37.345  0.00  0.00    +0.000 C 
BRANCH  32  33
ATOM     33  C   UNL     1      20.857  10.984  36.140  0.00  0.00    +0.000 C 
ATOM     34  C   UNL     1      21.052  11.613  35.135  0.00  0.00    +0.000 C 
BRANCH  34  35
ATOM     35  C   UNL     1      21.300  12.351  33.940  0.00  0.00    +0.000 A 
ATOM     36  C   UNL     1      20.722  13.608  33.771  0.00  0.00    +0.000 A 
ATOM     37  C   UNL     1      22.111  11.814  32.944  0.00  0.00    +0.000 A 
ATOM     38  C   UNL     1      20.949  14.345  32.606  0.00  0.00    +0.000 A 
ATOM     39  C   UNL     1      22.345  12.537  31.777  0.00  0.00    +0.000 A 
ATOM     40  C   UNL     1      21.764  13.794  31.614  0.00  0.00    +0.000 A 
BRANCH  38  41
ATOM     41  O   UNL     1      20.418  15.587  32.360  0.00  0.00    +0.000 OA
ATOM     42  C   UNL     1      19.058  15.605  32.008  0.00  0.00    +0.000 C 
ENDBRANCH  38  41
BRANCH  40  43
ATOM     43  O   UNL     1      21.996  14.499  30.464  0.00  0.00    +0.000 OA
ATOM     44  H   UNL     1      22.242  13.872  29.758  0.00  0.00    +0.000 HD
ENDBRANCH  40  43
ENDBRANCH  34  35
ENDBRANCH  32  33
ENDBRANCH  30  32
ENDBRANCH  19  30
TORSDOF 10
ENDMDL
MODEL 7
REMARK VINA RESULT:      -7.6     19.399     23.937
REMARK  Name = 91746246_sitosterol.pdbqt.pdb
REMARK  10 active torsions:
REMARK  status: ('A' for Active; 'I' for Inactive)
REMARK    1  A    between atoms: C_5  and  C_20
REMARK    2  A    between atoms: C_19  and  O_30
REMARK    3  A    between atoms: C_20  and  C_22
REMARK    4  A    between atoms: C_23  and  C_24
REMARK    5  A    between atoms: C_24  and  C_28
REMARK    6  A    between atoms: O_30  and  C_32
REMARK    7  A    between atoms: C_32  and  C_33
REMARK    8  A    between atoms: C_34  and  C_35
REMARK    9  A    between atoms: C_38  and  O_41
REMARK   10  A    between atoms: C_40  and  O_43
REMARK                            x       y       z     vdW  Elec       q    Type
REMARK                         _______ _______ _______ _____ _____    ______ ____
ROOT
ATOM      1  C   UNL     1      45.324  -5.470  10.895  0.00  0.00    +0.000 C 
ATOM      2  C   UNL     1      44.475  -6.305   9.795  0.00  0.00    +0.000 C 
ATOM      3  C   UNL     1      45.082  -7.371   8.973  0.00  0.00    +0.000 C 
ATOM      4  C   UNL     1      46.435  -7.999   9.196  0.00  0.00    +0.000 C 
ATOM      5  C   UNL     1      44.374  -5.405  12.084  0.00  0.00    +0.000 C 
ATOM      6  C   UNL     1      46.530  -6.267  11.111  0.00  0.00    +0.000 C 
ATOM      7  C   UNL     1      47.046  -9.080   8.266  0.00  0.00    +0.000 C 
ATOM      8  C   UNL     1      43.149  -6.459  10.309  0.00  0.00    +0.000 C 
ATOM      9  C   UNL     1      47.085  -7.428  10.322  0.00  0.00    +0.000 C 
ATOM     10  C   UNL     1      43.101  -5.933  11.718  0.00  0.00    +0.000 C 
ATOM     11  C   UNL     1      44.341  -8.019   7.954  0.00  0.00    +0.000 C 
ATOM     12  C   UNL     1      45.575  -4.060  10.298  0.00  0.00    +0.000 C 
ATOM     13  C   UNL     1      45.945  -9.822   7.286  0.00  0.00    +0.000 C 
ATOM     14  C   UNL     1      47.612 -10.201   9.073  0.00  0.00    +0.000 C 
ATOM     15  C   UNL     1      44.808  -9.207   7.168  0.00  0.00    +0.000 C 
ATOM     16  C   UNL     1      48.114  -8.422   7.345  0.00  0.00    +0.000 C 
ATOM     17  C   UNL     1      45.921 -11.266   7.364  0.00  0.00    +0.000 C 
ATOM     18  C   UNL     1      47.425 -11.727   9.056  0.00  0.00    +0.000 C 
ATOM     19  C   UNL     1      46.516 -12.333   8.123  0.00  0.00    +0.000 C 
ENDROOT
BRANCH   5  20
ATOM     20  C   UNL     1      44.642  -4.685  13.288  0.00  0.00    +0.000 C 
ATOM     21  C   UNL     1      45.243  -5.342  14.501  0.00  0.00    +0.000 C 
BRANCH  20  22
ATOM     22  C   UNL     1      44.127  -3.374  13.488  0.00  0.00    +0.000 C 
ATOM     23  C   UNL     1      43.570  -1.959  13.707  0.00  0.00    +0.000 C 
BRANCH  23  24
ATOM     24  C   UNL     1      43.040  -0.651  13.921  0.00  0.00    +0.000 C 
ATOM     25  C   UNL     1      43.850   0.530  13.710  0.00  0.00    +0.000 C 
ATOM     26  C   UNL     1      43.352   1.936  13.961  0.00  0.00    +0.000 C 
ATOM     27  C   UNL     1      45.279   0.463  13.213  0.00  0.00    +0.000 C 
BRANCH  24  28
ATOM     28  C   UNL     1      41.693  -0.504  14.349  0.00  0.00    +0.000 C 
ATOM     29  C   UNL     1      40.234  -0.289  14.769  0.00  0.00    +0.000 C 
ENDBRANCH  24  28
ENDBRANCH  23  24
ENDBRANCH  20  22
ENDBRANCH   5  20
BRANCH  19  30
ATOM     30  O   UNL     1      46.857 -13.508   7.459  0.00  0.00    +0.000 OA
BRANCH  30  32
ATOM     31  O   UNL     1      45.314 -15.221   7.158  0.00  0.00    +0.000 OA
ATOM     32  C   UNL     1      46.069 -14.552   7.848  0.00  0.00    +0.000 C 
BRANCH  32  33
ATOM     33  C   UNL     1      46.238 -14.848   9.249  0.00  0.00    +0.000 C 
ATOM     34  C   UNL     1      46.392 -15.107  10.412  0.00  0.00    +0.000 C 
BRANCH  34  35
ATOM     35  C   UNL     1      46.590 -15.425  11.788  0.00  0.00    +0.000 A 
ATOM     36  C   UNL     1      47.335 -14.568  12.596  0.00  0.00    +0.000 A 
ATOM     37  C   UNL     1      46.047 -16.592  12.320  0.00  0.00    +0.000 A 
ATOM     38  C   UNL     1      47.545 -14.865  13.945  0.00  0.00    +0.000 A 
ATOM     39  C   UNL     1      46.249 -16.900  13.663  0.00  0.00    +0.000 A 
ATOM     40  C   UNL     1      46.995 -16.039  14.466  0.00  0.00    +0.000 A 
BRANCH  38  41
ATOM     41  O   UNL     1      48.266 -14.076  14.809  0.00  0.00    +0.000 OA
ATOM     42  C   UNL     1      48.610 -12.805  14.323  0.00  0.00    +0.000 C 
ENDBRANCH  38  41
BRANCH  40  43
ATOM     43  O   UNL     1      47.191 -16.349  15.784  0.00  0.00    +0.000 OA
ATOM     44  H   UNL     1      46.335 -16.602  16.176  0.00  0.00    +0.000 HD
ENDBRANCH  40  43
ENDBRANCH  34  35
ENDBRANCH  32  33
ENDBRANCH  30  32
ENDBRANCH  19  30
TORSDOF 10
ENDMDL
MODEL 8
REMARK VINA RESULT:      -7.6     12.813     16.189
REMARK  Name = 91746246_sitosterol.pdbqt.pdb
REMARK  10 active torsions:
REMARK  status: ('A' for Active; 'I' for Inactive)
REMARK    1  A    between atoms: C_5  and  C_20
REMARK    2  A    between atoms: C_19  and  O_30
REMARK    3  A    between atoms: C_20  and  C_22
REMARK    4  A    between atoms: C_23  and  C_24
REMARK    5  A    between atoms: C_24  and  C_28
REMARK    6  A    between atoms: O_30  and  C_32
REMARK    7  A    between atoms: C_32  and  C_33
REMARK    8  A    between atoms: C_34  and  C_35
REMARK    9  A    between atoms: C_38  and  O_41
REMARK   10  A    between atoms: C_40  and  O_43
REMARK                            x       y       z     vdW  Elec       q    Type
REMARK                         _______ _______ _______ _____ _____    ______ ____
ROOT
ATOM      1  C   UNL     1      17.745  -0.903  22.803  0.00  0.00    +0.000 C 
ATOM      2  C   UNL     1      18.174   0.519  23.451  0.00  0.00    +0.000 C 
ATOM      3  C   UNL     1      17.351   1.200  24.471  0.00  0.00    +0.000 C 
ATOM      4  C   UNL     1      16.192   0.596  25.223  0.00  0.00    +0.000 C 
ATOM      5  C   UNL     1      19.055  -1.682  22.786  0.00  0.00    +0.000 C 
ATOM      6  C   UNL     1      16.725  -1.429  23.709  0.00  0.00    +0.000 C 
ATOM      7  C   UNL     1      15.328   1.378  26.247  0.00  0.00    +0.000 C 
ATOM      8  C   UNL     1      19.600   0.527  23.555  0.00  0.00    +0.000 C 
ATOM      9  C   UNL     1      15.968  -0.748  24.823  0.00  0.00    +0.000 C 
ATOM     10  C   UNL     1      20.130  -0.829  23.174  0.00  0.00    +0.000 C 
ATOM     11  C   UNL     1      17.702   2.486  24.952  0.00  0.00    +0.000 C 
ATOM     12  C   UNL     1      17.246  -0.612  21.362  0.00  0.00    +0.000 C 
ATOM     13  C   UNL     1      16.031   2.766  26.797  0.00  0.00    +0.000 C 
ATOM     14  C   UNL     1      15.129   0.569  27.485  0.00  0.00    +0.000 C 
ATOM     15  C   UNL     1      17.028   3.199  26.086  0.00  0.00    +0.000 C 
ATOM     16  C   UNL     1      13.978   1.776  25.582  0.00  0.00    +0.000 C 
ATOM     17  C   UNL     1      16.133   2.881  28.234  0.00  0.00    +0.000 C 
ATOM     18  C   UNL     1      15.352   0.839  28.982  0.00  0.00    +0.000 C 
ATOM     19  C   UNL     1      15.888   2.098  29.417  0.00  0.00    +0.000 C 
ENDROOT
BRANCH   5  20
ATOM     20  C   UNL     1      19.209  -2.982  22.217  0.00  0.00    +0.000 C 
ATOM     21  C   UNL     1      18.456  -4.180  22.731  0.00  0.00    +0.000 C 
BRANCH  20  22
ATOM     22  C   UNL     1      20.264  -3.262  21.304  0.00  0.00    +0.000 C 
ATOM     23  C   UNL     1      21.402  -3.562  20.316  0.00  0.00    +0.000 C 
BRANCH  23  24
ATOM     24  C   UNL     1      22.447  -3.843  19.386  0.00  0.00    +0.000 C 
ATOM     25  C   UNL     1      23.179  -5.092  19.436  0.00  0.00    +0.000 C 
ATOM     26  C   UNL     1      24.322  -5.424  18.501  0.00  0.00    +0.000 C 
ATOM     27  C   UNL     1      22.861  -6.187  20.433  0.00  0.00    +0.000 C 
BRANCH  24  28
ATOM     28  C   UNL     1      22.778  -2.882  18.394  0.00  0.00    +0.000 C 
ATOM     29  C   UNL     1      23.191  -1.882  17.307  0.00  0.00    +0.000 C 
ENDBRANCH  24  28
ENDBRANCH  23  24
ENDBRANCH  20  22
ENDBRANCH   5  20
BRANCH  19  30
ATOM     30  O   UNL     1      15.375   2.740  30.540  0.00  0.00    +0.000 OA
BRANCH  30  32
ATOM     31  O   UNL     1      13.076   2.438  30.352  0.00  0.00    +0.000 OA
ATOM     32  C   UNL     1      14.082   3.133  30.347  0.00  0.00    +0.000 C 
BRANCH  32  33
ATOM     33  C   UNL     1      13.986   4.559  30.152  0.00  0.00    +0.000 C 
ATOM     34  C   UNL     1      13.922   5.749  29.999  0.00  0.00    +0.000 C 
BRANCH  34  35
ATOM     35  C   UNL     1      13.863   7.163  29.827  0.00  0.00    +0.000 A 
ATOM     36  C   UNL     1      14.050   7.714  28.560  0.00  0.00    +0.000 A 
ATOM     37  C   UNL     1      13.626   7.990  30.921  0.00  0.00    +0.000 A 
ATOM     38  C   UNL     1      14.002   9.098  28.371  0.00  0.00    +0.000 A 
ATOM     39  C   UNL     1      13.576   9.371  30.748  0.00  0.00    +0.000 A 
ATOM     40  C   UNL     1      13.764   9.917  29.479  0.00  0.00    +0.000 A 
BRANCH  38  41
ATOM     41  O   UNL     1      14.177   9.721  27.160  0.00  0.00    +0.000 OA
ATOM     42  C   UNL     1      14.444   8.870  26.075  0.00  0.00    +0.000 C 
ENDBRANCH  38  41
BRANCH  40  43
ATOM     43  O   UNL     1      13.715  11.274  29.315  0.00  0.00    +0.000 OA
ATOM     44  H   UNL     1      14.398  11.682  29.881  0.00  0.00    +0.000 HD
ENDBRANCH  40  43
ENDBRANCH  34  35
ENDBRANCH  32  33
ENDBRANCH  30  32
ENDBRANCH  19  30
TORSDOF 10
ENDMDL
MODEL 9
REMARK VINA RESULT:      -7.4     19.212     22.851
REMARK  Name = 91746246_sitosterol.pdbqt.pdb
REMARK  10 active torsions:
REMARK  status: ('A' for Active; 'I' for Inactive)
REMARK    1  A    between atoms: C_5  and  C_20
REMARK    2  A    between atoms: C_19  and  O_30
REMARK    3  A    between atoms: C_20  and  C_22
REMARK    4  A    between atoms: C_23  and  C_24
REMARK    5  A    between atoms: C_24  and  C_28
REMARK    6  A    between atoms: O_30  and  C_32
REMARK    7  A    between atoms: C_32  and  C_33
REMARK    8  A    between atoms: C_34  and  C_35
REMARK    9  A    between atoms: C_38  and  O_41
REMARK   10  A    between atoms: C_40  and  O_43
REMARK                            x       y       z     vdW  Elec       q    Type
REMARK                         _______ _______ _______ _____ _____    ______ ____
ROOT
ATOM      1  C   UNL     1      45.830  -5.395  10.618  0.00  0.00    +0.000 C 
ATOM      2  C   UNL     1      45.070  -6.013   9.327  0.00  0.00    +0.000 C 
ATOM      3  C   UNL     1      45.627  -7.137   8.547  0.00  0.00    +0.000 C 
ATOM      4  C   UNL     1      46.784  -8.013   8.959  0.00  0.00    +0.000 C 
ATOM      5  C   UNL     1      44.700  -5.205  11.623  0.00  0.00    +0.000 C 
ATOM      6  C   UNL     1      46.818  -6.409  10.984  0.00  0.00    +0.000 C 
ATOM      7  C   UNL     1      47.361  -9.148   8.074  0.00  0.00    +0.000 C 
ATOM      8  C   UNL     1      43.665  -5.942   9.585  0.00  0.00    +0.000 C 
ATOM      9  C   UNL     1      47.300  -7.618  10.222  0.00  0.00    +0.000 C 
ATOM     10  C   UNL     1      43.446  -5.475  10.999  0.00  0.00    +0.000 C 
ATOM     11  C   UNL     1      44.989  -7.595   7.368  0.00  0.00    +0.000 C 
ATOM     12  C   UNL     1      46.429  -4.031  10.183  0.00  0.00    +0.000 C 
ATOM     13  C   UNL     1      46.352  -9.633   6.861  0.00  0.00    +0.000 C 
ATOM     14  C   UNL     1      47.564 -10.386   8.881  0.00  0.00    +0.000 C 
ATOM     15  C   UNL     1      45.381  -8.815   6.590  0.00  0.00    +0.000 C 
ATOM     16  C   UNL     1      48.681  -8.659   7.407  0.00  0.00    +0.000 C 
ATOM     17  C   UNL     1      46.064 -11.050   6.825  0.00  0.00    +0.000 C 
ATOM     18  C   UNL     1      47.122 -11.850   8.718  0.00  0.00    +0.000 C 
ATOM     19  C   UNL     1      46.313 -12.239   7.596  0.00  0.00    +0.000 C 
ENDROOT
BRANCH   5  20
ATOM     20  C   UNL     1      44.859  -4.598  12.905  0.00  0.00    +0.000 C 
ATOM     21  C   UNL     1      45.355  -5.364  14.102  0.00  0.00    +0.000 C 
BRANCH  20  22
ATOM     22  C   UNL     1      44.321  -3.309  13.177  0.00  0.00    +0.000 C 
ATOM     23  C   UNL     1      43.742  -1.917  13.474  0.00  0.00    +0.000 C 
BRANCH  23  24
ATOM     24  C   UNL     1      43.196  -0.631  13.763  0.00  0.00    +0.000 C 
ATOM     25  C   UNL     1      43.998   0.568  13.645  0.00  0.00    +0.000 C 
ATOM     26  C   UNL     1      43.482   1.951  13.978  0.00  0.00    +0.000 C 
ATOM     27  C   UNL     1      45.436   0.547  13.169  0.00  0.00    +0.000 C 
BRANCH  24  28
ATOM     28  C   UNL     1      41.841  -0.524  14.176  0.00  0.00    +0.000 C 
ATOM     29  C   UNL     1      40.397  -0.357  14.665  0.00  0.00    +0.000 C 
ENDBRANCH  24  28
ENDBRANCH  23  24
ENDBRANCH  20  22
ENDBRANCH   5  20
BRANCH  19  30
ATOM     30  O   UNL     1      46.563 -13.428   6.917  0.00  0.00    +0.000 OA
BRANCH  30  32
ATOM     31  O   UNL     1      45.105 -15.226   7.135  0.00  0.00    +0.000 OA
ATOM     32  C   UNL     1      45.415 -14.130   6.692  0.00  0.00    +0.000 C 
BRANCH  32  33
ATOM     33  C   UNL     1      44.507 -13.400   5.842  0.00  0.00    +0.000 C 
ATOM     34  C   UNL     1      43.752 -12.805   5.121  0.00  0.00    +0.000 C 
BRANCH  34  35
ATOM     35  C   UNL     1      42.858 -12.113   4.252  0.00  0.00    +0.000 A 
ATOM     36  C   UNL     1      43.160 -12.001   2.896  0.00  0.00    +0.000 A 
ATOM     37  C   UNL     1      41.691 -11.545   4.758  0.00  0.00    +0.000 A 
ATOM     38  C   UNL     1      42.300 -11.322   2.028  0.00  0.00    +0.000 A 
ATOM     39  C   UNL     1      40.825 -10.865   3.905  0.00  0.00    +0.000 A 
ATOM     40  C   UNL     1      41.133 -10.757   2.550  0.00  0.00    +0.000 A 
BRANCH  38  41
ATOM     41  O   UNL     1      42.523 -11.165   0.682  0.00  0.00    +0.000 OA
ATOM     42  C   UNL     1      43.583 -10.309   0.341  0.00  0.00    +0.000 C 
ENDBRANCH  38  41
BRANCH  40  43
ATOM     43  O   UNL     1      40.279 -10.086   1.717  0.00  0.00    +0.000 OA
ATOM     44  H   UNL     1      40.695  -9.243   1.457  0.00  0.00    +0.000 HD
ENDBRANCH  40  43
ENDBRANCH  34  35
ENDBRANCH  32  33
ENDBRANCH  30  32
ENDBRANCH  19  30
TORSDOF 10
ENDMDL
