MODEL 1
REMARK VINA RESULT:      -4.4      0.000      0.000
REMARK  Name = 92041_2Ethoxy5fluorouracil.pdbqt.pdb
REMARK  2 active torsions:
REMARK  status: ('A' for Active; 'I' for Inactive)
REMARK    1  A    between atoms: C_5  and  O_10
REMARK    2  A    between atoms: O_10  and  C_11
REMARK                            x       y       z     vdW  Elec       q    Type
REMARK                         _______ _______ _______ _____ _____    ______ ____
ROOT
ATOM      1  F   UNL     1      44.065  -6.117  14.927  0.00  0.00    +0.000 F 
ATOM      2  O   UNL     1      41.718  -5.178  13.607  0.00  0.00    +0.000 OA
ATOM      3  N   UNL     1      42.536  -3.040  13.809  0.00  0.00    +0.000 N 
ATOM      4  N   UNL     1      44.680  -2.550  14.678  0.00  0.00    +0.000 NA
ATOM      5  C   UNL     1      43.530  -2.153  14.212  0.00  0.00    +0.000 C 
ATOM      6  C   UNL     1      42.646  -4.431  13.887  0.00  0.00    +0.000 C 
ATOM      7  C   UNL     1      43.986  -4.901  14.362  0.00  0.00    +0.000 C 
ATOM      8  C   UNL     1      44.720  -3.889  14.686  0.00  0.00    +0.000 C 
ATOM      9  H   UNL     1      41.649  -2.679  13.492  0.00  0.00    +0.000 HD
ENDROOT
BRANCH   5  10
ATOM     10  O   UNL     1      43.162  -0.859  14.065  0.00  0.00    +0.000 OA
BRANCH  10  11
ATOM     11  C   UNL     1      41.900  -0.571  14.370  0.00  0.00    +0.000 C 
ATOM     12  C   UNL     1      40.467  -0.213  14.774  0.00  0.00    +0.000 C 
ENDBRANCH  10  11
ENDBRANCH   5  10
TORSDOF 2
ENDMDL
MODEL 2
REMARK VINA RESULT:      -4.1      5.166      6.771
REMARK  Name = 92041_2Ethoxy5fluorouracil.pdbqt.pdb
REMARK  2 active torsions:
REMARK  status: ('A' for Active; 'I' for Inactive)
REMARK    1  A    between atoms: C_5  and  O_10
REMARK    2  A    between atoms: O_10  and  C_11
REMARK                            x       y       z     vdW  Elec       q    Type
REMARK                         _______ _______ _______ _____ _____    ______ ____
ROOT
ATOM      1  F   UNL     1      44.651  -4.596  12.773  0.00  0.00    +0.000 F 
ATOM      2  O   UNL     1      42.031  -5.204  11.826  0.00  0.00    +0.000 OA
ATOM      3  N   UNL     1      42.989  -6.552  10.231  0.00  0.00    +0.000 N 
ATOM      4  N   UNL     1      45.310  -6.995  10.133  0.00  0.00    +0.000 NA
ATOM      5  C   UNL     1      44.111  -7.123   9.638  0.00  0.00    +0.000 C 
ATOM      6  C   UNL     1      43.025  -5.764  11.383  0.00  0.00    +0.000 C 
ATOM      7  C   UNL     1      44.386  -5.659  11.996  0.00  0.00    +0.000 C 
ATOM      8  C   UNL     1      45.254  -6.260  11.251  0.00  0.00    +0.000 C 
ATOM      9  H   UNL     1      42.089  -6.650   9.784  0.00  0.00    +0.000 HD
ENDROOT
BRANCH   5  10
ATOM     10  O   UNL     1      43.811  -7.811   8.511  0.00  0.00    +0.000 OA
BRANCH  10  11
ATOM     11  C   UNL     1      44.827  -8.064   7.692  0.00  0.00    +0.000 C 
ATOM     12  C   UNL     1      46.026  -8.305   6.769  0.00  0.00    +0.000 C 
ENDBRANCH  10  11
ENDBRANCH   5  10
TORSDOF 2
ENDMDL
MODEL 3
REMARK VINA RESULT:      -3.4      4.887      6.149
REMARK  Name = 92041_2Ethoxy5fluorouracil.pdbqt.pdb
REMARK  2 active torsions:
REMARK  status: ('A' for Active; 'I' for Inactive)
REMARK    1  A    between atoms: C_5  and  O_10
REMARK    2  A    between atoms: O_10  and  C_11
REMARK                            x       y       z     vdW  Elec       q    Type
REMARK                         _______ _______ _______ _____ _____    ______ ____
ROOT
ATOM      1  F   UNL     1      48.253   1.737  14.415  0.00  0.00    +0.000 F 
ATOM      2  O   UNL     1      46.845   4.076  13.592  0.00  0.00    +0.000 OA
ATOM      3  N   UNL     1      44.897   2.861  13.689  0.00  0.00    +0.000 N 
ATOM      4  N   UNL     1      44.798   0.633  14.475  0.00  0.00    +0.000 NA
ATOM      5  C   UNL     1      44.216   1.675  13.953  0.00  0.00    +0.000 C 
ATOM      6  C   UNL     1      46.261   3.052  13.919  0.00  0.00    +0.000 C 
ATOM      7  C   UNL     1      46.927   1.883  14.577  0.00  0.00    +0.000 C 
ATOM      8  C   UNL     1      46.089   0.908  14.699  0.00  0.00    +0.000 C 
ATOM      9  H   UNL     1      44.407   3.625  13.247  0.00  0.00    +0.000 HD
ENDROOT
BRANCH   5  10
ATOM     10  O   UNL     1      42.909   1.738  13.607  0.00  0.00    +0.000 OA
BRANCH  10  11
ATOM     11  C   UNL     1      42.081   0.969  14.307  0.00  0.00    +0.000 C 
ATOM     12  C   UNL     1      41.079   0.118  15.093  0.00  0.00    +0.000 C 
ENDBRANCH  10  11
ENDBRANCH   5  10
TORSDOF 2
ENDMDL
MODEL 4
REMARK VINA RESULT:      -3.3     23.213     24.272
REMARK  Name = 92041_2Ethoxy5fluorouracil.pdbqt.pdb
REMARK  2 active torsions:
REMARK  status: ('A' for Active; 'I' for Inactive)
REMARK    1  A    between atoms: C_5  and  O_10
REMARK    2  A    between atoms: O_10  and  C_11
REMARK                            x       y       z     vdW  Elec       q    Type
REMARK                         _______ _______ _______ _____ _____    ______ ____
ROOT
ATOM      1  F   UNL     1      39.027  12.875  34.594  0.00  0.00    +0.000 F 
ATOM      2  O   UNL     1      38.706  12.931  31.760  0.00  0.00    +0.000 OA
ATOM      3  N   UNL     1      37.413  11.039  31.933  0.00  0.00    +0.000 N 
ATOM      4  N   UNL     1      36.795  10.076  34.003  0.00  0.00    +0.000 NA
ATOM      5  C   UNL     1      36.802  10.051  32.700  0.00  0.00    +0.000 C 
ATOM      6  C   UNL     1      38.104  12.130  32.464  0.00  0.00    +0.000 C 
ATOM      7  C   UNL     1      38.051  12.205  33.958  0.00  0.00    +0.000 C 
ATOM      8  C   UNL     1      37.443  11.168  34.431  0.00  0.00    +0.000 C 
ATOM      9  H   UNL     1      37.422  10.950  30.928  0.00  0.00    +0.000 HD
ENDROOT
BRANCH   5  10
ATOM     10  O   UNL     1      36.230   9.085  31.944  0.00  0.00    +0.000 OA
BRANCH  10  11
ATOM     11  C   UNL     1      35.689   8.067  32.606  0.00  0.00    +0.000 C 
ATOM     12  C   UNL     1      35.097   6.855  33.331  0.00  0.00    +0.000 C 
ENDBRANCH  10  11
ENDBRANCH   5  10
TORSDOF 2
ENDMDL
MODEL 5
REMARK VINA RESULT:      -3.3     41.207     42.213
REMARK  Name = 92041_2Ethoxy5fluorouracil.pdbqt.pdb
REMARK  2 active torsions:
REMARK  status: ('A' for Active; 'I' for Inactive)
REMARK    1  A    between atoms: C_5  and  O_10
REMARK    2  A    between atoms: O_10  and  C_11
REMARK                            x       y       z     vdW  Elec       q    Type
REMARK                         _______ _______ _______ _____ _____    ______ ____
ROOT
ATOM      1  F   UNL     1      12.946  28.200  24.381  0.00  0.00    +0.000 F 
ATOM      2  O   UNL     1      12.577  25.372  24.339  0.00  0.00    +0.000 OA
ATOM      3  N   UNL     1      13.781  25.307  22.383  0.00  0.00    +0.000 N 
ATOM      4  N   UNL     1      14.833  27.207  21.446  0.00  0.00    +0.000 NA
ATOM      5  C   UNL     1      14.512  25.946  21.384  0.00  0.00    +0.000 C 
ATOM      6  C   UNL     1      13.291  25.943  23.526  0.00  0.00    +0.000 C 
ATOM      7  C   UNL     1      13.707  27.377  23.640  0.00  0.00    +0.000 C 
ATOM      8  C   UNL     1      14.361  27.733  22.584  0.00  0.00    +0.000 C 
ATOM      9  H   UNL     1      13.525  24.338  22.266  0.00  0.00    +0.000 HD
ENDROOT
BRANCH   5  10
ATOM     10  O   UNL     1      14.837  25.115  20.367  0.00  0.00    +0.000 OA
BRANCH  10  11
ATOM     11  C   UNL     1      13.823  24.640  19.651  0.00  0.00    +0.000 C 
ATOM     12  C   UNL     1      12.628  24.151  18.826  0.00  0.00    +0.000 C 
ENDBRANCH  10  11
ENDBRANCH   5  10
TORSDOF 2
ENDMDL
MODEL 6
REMARK VINA RESULT:      -3.3      9.097      9.483
REMARK  Name = 92041_2Ethoxy5fluorouracil.pdbqt.pdb
REMARK  2 active torsions:
REMARK  status: ('A' for Active; 'I' for Inactive)
REMARK    1  A    between atoms: C_5  and  O_10
REMARK    2  A    between atoms: O_10  and  C_11
REMARK                            x       y       z     vdW  Elec       q    Type
REMARK                         _______ _______ _______ _____ _____    ______ ____
ROOT
ATOM      1  F   UNL     1      47.143  -1.248  21.662  0.00  0.00    +0.000 F 
ATOM      2  O   UNL     1      46.673  -3.545  23.286  0.00  0.00    +0.000 OA
ATOM      3  N   UNL     1      44.441  -2.996  23.305  0.00  0.00    +0.000 N 
ATOM      4  N   UNL     1      43.537  -1.208  22.050  0.00  0.00    +0.000 NA
ATOM      5  C   UNL     1      43.389  -2.174  22.912  0.00  0.00    +0.000 C 
ATOM      6  C   UNL     1      45.756  -2.861  22.852  0.00  0.00    +0.000 C 
ATOM      7  C   UNL     1      45.926  -1.795  21.814  0.00  0.00    +0.000 C 
ATOM      8  C   UNL     1      44.810  -1.168  21.638  0.00  0.00    +0.000 C 
ATOM      9  H   UNL     1      44.281  -3.704  24.006  0.00  0.00    +0.000 HD
ENDROOT
BRANCH   5  10
ATOM     10  O   UNL     1      42.224  -2.493  23.523  0.00  0.00    +0.000 OA
BRANCH  10  11
ATOM     11  C   UNL     1      42.178  -2.291  24.836  0.00  0.00    +0.000 C 
ATOM     12  C   UNL     1      42.161  -2.010  26.342  0.00  0.00    +0.000 C 
ENDBRANCH  10  11
ENDBRANCH   5  10
TORSDOF 2
ENDMDL
MODEL 7
REMARK VINA RESULT:      -3.3      3.978      5.246
REMARK  Name = 92041_2Ethoxy5fluorouracil.pdbqt.pdb
REMARK  2 active torsions:
REMARK  status: ('A' for Active; 'I' for Inactive)
REMARK    1  A    between atoms: C_5  and  O_10
REMARK    2  A    between atoms: O_10  and  C_11
REMARK                            x       y       z     vdW  Elec       q    Type
REMARK                         _______ _______ _______ _____ _____    ______ ____
ROOT
ATOM      1  F   UNL     1      47.558  -3.865  13.314  0.00  0.00    +0.000 F 
ATOM      2  O   UNL     1      44.803  -4.049  14.026  0.00  0.00    +0.000 OA
ATOM      3  N   UNL     1      44.538  -5.596  12.347  0.00  0.00    +0.000 N 
ATOM      4  N   UNL     1      46.337  -6.431  11.059  0.00  0.00    +0.000 NA
ATOM      5  C   UNL     1      45.061  -6.370  11.315  0.00  0.00    +0.000 C 
ATOM      6  C   UNL     1      45.305  -4.785  13.187  0.00  0.00    +0.000 C 
ATOM      7  C   UNL     1      46.779  -4.894  12.944  0.00  0.00    +0.000 C 
ATOM      8  C   UNL     1      47.003  -5.659  11.928  0.00  0.00    +0.000 C 
ATOM      9  H   UNL     1      43.538  -5.554  12.477  0.00  0.00    +0.000 HD
ENDROOT
BRANCH   5  10
ATOM     10  O   UNL     1      44.103  -7.035  10.628  0.00  0.00    +0.000 OA
BRANCH  10  11
ATOM     11  C   UNL     1      42.934  -7.180  11.245  0.00  0.00    +0.000 C 
ATOM     12  C   UNL     1      41.599  -7.409  11.959  0.00  0.00    +0.000 C 
ENDBRANCH  10  11
ENDBRANCH   5  10
TORSDOF 2
ENDMDL
MODEL 8
REMARK VINA RESULT:      -3.2      9.616     10.009
REMARK  Name = 92041_2Ethoxy5fluorouracil.pdbqt.pdb
REMARK  2 active torsions:
REMARK  status: ('A' for Active; 'I' for Inactive)
REMARK    1  A    between atoms: C_5  and  O_10
REMARK    2  A    between atoms: O_10  and  C_11
REMARK                            x       y       z     vdW  Elec       q    Type
REMARK                         _______ _______ _______ _____ _____    ______ ____
ROOT
ATOM      1  F   UNL     1      47.752  -2.236  25.332  0.00  0.00    +0.000 F 
ATOM      2  O   UNL     1      47.197  -4.201  23.341  0.00  0.00    +0.000 OA
ATOM      3  N   UNL     1      45.172  -3.176  22.984  0.00  0.00    +0.000 N 
ATOM      4  N   UNL     1      44.534  -1.162  24.047  0.00  0.00    +0.000 NA
ATOM      5  C   UNL     1      44.258  -2.163  23.260  0.00  0.00    +0.000 C 
ATOM      6  C   UNL     1      46.453  -3.249  23.536  0.00  0.00    +0.000 C 
ATOM      7  C   UNL     1      46.805  -2.074  24.393  0.00  0.00    +0.000 C 
ATOM      8  C   UNL     1      45.787  -1.286  24.504  0.00  0.00    +0.000 C 
ATOM      9  H   UNL     1      44.893  -3.948  22.398  0.00  0.00    +0.000 HD
ENDROOT
BRANCH   5  10
ATOM     10  O   UNL     1      43.076  -2.342  22.625  0.00  0.00    +0.000 OA
BRANCH  10  11
ATOM     11  C   UNL     1      41.986  -2.035  23.320  0.00  0.00    +0.000 C 
ATOM     12  C   UNL     1      40.703  -1.660  24.069  0.00  0.00    +0.000 C 
ENDBRANCH  10  11
ENDBRANCH   5  10
TORSDOF 2
ENDMDL
MODEL 9
REMARK VINA RESULT:      -3.2     12.883     13.623
REMARK  Name = 92041_2Ethoxy5fluorouracil.pdbqt.pdb
REMARK  2 active torsions:
REMARK  status: ('A' for Active; 'I' for Inactive)
REMARK    1  A    between atoms: C_5  and  O_10
REMARK    2  A    between atoms: O_10  and  C_11
REMARK                            x       y       z     vdW  Elec       q    Type
REMARK                         _______ _______ _______ _____ _____    ______ ____
ROOT
ATOM      1  F   UNL     1      41.617   7.329  20.526  0.00  0.00    +0.000 F 
ATOM      2  O   UNL     1      39.381   7.967  22.178  0.00  0.00    +0.000 OA
ATOM      3  N   UNL     1      38.294   8.731  20.303  0.00  0.00    +0.000 N 
ATOM      4  N   UNL     1      39.188   8.545  18.122  0.00  0.00    +0.000 NA
ATOM      5  C   UNL     1      38.254   8.960  18.931  0.00  0.00    +0.000 C 
ATOM      6  C   UNL     1      39.336   8.072  20.960  0.00  0.00    +0.000 C 
ATOM      7  C   UNL     1      40.384   7.535  20.035  0.00  0.00    +0.000 C 
ATOM      8  C   UNL     1      40.126   7.893  18.820  0.00  0.00    +0.000 C 
ATOM      9  H   UNL     1      37.564   9.109  20.889  0.00  0.00    +0.000 HD
ENDROOT
BRANCH   5  10
ATOM     10  O   UNL     1      37.154   9.650  18.551  0.00  0.00    +0.000 OA
BRANCH  10  11
ATOM     11  C   UNL     1      35.985   9.056  18.771  0.00  0.00    +0.000 C 
ATOM     12  C   UNL     1      34.650   8.375  19.087  0.00  0.00    +0.000 C 
ENDBRANCH  10  11
ENDBRANCH   5  10
TORSDOF 2
ENDMDL
