MODEL 1
REMARK VINA RESULT:      -4.7      0.000      0.000
REMARK  Name = 95716_6Bromoisatin.pdbqt.pdb
REMARK  0 active torsions:
REMARK  status: ('A' for Active; 'I' for Inactive)
REMARK                            x       y       z     vdW  Elec       q    Type
REMARK                         _______ _______ _______ _____ _____    ______ ____
ROOT
ATOM      1 BR   UNL     1      28.438  11.416  -6.627  0.00  0.00    +0.000 Br
ATOM      2  O   UNL     1      34.040   7.535  -5.111  0.00  0.00    +0.000 OA
ATOM      3  O   UNL     1      35.774   9.962  -5.534  0.00  0.00    +0.000 OA
ATOM      4  N   UNL     1      33.693  10.916  -5.978  0.00  0.00    +0.000 N 
ATOM      5  C   UNL     1      32.380  10.453  -5.995  0.00  0.00    +0.000 A 
ATOM      6  C   UNL     1      32.312   9.100  -5.669  0.00  0.00    +0.000 A 
ATOM      7  C   UNL     1      33.680   8.646  -5.420  0.00  0.00    +0.000 C 
ATOM      8  C   UNL     1      31.247  11.180  -6.288  0.00  0.00    +0.000 A 
ATOM      9  C   UNL     1      31.124   8.403  -5.617  0.00  0.00    +0.000 A 
ATOM     10  C   UNL     1      34.571   9.903  -5.640  0.00  0.00    +0.000 C 
ATOM     11  C   UNL     1      30.034  10.490  -6.239  0.00  0.00    +0.000 A 
ATOM     12  C   UNL     1      29.966   9.125  -5.910  0.00  0.00    +0.000 A 
ATOM     13  H   UNL     1      33.995  11.859  -6.179  0.00  0.00    +0.000 HD
ENDROOT
TORSDOF 0
ENDMDL
MODEL 2
REMARK VINA RESULT:      -4.0     38.577     39.156
REMARK  Name = 95716_6Bromoisatin.pdbqt.pdb
REMARK  0 active torsions:
REMARK  status: ('A' for Active; 'I' for Inactive)
REMARK                            x       y       z     vdW  Elec       q    Type
REMARK                         _______ _______ _______ _____ _____    ______ ____
ROOT
ATOM      1 BR   UNL     1      22.759  -3.571  33.784  0.00  0.00    +0.000 Br
ATOM      2  O   UNL     1      25.972  -0.787  28.246  0.00  0.00    +0.000 OA
ATOM      3  O   UNL     1      26.149   1.830  29.727  0.00  0.00    +0.000 OA
ATOM      4  N   UNL     1      25.065   0.560  31.356  0.00  0.00    +0.000 N 
ATOM      5  C   UNL     1      24.622  -0.756  31.444  0.00  0.00    +0.000 A 
ATOM      6  C   UNL     1      24.898  -1.467  30.279  0.00  0.00    +0.000 A 
ATOM      7  C   UNL     1      25.571  -0.549  29.361  0.00  0.00    +0.000 C 
ATOM      8  C   UNL     1      23.985  -1.348  32.514  0.00  0.00    +0.000 A 
ATOM      9  C   UNL     1      24.559  -2.794  30.114  0.00  0.00    +0.000 A 
ATOM     10  C   UNL     1      25.660   0.801  30.131  0.00  0.00    +0.000 C 
ATOM     11  C   UNL     1      23.634  -2.691  32.365  0.00  0.00    +0.000 A 
ATOM     12  C   UNL     1      23.913  -3.408  31.188  0.00  0.00    +0.000 A 
ATOM     13  H   UNL     1      24.979   1.268  32.071  0.00  0.00    +0.000 HD
ENDROOT
TORSDOF 0
ENDMDL
MODEL 3
REMARK VINA RESULT:      -3.9     39.112     39.308
REMARK  Name = 95716_6Bromoisatin.pdbqt.pdb
REMARK  0 active torsions:
REMARK  status: ('A' for Active; 'I' for Inactive)
REMARK                            x       y       z     vdW  Elec       q    Type
REMARK                         _______ _______ _______ _____ _____    ______ ____
ROOT
ATOM      1 BR   UNL     1      18.351  19.007  33.512  0.00  0.00    +0.000 Br
ATOM      2  O   UNL     1      23.781  17.144  29.538  0.00  0.00    +0.000 OA
ATOM      3  O   UNL     1      24.099  20.023  28.710  0.00  0.00    +0.000 OA
ATOM      4  N   UNL     1      22.265  20.251  30.133  0.00  0.00    +0.000 N 
ATOM      5  C   UNL     1      21.509  19.380  30.911  0.00  0.00    +0.000 A 
ATOM      6  C   UNL     1      21.968  18.070  30.804  0.00  0.00    +0.000 A 
ATOM      7  C   UNL     1      23.108  18.085  29.889  0.00  0.00    +0.000 C 
ATOM      8  C   UNL     1      20.432  19.702  31.709  0.00  0.00    +0.000 A 
ATOM      9  C   UNL     1      21.387  17.016  31.478  0.00  0.00    +0.000 A 
ATOM     10  C   UNL     1      23.268  19.574  29.465  0.00  0.00    +0.000 C 
ATOM     11  C   UNL     1      19.831  18.648  32.400  0.00  0.00    +0.000 A 
ATOM     12  C   UNL     1      20.295  17.325  32.291  0.00  0.00    +0.000 A 
ATOM     13  H   UNL     1      22.126  21.248  30.046  0.00  0.00    +0.000 HD
ENDROOT
TORSDOF 0
ENDMDL
MODEL 4
REMARK VINA RESULT:      -3.8     35.456     35.958
REMARK  Name = 95716_6Bromoisatin.pdbqt.pdb
REMARK  0 active torsions:
REMARK  status: ('A' for Active; 'I' for Inactive)
REMARK                            x       y       z     vdW  Elec       q    Type
REMARK                         _______ _______ _______ _____ _____    ______ ____
ROOT
ATOM      1 BR   UNL     1      30.786  34.664  25.249  0.00  0.00    +0.000 Br
ATOM      2  O   UNL     1      34.292  30.644  20.745  0.00  0.00    +0.000 OA
ATOM      3  O   UNL     1      31.702  30.067  19.320  0.00  0.00    +0.000 OA
ATOM      4  N   UNL     1      30.893  31.471  20.997  0.00  0.00    +0.000 N 
ATOM      5  C   UNL     1      31.462  32.160  22.064  0.00  0.00    +0.000 A 
ATOM      6  C   UNL     1      32.838  31.951  22.130  0.00  0.00    +0.000 A 
ATOM      7  C   UNL     1      33.194  31.061  21.027  0.00  0.00    +0.000 C 
ATOM      8  C   UNL     1      30.811  32.963  22.976  0.00  0.00    +0.000 A 
ATOM      9  C   UNL     1      33.635  32.525  23.099  0.00  0.00    +0.000 A 
ATOM     10  C   UNL     1      31.853  30.766  20.295  0.00  0.00    +0.000 C 
ATOM     11  C   UNL     1      31.603  33.552  23.964  0.00  0.00    +0.000 A 
ATOM     12  C   UNL     1      32.991  33.341  24.030  0.00  0.00    +0.000 A 
ATOM     13  H   UNL     1      29.915  31.466  20.744  0.00  0.00    +0.000 HD
ENDROOT
TORSDOF 0
ENDMDL
MODEL 5
REMARK VINA RESULT:      -3.7     34.584     35.236
REMARK  Name = 95716_6Bromoisatin.pdbqt.pdb
REMARK  0 active torsions:
REMARK  status: ('A' for Active; 'I' for Inactive)
REMARK                            x       y       z     vdW  Elec       q    Type
REMARK                         _______ _______ _______ _____ _____    ______ ____
ROOT
ATOM      1 BR   UNL     1      24.331  -5.715  27.805  0.00  0.00    +0.000 Br
ATOM      2  O   UNL     1      30.863  -3.989  26.046  0.00  0.00    +0.000 OA
ATOM      3  O   UNL     1      29.948  -3.625  23.200  0.00  0.00    +0.000 OA
ATOM      4  N   UNL     1      27.916  -4.243  24.162  0.00  0.00    +0.000 N 
ATOM      5  C   UNL     1      27.497  -4.583  25.445  0.00  0.00    +0.000 A 
ATOM      6  C   UNL     1      28.551  -4.539  26.355  0.00  0.00    +0.000 A 
ATOM      7  C   UNL     1      29.746  -4.140  25.612  0.00  0.00    +0.000 C 
ATOM      8  C   UNL     1      26.222  -4.930  25.838  0.00  0.00    +0.000 A 
ATOM      9  C   UNL     1      28.396  -4.834  27.693  0.00  0.00    +0.000 A 
ATOM     10  C   UNL     1      29.267  -3.954  24.143  0.00  0.00    +0.000 C 
ATOM     11  C   UNL     1      26.047  -5.232  27.190  0.00  0.00    +0.000 A 
ATOM     12  C   UNL     1      27.111  -5.187  28.107  0.00  0.00    +0.000 A 
ATOM     13  H   UNL     1      27.336  -4.204  23.336  0.00  0.00    +0.000 HD
ENDROOT
TORSDOF 0
ENDMDL
MODEL 6
REMARK VINA RESULT:      -3.6     11.768     12.887
REMARK  Name = 95716_6Bromoisatin.pdbqt.pdb
REMARK  0 active torsions:
REMARK  status: ('A' for Active; 'I' for Inactive)
REMARK                            x       y       z     vdW  Elec       q    Type
REMARK                         _______ _______ _______ _____ _____    ______ ____
ROOT
ATOM      1 BR   UNL     1      35.807  20.054  -7.202  0.00  0.00    +0.000 Br
ATOM      2  O   UNL     1      30.407  22.210  -3.339  0.00  0.00    +0.000 OA
ATOM      3  O   UNL     1      32.107  24.476  -2.315  0.00  0.00    +0.000 OA
ATOM      4  N   UNL     1      33.661  23.460  -3.728  0.00  0.00    +0.000 N 
ATOM      5  C   UNL     1      33.650  22.350  -4.567  0.00  0.00    +0.000 A 
ATOM      6  C   UNL     1      32.415  21.708  -4.548  0.00  0.00    +0.000 A 
ATOM      7  C   UNL     1      31.555  22.451  -3.628  0.00  0.00    +0.000 C 
ATOM      8  C   UNL     1      34.689  21.889  -5.346  0.00  0.00    +0.000 A 
ATOM      9  C   UNL     1      32.147  20.580  -5.295  0.00  0.00    +0.000 A 
ATOM     10  C   UNL     1      32.438  23.620  -3.103  0.00  0.00    +0.000 C 
ATOM     11  C   UNL     1      34.436  20.747  -6.110  0.00  0.00    +0.000 A 
ATOM     12  C   UNL     1      33.189  20.099  -6.090  0.00  0.00    +0.000 A 
ATOM     13  H   UNL     1      34.440  24.085  -3.574  0.00  0.00    +0.000 HD
ENDROOT
TORSDOF 0
ENDMDL
MODEL 7
REMARK VINA RESULT:      -3.6      3.065      3.978
REMARK  Name = 95716_6Bromoisatin.pdbqt.pdb
REMARK  0 active torsions:
REMARK  status: ('A' for Active; 'I' for Inactive)
REMARK                            x       y       z     vdW  Elec       q    Type
REMARK                         _______ _______ _______ _____ _____    ______ ____
ROOT
ATOM      1 BR   UNL     1      35.744  13.363  -9.409  0.00  0.00    +0.000 Br
ATOM      2  O   UNL     1      32.011   8.991  -5.448  0.00  0.00    +0.000 OA
ATOM      3  O   UNL     1      34.578   7.723  -4.514  0.00  0.00    +0.000 OA
ATOM      4  N   UNL     1      35.466   9.336  -5.946  0.00  0.00    +0.000 N 
ATOM      5  C   UNL     1      34.932  10.327  -6.764  0.00  0.00    +0.000 A 
ATOM      6  C   UNL     1      33.540  10.347  -6.699  0.00  0.00    +0.000 A 
ATOM      7  C   UNL     1      33.135   9.292  -5.772  0.00  0.00    +0.000 C 
ATOM      8  C   UNL     1      35.627  11.211  -7.561  0.00  0.00    +0.000 A 
ATOM      9  C   UNL     1      32.771  11.239  -7.418  0.00  0.00    +0.000 A 
ATOM     10  C   UNL     1      34.465   8.641  -5.293  0.00  0.00    +0.000 C 
ATOM     11  C   UNL     1      34.865  12.121  -8.295  0.00  0.00    +0.000 A 
ATOM     12  C   UNL     1      33.461  12.141  -8.230  0.00  0.00    +0.000 A 
ATOM     13  H   UNL     1      36.447   9.127  -5.825  0.00  0.00    +0.000 HD
ENDROOT
TORSDOF 0
ENDMDL
MODEL 8
REMARK VINA RESULT:      -3.5      9.530     10.045
REMARK  Name = 95716_6Bromoisatin.pdbqt.pdb
REMARK  0 active torsions:
REMARK  status: ('A' for Active; 'I' for Inactive)
REMARK                            x       y       z     vdW  Elec       q    Type
REMARK                         _______ _______ _______ _____ _____    ______ ____
ROOT
ATOM      1 BR   UNL     1      37.199  19.479  -8.016  0.00  0.00    +0.000 Br
ATOM      2  O   UNL     1      40.559  13.980  -5.330  0.00  0.00    +0.000 OA
ATOM      3  O   UNL     1      41.092  15.586  -2.838  0.00  0.00    +0.000 OA
ATOM      4  N   UNL     1      39.912  17.185  -4.059  0.00  0.00    +0.000 N 
ATOM      5  C   UNL     1      39.317  17.221  -5.316  0.00  0.00    +0.000 A 
ATOM      6  C   UNL     1      39.471  16.012  -5.990  0.00  0.00    +0.000 A 
ATOM      7  C   UNL     1      40.223  15.119  -5.108  0.00  0.00    +0.000 C 
ATOM      8  C   UNL     1      38.645  18.281  -5.886  0.00  0.00    +0.000 A 
ATOM      9  C   UNL     1      38.971  15.792  -7.256  0.00  0.00    +0.000 A 
ATOM     10  C   UNL     1      40.495  15.954  -3.823  0.00  0.00    +0.000 C 
ATOM     11  C   UNL     1      38.131  18.077  -7.169  0.00  0.00    +0.000 A 
ATOM     12  C   UNL     1      38.288  16.856  -7.847  0.00  0.00    +0.000 A 
ATOM     13  H   UNL     1      39.933  17.938  -3.386  0.00  0.00    +0.000 HD
ENDROOT
TORSDOF 0
ENDMDL
MODEL 9
REMARK VINA RESULT:      -3.4     35.559     36.028
REMARK  Name = 95716_6Bromoisatin.pdbqt.pdb
REMARK  0 active torsions:
REMARK  status: ('A' for Active; 'I' for Inactive)
REMARK                            x       y       z     vdW  Elec       q    Type
REMARK                         _______ _______ _______ _____ _____    ______ ____
ROOT
ATOM      1 BR   UNL     1      32.467  33.712  26.068  0.00  0.00    +0.000 Br
ATOM      2  O   UNL     1      32.365  31.098  19.595  0.00  0.00    +0.000 OA
ATOM      3  O   UNL     1      35.353  31.449  19.459  0.00  0.00    +0.000 OA
ATOM      4  N   UNL     1      34.986  32.265  21.613  0.00  0.00    +0.000 N 
ATOM      5  C   UNL     1      33.867  32.438  22.423  0.00  0.00    +0.000 A 
ATOM      6  C   UNL     1      32.703  32.022  21.781  0.00  0.00    +0.000 A 
ATOM      7  C   UNL     1      33.089  31.541  20.454  0.00  0.00    +0.000 C 
ATOM      8  C   UNL     1      33.840  32.948  23.703  0.00  0.00    +0.000 A 
ATOM      9  C   UNL     1      31.459  32.090  22.371  0.00  0.00    +0.000 A 
ATOM     10  C   UNL     1      34.633  31.725  20.390  0.00  0.00    +0.000 C 
ATOM     11  C   UNL     1      32.588  33.025  24.317  0.00  0.00    +0.000 A 
ATOM     12  C   UNL     1      31.414  32.604  23.668  0.00  0.00    +0.000 A 
ATOM     13  H   UNL     1      35.940  32.492  21.856  0.00  0.00    +0.000 HD
ENDROOT
TORSDOF 0
ENDMDL
