MODEL 1
REMARK VINA RESULT:      -6.6      0.000      0.000
REMARK  Name = 969516_Curcumin.pdbqt.pdb
REMARK  8 active torsions:
REMARK  status: ('A' for Active; 'I' for Inactive)
REMARK    1  A    between atoms: C_3  and  C_5
REMARK    2  A    between atoms: C_4  and  C_6
REMARK    3  A    between atoms: C_8  and  O_12
REMARK    4  A    between atoms: C_10  and  O_14
REMARK    5  A    between atoms: C_17  and  C_19
REMARK    6  A    between atoms: C_18  and  C_20
REMARK    7  A    between atoms: C_22  and  O_26
REMARK    8  A    between atoms: C_24  and  O_28
REMARK                            x       y       z     vdW  Elec       q    Type
REMARK                         _______ _______ _______ _____ _____    ______ ____
ROOT
ATOM      1  C   UNL     1      21.950  26.652   5.507  0.00  0.00    +0.000 C 
ATOM      2  O   UNL     1      20.744  28.023   4.121  0.00  0.00    +0.000 OA
ATOM      3  C   UNL     1      21.026  27.711   5.268  0.00  0.00    +0.000 C 
ATOM      4  O   UNL     1      23.391  25.475   6.844  0.00  0.00    +0.000 OA
ATOM      5  C   UNL     1      22.877  25.596   5.742  0.00  0.00    +0.000 C 
ENDROOT
BRANCH   3   7
ATOM      6  C   UNL     1      19.932  28.983   7.310  0.00  0.00    +0.000 C 
ATOM      7  C   UNL     1      20.429  28.404   6.382  0.00  0.00    +0.000 C 
BRANCH   6   8
ATOM      8  C   UNL     1      19.340  29.671   8.410  0.00  0.00    +0.000 A 
ATOM      9  C   UNL     1      20.016  29.745   9.628  0.00  0.00    +0.000 A 
ATOM     10  C   UNL     1      19.450  30.415  10.717  0.00  0.00    +0.000 A 
ATOM     11  C   UNL     1      18.090  30.267   8.268  0.00  0.00    +0.000 A 
ATOM     12  C   UNL     1      18.195  31.010  10.562  0.00  0.00    +0.000 A 
ATOM     13  C   UNL     1      17.518  30.938   9.345  0.00  0.00    +0.000 A 
BRANCH  10  14
ATOM     14  O   UNL     1      20.055  30.530  11.944  0.00  0.00    +0.000 OA
ATOM     15  C   UNL     1      19.938  29.424  12.794  0.00  0.00    +0.000 C 
ENDBRANCH  10  14
BRANCH  12  16
ATOM     16  O   UNL     1      17.563  31.687  11.569  0.00  0.00    +0.000 OA
ATOM     17  H   UNL     1      17.939  32.577  11.672  0.00  0.00    +0.000 HD
ENDBRANCH  12  16
ENDBRANCH   6   8
ENDBRANCH   3   7
BRANCH   5  19
ATOM     18  C   UNL     1      23.475  23.911   3.796  0.00  0.00    +0.000 C 
ATOM     19  C   UNL     1      23.201  24.678   4.680  0.00  0.00    +0.000 C 
BRANCH  18  20
ATOM     20  C   UNL     1      23.804  23.004   2.746  0.00  0.00    +0.000 A 
ATOM     21  C   UNL     1      23.108  21.803   2.623  0.00  0.00    +0.000 A 
ATOM     22  C   UNL     1      23.419  20.904   1.599  0.00  0.00    +0.000 A 
ATOM     23  C   UNL     1      24.819  23.321   1.845  0.00  0.00    +0.000 A 
ATOM     24  C   UNL     1      24.438  21.234   0.703  0.00  0.00    +0.000 A 
ATOM     25  C   UNL     1      25.137  22.434   0.822  0.00  0.00    +0.000 A 
BRANCH  22  26
ATOM     26  O   UNL     1      22.785  19.700   1.407  0.00  0.00    +0.000 OA
ATOM     27  C   UNL     1      21.418  19.779   1.095  0.00  0.00    +0.000 C 
ENDBRANCH  22  26
BRANCH  24  28
ATOM     28  O   UNL     1      24.757  20.367  -0.306  0.00  0.00    +0.000 OA
ATOM     29  H   UNL     1      23.976  20.254  -0.880  0.00  0.00    +0.000 HD
ENDBRANCH  24  28
ENDBRANCH  18  20
ENDBRANCH   5  19
TORSDOF 8
ENDMDL
MODEL 2
REMARK VINA RESULT:      -6.2     34.795     40.775
REMARK  Name = 969516_Curcumin.pdbqt.pdb
REMARK  8 active torsions:
REMARK  status: ('A' for Active; 'I' for Inactive)
REMARK    1  A    between atoms: C_3  and  C_5
REMARK    2  A    between atoms: C_4  and  C_6
REMARK    3  A    between atoms: C_8  and  O_12
REMARK    4  A    between atoms: C_10  and  O_14
REMARK    5  A    between atoms: C_17  and  C_19
REMARK    6  A    between atoms: C_18  and  C_20
REMARK    7  A    between atoms: C_22  and  O_26
REMARK    8  A    between atoms: C_24  and  O_28
REMARK                            x       y       z     vdW  Elec       q    Type
REMARK                         _______ _______ _______ _____ _____    ______ ____
ROOT
ATOM      1  C   UNL     1      45.152  -5.192   9.850  0.00  0.00    +0.000 C 
ATOM      2  O   UNL     1      43.101  -6.200  10.034  0.00  0.00    +0.000 OA
ATOM      3  C   UNL     1      44.206  -6.205   9.513  0.00  0.00    +0.000 C 
ATOM      4  O   UNL     1      47.277  -4.338   9.921  0.00  0.00    +0.000 OA
ATOM      5  C   UNL     1      46.096  -4.181  10.192  0.00  0.00    +0.000 C 
ENDROOT
BRANCH   3   7
ATOM      6  C   UNL     1      44.855  -8.073   7.760  0.00  0.00    +0.000 C 
ATOM      7  C   UNL     1      44.559  -7.223   8.556  0.00  0.00    +0.000 C 
BRANCH   6   8
ATOM      8  C   UNL     1      45.204  -9.083   6.815  0.00  0.00    +0.000 A 
ATOM      9  C   UNL     1      44.264 -10.044   6.445  0.00  0.00    +0.000 A 
ATOM     10  C   UNL     1      44.590 -11.041   5.521  0.00  0.00    +0.000 A 
ATOM     11  C   UNL     1      46.483  -9.109   6.265  0.00  0.00    +0.000 A 
ATOM     12  C   UNL     1      45.877 -11.056   4.974  0.00  0.00    +0.000 A 
ATOM     13  C   UNL     1      46.818 -10.097   5.343  0.00  0.00    +0.000 A 
BRANCH  10  14
ATOM     14  O   UNL     1      43.718 -12.017   5.108  0.00  0.00    +0.000 OA
ATOM     15  C   UNL     1      43.402 -13.001   6.054  0.00  0.00    +0.000 C 
ENDBRANCH  10  14
BRANCH  12  16
ATOM     16  O   UNL     1      46.287 -11.991   4.064  0.00  0.00    +0.000 OA
ATOM     17  H   UNL     1      46.827 -12.675   4.495  0.00  0.00    +0.000 HD
ENDBRANCH  12  16
ENDBRANCH   6   8
ENDBRANCH   3   7
BRANCH   5  19
ATOM     18  C   UNL     1      45.285  -1.978  11.405  0.00  0.00    +0.000 C 
ATOM     19  C   UNL     1      45.651  -2.981  10.854  0.00  0.00    +0.000 C 
BRANCH  18  20
ATOM     20  C   UNL     1      44.854  -0.788  12.060  0.00  0.00    +0.000 A 
ATOM     21  C   UNL     1      43.759  -0.827  12.922  0.00  0.00    +0.000 A 
ATOM     22  C   UNL     1      43.325   0.332  13.573  0.00  0.00    +0.000 A 
ATOM     23  C   UNL     1      45.527   0.412  11.839  0.00  0.00    +0.000 A 
ATOM     24  C   UNL     1      44.010   1.527  13.342  0.00  0.00    +0.000 A 
ATOM     25  C   UNL     1      45.105   1.572  12.481  0.00  0.00    +0.000 A 
BRANCH  22  26
ATOM     26  O   UNL     1      42.257   0.381  14.436  0.00  0.00    +0.000 OA
ATOM     27  C   UNL     1      41.116  -0.329  14.029  0.00  0.00    +0.000 C 
ENDBRANCH  22  26
BRANCH  24  28
ATOM     28  O   UNL     1      43.600   2.672  13.970  0.00  0.00    +0.000 OA
ATOM     29  H   UNL     1      43.429   3.355  13.294  0.00  0.00    +0.000 HD
ENDBRANCH  24  28
ENDBRANCH  18  20
ENDBRANCH   5  19
TORSDOF 8
ENDMDL
MODEL 3
REMARK VINA RESULT:      -5.9      1.246      2.130
REMARK  Name = 969516_Curcumin.pdbqt.pdb
REMARK  8 active torsions:
REMARK  status: ('A' for Active; 'I' for Inactive)
REMARK    1  A    between atoms: C_3  and  C_5
REMARK    2  A    between atoms: C_4  and  C_6
REMARK    3  A    between atoms: C_8  and  O_12
REMARK    4  A    between atoms: C_10  and  O_14
REMARK    5  A    between atoms: C_17  and  C_19
REMARK    6  A    between atoms: C_18  and  C_20
REMARK    7  A    between atoms: C_22  and  O_26
REMARK    8  A    between atoms: C_24  and  O_28
REMARK                            x       y       z     vdW  Elec       q    Type
REMARK                         _______ _______ _______ _____ _____    ______ ____
ROOT
ATOM      1  C   UNL     1      22.421  26.508   5.262  0.00  0.00    +0.000 C 
ATOM      2  O   UNL     1      21.446  28.085   3.914  0.00  0.00    +0.000 OA
ATOM      3  C   UNL     1      21.659  27.695   5.052  0.00  0.00    +0.000 C 
ATOM      4  O   UNL     1      23.656  25.091   6.574  0.00  0.00    +0.000 OA
ATOM      5  C   UNL     1      23.186  25.325   5.470  0.00  0.00    +0.000 C 
ENDROOT
BRANCH   3   7
ATOM      6  C   UNL     1      20.709  29.030   7.126  0.00  0.00    +0.000 C 
ATOM      7  C   UNL     1      21.142  28.423   6.184  0.00  0.00    +0.000 C 
BRANCH   6   8
ATOM      8  C   UNL     1      20.195  29.749   8.245  0.00  0.00    +0.000 A 
ATOM      9  C   UNL     1      21.070  30.404   9.112  0.00  0.00    +0.000 A 
ATOM     10  C   UNL     1      20.583  31.113  10.214  0.00  0.00    +0.000 A 
ATOM     11  C   UNL     1      18.823  29.796   8.472  0.00  0.00    +0.000 A 
ATOM     12  C   UNL     1      19.202  31.154  10.431  0.00  0.00    +0.000 A 
ATOM     13  C   UNL     1      18.326  30.500   9.565  0.00  0.00    +0.000 A 
BRANCH  10  14
ATOM     14  O   UNL     1      21.382  31.782  11.108  0.00  0.00    +0.000 OA
ATOM     15  C   UNL     1      22.623  32.212  10.623  0.00  0.00    +0.000 C 
ENDBRANCH  10  14
BRANCH  12  16
ATOM     16  O   UNL     1      18.634  31.822  11.480  0.00  0.00    +0.000 OA
ATOM     17  H   UNL     1      18.578  32.774  11.291  0.00  0.00    +0.000 HD
ENDBRANCH  12  16
ENDBRANCH   6   8
ENDBRANCH   3   7
BRANCH   5  19
ATOM     18  C   UNL     1      23.575  23.649   3.465  0.00  0.00    +0.000 C 
ATOM     19  C   UNL     1      23.400  24.410   4.377  0.00  0.00    +0.000 C 
BRANCH  18  20
ATOM     20  C   UNL     1      23.778  22.743   2.382  0.00  0.00    +0.000 A 
ATOM     21  C   UNL     1      24.673  23.068   1.364  0.00  0.00    +0.000 A 
ATOM     22  C   UNL     1      24.883  22.190   0.296  0.00  0.00    +0.000 A 
ATOM     23  C   UNL     1      23.083  21.536   2.344  0.00  0.00    +0.000 A 
ATOM     24  C   UNL     1      24.179  20.984   0.271  0.00  0.00    +0.000 A 
ATOM     25  C   UNL     1      23.283  20.654   1.286  0.00  0.00    +0.000 A 
BRANCH  22  26
ATOM     26  O   UNL     1      25.745  22.432  -0.747  0.00  0.00    +0.000 OA
ATOM     27  C   UNL     1      25.863  23.776  -1.134  0.00  0.00    +0.000 C 
ENDBRANCH  22  26
BRANCH  24  28
ATOM     28  O   UNL     1      24.371  20.111  -0.766  0.00  0.00    +0.000 OA
ATOM     29  H   UNL     1      24.687  19.261  -0.405  0.00  0.00    +0.000 HD
ENDBRANCH  24  28
ENDBRANCH  18  20
ENDBRANCH   5  19
TORSDOF 8
ENDMDL
MODEL 4
REMARK VINA RESULT:      -5.8     29.862     33.466
REMARK  Name = 969516_Curcumin.pdbqt.pdb
REMARK  8 active torsions:
REMARK  status: ('A' for Active; 'I' for Inactive)
REMARK    1  A    between atoms: C_3  and  C_5
REMARK    2  A    between atoms: C_4  and  C_6
REMARK    3  A    between atoms: C_8  and  O_12
REMARK    4  A    between atoms: C_10  and  O_14
REMARK    5  A    between atoms: C_17  and  C_19
REMARK    6  A    between atoms: C_18  and  C_20
REMARK    7  A    between atoms: C_22  and  O_26
REMARK    8  A    between atoms: C_24  and  O_28
REMARK                            x       y       z     vdW  Elec       q    Type
REMARK                         _______ _______ _______ _____ _____    ______ ____
ROOT
ATOM      1  C   UNL     1      17.017   1.981  24.640  0.00  0.00    +0.000 C 
ATOM      2  O   UNL     1      19.232   2.539  24.826  0.00  0.00    +0.000 OA
ATOM      3  C   UNL     1      18.406   1.723  24.448  0.00  0.00    +0.000 C 
ATOM      4  O   UNL     1      14.799   1.601  24.204  0.00  0.00    +0.000 OA
ATOM      5  C   UNL     1      15.629   2.244  24.830  0.00  0.00    +0.000 C 
ENDROOT
BRANCH   3   7
ATOM      6  C   UNL     1      19.175  -0.521  23.284  0.00  0.00    +0.000 C 
ATOM      7  C   UNL     1      18.825   0.499  23.813  0.00  0.00    +0.000 C 
BRANCH   6   8
ATOM      8  C   UNL     1      19.591  -1.734  22.658  0.00  0.00    +0.000 A 
ATOM      9  C   UNL     1      20.813  -2.310  23.003  0.00  0.00    +0.000 A 
ATOM     10  C   UNL     1      21.236  -3.498  22.399  0.00  0.00    +0.000 A 
ATOM     11  C   UNL     1      18.779  -2.338  21.702  0.00  0.00    +0.000 A 
ATOM     12  C   UNL     1      20.412  -4.097  21.442  0.00  0.00    +0.000 A 
ATOM     13  C   UNL     1      19.190  -3.521  21.095  0.00  0.00    +0.000 A 
BRANCH  10  14
ATOM     14  O   UNL     1      22.423  -4.124  22.689  0.00  0.00    +0.000 OA
ATOM     15  C   UNL     1      22.544  -4.646  23.982  0.00  0.00    +0.000 C 
ENDBRANCH  10  14
BRANCH  12  16
ATOM     16  O   UNL     1      20.741  -5.258  20.798  0.00  0.00    +0.000 OA
ATOM     17  H   UNL     1      21.692  -5.282  20.599  0.00  0.00    +0.000 HD
ENDBRANCH  12  16
ENDBRANCH   6   8
ENDBRANCH   3   7
BRANCH   5  19
ATOM     18  C   UNL     1      14.866   4.111  26.536  0.00  0.00    +0.000 C 
ATOM     19  C   UNL     1      15.214   3.264  25.759  0.00  0.00    +0.000 C 
BRANCH  18  20
ATOM     20  C   UNL     1      14.447   5.115  27.458  0.00  0.00    +0.000 A 
ATOM     21  C   UNL     1      14.246   6.423  27.016  0.00  0.00    +0.000 A 
ATOM     22  C   UNL     1      13.835   7.418  27.908  0.00  0.00    +0.000 A 
ATOM     23  C   UNL     1      14.239   4.789  28.796  0.00  0.00    +0.000 A 
ATOM     24  C   UNL     1      13.630   7.076  29.247  0.00  0.00    +0.000 A 
ATOM     25  C   UNL     1      13.830   5.771  29.693  0.00  0.00    +0.000 A 
BRANCH  22  26
ATOM     26  O   UNL     1      13.616   8.728  27.557  0.00  0.00    +0.000 OA
ATOM     27  C   UNL     1      14.339   9.186  26.445  0.00  0.00    +0.000 C 
ENDBRANCH  22  26
BRANCH  24  28
ATOM     28  O   UNL     1      13.228   8.037  30.134  0.00  0.00    +0.000 OA
ATOM     29  H   UNL     1      13.697   7.898  30.979  0.00  0.00    +0.000 HD
ENDBRANCH  24  28
ENDBRANCH  18  20
ENDBRANCH   5  19
TORSDOF 8
ENDMDL
MODEL 5
REMARK VINA RESULT:      -5.8     34.978     40.829
REMARK  Name = 969516_Curcumin.pdbqt.pdb
REMARK  8 active torsions:
REMARK  status: ('A' for Active; 'I' for Inactive)
REMARK    1  A    between atoms: C_3  and  C_5
REMARK    2  A    between atoms: C_4  and  C_6
REMARK    3  A    between atoms: C_8  and  O_12
REMARK    4  A    between atoms: C_10  and  O_14
REMARK    5  A    between atoms: C_17  and  C_19
REMARK    6  A    between atoms: C_18  and  C_20
REMARK    7  A    between atoms: C_22  and  O_26
REMARK    8  A    between atoms: C_24  and  O_28
REMARK                            x       y       z     vdW  Elec       q    Type
REMARK                         _______ _______ _______ _____ _____    ______ ____
ROOT
ATOM      1  C   UNL     1      46.426  -4.529  10.163  0.00  0.00    +0.000 C 
ATOM      2  O   UNL     1      44.384  -5.286  10.877  0.00  0.00    +0.000 OA
ATOM      3  C   UNL     1      45.379  -5.497  10.201  0.00  0.00    +0.000 C 
ATOM      4  O   UNL     1      48.578  -3.880   9.716  0.00  0.00    +0.000 OA
ATOM      5  C   UNL     1      47.472  -3.563  10.130  0.00  0.00    +0.000 C 
ENDROOT
BRANCH   3   7
ATOM      6  C   UNL     1      45.604  -7.728   8.804  0.00  0.00    +0.000 C 
ATOM      7  C   UNL     1      45.502  -6.714   9.440  0.00  0.00    +0.000 C 
BRANCH   6   8
ATOM      8  C   UNL     1      45.727  -8.932   8.049  0.00  0.00    +0.000 A 
ATOM      9  C   UNL     1      44.768  -9.250   7.088  0.00  0.00    +0.000 A 
ATOM     10  C   UNL     1      44.873 -10.426   6.338  0.00  0.00    +0.000 A 
ATOM     11  C   UNL     1      46.802  -9.788   8.272  0.00  0.00    +0.000 A 
ATOM     12  C   UNL     1      45.957 -11.277   6.571  0.00  0.00    +0.000 A 
ATOM     13  C   UNL     1      46.917 -10.961   7.532  0.00  0.00    +0.000 A 
BRANCH  10  14
ATOM     14  O   UNL     1      43.970 -10.804   5.376  0.00  0.00    +0.000 OA
ATOM     15  C   UNL     1      42.631 -10.866   5.779  0.00  0.00    +0.000 C 
ENDBRANCH  10  14
BRANCH  12  16
ATOM     16  O   UNL     1      46.144 -12.448   5.888  0.00  0.00    +0.000 OA
ATOM     17  H   UNL     1      46.362 -12.270   4.958  0.00  0.00    +0.000 HD
ENDBRANCH  12  16
ENDBRANCH   6   8
ENDBRANCH   3   7
BRANCH   5  19
ATOM     18  C   UNL     1      47.006  -1.098  10.959  0.00  0.00    +0.000 C 
ATOM     19  C   UNL     1      47.220  -2.219  10.583  0.00  0.00    +0.000 C 
BRANCH  18  20
ATOM     20  C   UNL     1      46.748   0.232  11.402  0.00  0.00    +0.000 A 
ATOM     21  C   UNL     1      45.611   0.504  12.162  0.00  0.00    +0.000 A 
ATOM     22  C   UNL     1      45.346   1.803  12.604  0.00  0.00    +0.000 A 
ATOM     23  C   UNL     1      47.634   1.258  11.077  0.00  0.00    +0.000 A 
ATOM     24  C   UNL     1      46.242   2.821  12.270  0.00  0.00    +0.000 A 
ATOM     25  C   UNL     1      47.380   2.556  11.511  0.00  0.00    +0.000 A 
BRANCH  22  26
ATOM     26  O   UNL     1      44.251   2.157  13.354  0.00  0.00    +0.000 OA
ATOM     27  C   UNL     1      43.332   1.126  13.607  0.00  0.00    +0.000 C 
ENDBRANCH  22  26
BRANCH  24  28
ATOM     28  O   UNL     1      46.000   4.100  12.694  0.00  0.00    +0.000 OA
ATOM     29  H   UNL     1      45.942   4.101  13.668  0.00  0.00    +0.000 HD
ENDBRANCH  24  28
ENDBRANCH  18  20
ENDBRANCH   5  19
TORSDOF 8
ENDMDL
MODEL 6
REMARK VINA RESULT:      -5.8     35.341     41.251
REMARK  Name = 969516_Curcumin.pdbqt.pdb
REMARK  8 active torsions:
REMARK  status: ('A' for Active; 'I' for Inactive)
REMARK    1  A    between atoms: C_3  and  C_5
REMARK    2  A    between atoms: C_4  and  C_6
REMARK    3  A    between atoms: C_8  and  O_12
REMARK    4  A    between atoms: C_10  and  O_14
REMARK    5  A    between atoms: C_17  and  C_19
REMARK    6  A    between atoms: C_18  and  C_20
REMARK    7  A    between atoms: C_22  and  O_26
REMARK    8  A    between atoms: C_24  and  O_28
REMARK                            x       y       z     vdW  Elec       q    Type
REMARK                         _______ _______ _______ _____ _____    ______ ____
ROOT
ATOM      1  C   UNL     1      45.570  -5.289  10.191  0.00  0.00    +0.000 C 
ATOM      2  O   UNL     1      43.868  -6.574  11.031  0.00  0.00    +0.000 OA
ATOM      3  C   UNL     1      44.779  -6.475  10.223  0.00  0.00    +0.000 C 
ATOM      4  O   UNL     1      47.439  -4.108   9.587  0.00  0.00    +0.000 OA
ATOM      5  C   UNL     1      46.360  -4.104  10.163  0.00  0.00    +0.000 C 
ENDROOT
BRANCH   3   7
ATOM      6  C   UNL     1      45.293  -8.440   8.533  0.00  0.00    +0.000 C 
ATOM      7  C   UNL     1      45.060  -7.547   9.302  0.00  0.00    +0.000 C 
BRANCH   6   8
ATOM      8  C   UNL     1      45.570  -9.500   7.618  0.00  0.00    +0.000 A 
ATOM      9  C   UNL     1      45.479 -10.825   8.042  0.00  0.00    +0.000 A 
ATOM     10  C   UNL     1      45.748 -11.875   7.160  0.00  0.00    +0.000 A 
ATOM     11  C   UNL     1      45.932  -9.209   6.306  0.00  0.00    +0.000 A 
ATOM     12  C   UNL     1      46.109 -11.572   5.843  0.00  0.00    +0.000 A 
ATOM     13  C   UNL     1      46.201 -10.247   5.418  0.00  0.00    +0.000 A 
BRANCH  10  14
ATOM     14  O   UNL     1      45.678 -13.202   7.504  0.00  0.00    +0.000 OA
ATOM     15  C   UNL     1      46.198 -13.540   8.759  0.00  0.00    +0.000 C 
ENDBRANCH  10  14
BRANCH  12  16
ATOM     16  O   UNL     1      46.390 -12.530   4.909  0.00  0.00    +0.000 OA
ATOM     17  H   UNL     1      45.784 -12.460   4.153  0.00  0.00    +0.000 HD
ENDBRANCH  12  16
ENDBRANCH   6   8
ENDBRANCH   3   7
BRANCH   5  19
ATOM     18  C   UNL     1      45.481  -1.914  11.352  0.00  0.00    +0.000 C 
ATOM     19  C   UNL     1      45.883  -2.910  10.812  0.00  0.00    +0.000 C 
BRANCH  18  20
ATOM     20  C   UNL     1      45.002  -0.732  11.988  0.00  0.00    +0.000 A 
ATOM     21  C   UNL     1      45.686   0.472  11.823  0.00  0.00    +0.000 A 
ATOM     22  C   UNL     1      45.228   1.639  12.440  0.00  0.00    +0.000 A 
ATOM     23  C   UNL     1      43.851  -0.780  12.772  0.00  0.00    +0.000 A 
ATOM     24  C   UNL     1      44.074   1.576  13.223  0.00  0.00    +0.000 A 
ATOM     25  C   UNL     1      43.386   0.376  13.392  0.00  0.00    +0.000 A 
BRANCH  22  26
ATOM     26  O   UNL     1      45.842   2.864  12.330  0.00  0.00    +0.000 OA
ATOM     27  C   UNL     1      47.171   2.837  11.881  0.00  0.00    +0.000 C 
ENDBRANCH  22  26
BRANCH  24  28
ATOM     28  O   UNL     1      43.610   2.709  13.835  0.00  0.00    +0.000 OA
ATOM     29  H   UNL     1      43.435   3.384  13.152  0.00  0.00    +0.000 HD
ENDBRANCH  24  28
ENDBRANCH  18  20
ENDBRANCH   5  19
TORSDOF 8
ENDMDL
MODEL 7
REMARK VINA RESULT:      -5.7      6.176     11.115
REMARK  Name = 969516_Curcumin.pdbqt.pdb
REMARK  8 active torsions:
REMARK  status: ('A' for Active; 'I' for Inactive)
REMARK    1  A    between atoms: C_3  and  C_5
REMARK    2  A    between atoms: C_4  and  C_6
REMARK    3  A    between atoms: C_8  and  O_12
REMARK    4  A    between atoms: C_10  and  O_14
REMARK    5  A    between atoms: C_17  and  C_19
REMARK    6  A    between atoms: C_18  and  C_20
REMARK    7  A    between atoms: C_22  and  O_26
REMARK    8  A    between atoms: C_24  and  O_28
REMARK                            x       y       z     vdW  Elec       q    Type
REMARK                         _______ _______ _______ _____ _____    ______ ____
ROOT
ATOM      1  C   UNL     1      19.574  19.495   3.563  0.00  0.00    +0.000 C 
ATOM      2  O   UNL     1      18.431  20.376   5.344  0.00  0.00    +0.000 OA
ATOM      3  C   UNL     1      18.440  19.572   4.424  0.00  0.00    +0.000 C 
ATOM      4  O   UNL     1      20.863  18.441   1.989  0.00  0.00    +0.000 OA
ATOM      5  C   UNL     1      20.710  19.418   2.707  0.00  0.00    +0.000 C 
ENDROOT
BRANCH   3   7
ATOM      6  C   UNL     1      16.373  17.977   4.017  0.00  0.00    +0.000 C 
ATOM      7  C   UNL     1      17.313  18.702   4.202  0.00  0.00    +0.000 C 
BRANCH   6   8
ATOM      8  C   UNL     1      15.256  17.116   3.799  0.00  0.00    +0.000 A 
ATOM      9  C   UNL     1      14.575  16.573   4.888  0.00  0.00    +0.000 A 
ATOM     10  C   UNL     1      13.479  15.728   4.692  0.00  0.00    +0.000 A 
ATOM     11  C   UNL     1      14.849  16.819   2.502  0.00  0.00    +0.000 A 
ATOM     12  C   UNL     1      13.079  15.437   3.385  0.00  0.00    +0.000 A 
ATOM     13  C   UNL     1      13.759  15.979   2.295  0.00  0.00    +0.000 A 
BRANCH  10  14
ATOM     14  O   UNL     1      12.759  15.158   5.713  0.00  0.00    +0.000 OA
ATOM     15  C   UNL     1      12.387  16.014   6.756  0.00  0.00    +0.000 C 
ENDBRANCH  10  14
BRANCH  12  16
ATOM     16  O   UNL     1      12.019  14.621   3.095  0.00  0.00    +0.000 OA
ATOM     17  H   UNL     1      12.250  13.999   2.385  0.00  0.00    +0.000 HD
ENDBRANCH  12  16
ENDBRANCH   6   8
ENDBRANCH   3   7
BRANCH   5  19
ATOM     18  C   UNL     1      22.469  21.389   2.681  0.00  0.00    +0.000 C 
ATOM     19  C   UNL     1      21.669  20.493   2.690  0.00  0.00    +0.000 C 
BRANCH  18  20
ATOM     20  C   UNL     1      23.418  22.454   2.674  0.00  0.00    +0.000 A 
ATOM     21  C   UNL     1      23.309  23.487   3.603  0.00  0.00    +0.000 A 
ATOM     22  C   UNL     1      24.232  24.537   3.609  0.00  0.00    +0.000 A 
ATOM     23  C   UNL     1      24.451  22.460   1.739  0.00  0.00    +0.000 A 
ATOM     24  C   UNL     1      25.263  24.530   2.667  0.00  0.00    +0.000 A 
ATOM     25  C   UNL     1      25.376  23.500   1.735  0.00  0.00    +0.000 A 
BRANCH  22  26
ATOM     26  O   UNL     1      24.197  25.592   4.489  0.00  0.00    +0.000 OA
ATOM     27  C   UNL     1      23.823  25.272   5.804  0.00  0.00    +0.000 C 
ENDBRANCH  22  26
BRANCH  24  28
ATOM     28  O   UNL     1      26.175  25.549   2.657  0.00  0.00    +0.000 OA
ATOM     29  H   UNL     1      25.717  26.382   2.876  0.00  0.00    +0.000 HD
ENDBRANCH  24  28
ENDBRANCH  18  20
ENDBRANCH   5  19
TORSDOF 8
ENDMDL
MODEL 8
REMARK VINA RESULT:      -5.7     29.909     31.538
REMARK  Name = 969516_Curcumin.pdbqt.pdb
REMARK  8 active torsions:
REMARK  status: ('A' for Active; 'I' for Inactive)
REMARK    1  A    between atoms: C_3  and  C_5
REMARK    2  A    between atoms: C_4  and  C_6
REMARK    3  A    between atoms: C_8  and  O_12
REMARK    4  A    between atoms: C_10  and  O_14
REMARK    5  A    between atoms: C_17  and  C_19
REMARK    6  A    between atoms: C_18  and  C_20
REMARK    7  A    between atoms: C_22  and  O_26
REMARK    8  A    between atoms: C_24  and  O_28
REMARK                            x       y       z     vdW  Elec       q    Type
REMARK                         _______ _______ _______ _____ _____    ______ ____
ROOT
ATOM      1  C   UNL     1      16.934   1.889  24.594  0.00  0.00    +0.000 C 
ATOM      2  O   UNL     1      14.708   1.517  24.195  0.00  0.00    +0.000 OA
ATOM      3  C   UNL     1      15.550   2.153  24.810  0.00  0.00    +0.000 C 
ATOM      4  O   UNL     1      19.155   2.436  24.740  0.00  0.00    +0.000 OA
ATOM      5  C   UNL     1      18.317   1.626  24.373  0.00  0.00    +0.000 C 
ENDROOT
BRANCH   3   7
ATOM      6  C   UNL     1      14.824   4.011  26.544  0.00  0.00    +0.000 C 
ATOM      7  C   UNL     1      15.154   3.166  25.756  0.00  0.00    +0.000 C 
BRANCH   6   8
ATOM      8  C   UNL     1      14.430   5.014  27.479  0.00  0.00    +0.000 A 
ATOM      9  C   UNL     1      14.244   6.328  27.050  0.00  0.00    +0.000 A 
ATOM     10  C   UNL     1      13.859   7.323  27.953  0.00  0.00    +0.000 A 
ATOM     11  C   UNL     1      14.232   4.680  28.815  0.00  0.00    +0.000 A 
ATOM     12  C   UNL     1      13.662   6.977  29.293  0.00  0.00    +0.000 A 
ATOM     13  C   UNL     1      13.847   5.663  29.723  0.00  0.00    +0.000 A 
BRANCH  10  14
ATOM     14  O   UNL     1      13.656   8.636  27.605  0.00  0.00    +0.000 OA
ATOM     15  C   UNL     1      14.296   9.069  26.438  0.00  0.00    +0.000 C 
ENDBRANCH  10  14
BRANCH  12  16
ATOM     16  O   UNL     1      13.284   7.881  30.248  0.00  0.00    +0.000 OA
ATOM     17  H   UNL     1      13.270   7.465  31.126  0.00  0.00    +0.000 HD
ENDBRANCH  12  16
ENDBRANCH   6   8
ENDBRANCH   3   7
BRANCH   5  19
ATOM     18  C   UNL     1      19.055  -0.611  23.177  0.00  0.00    +0.000 C 
ATOM     19  C   UNL     1      18.718   0.406  23.719  0.00  0.00    +0.000 C 
BRANCH  18  20
ATOM     20  C   UNL     1      19.460  -1.818  22.534  0.00  0.00    +0.000 A 
ATOM     21  C   UNL     1      20.567  -2.520  23.009  0.00  0.00    +0.000 A 
ATOM     22  C   UNL     1      20.976  -3.705  22.389  0.00  0.00    +0.000 A 
ATOM     23  C   UNL     1      18.749  -2.294  21.434  0.00  0.00    +0.000 A 
ATOM     24  C   UNL     1      20.253  -4.170  21.288  0.00  0.00    +0.000 A 
ATOM     25  C   UNL     1      19.146  -3.472  20.809  0.00  0.00    +0.000 A 
BRANCH  22  26
ATOM     26  O   UNL     1      22.053  -4.457  22.792  0.00  0.00    +0.000 OA
ATOM     27  C   UNL     1      22.434  -4.299  24.134  0.00  0.00    +0.000 C 
ENDBRANCH  22  26
BRANCH  24  28
ATOM     28  O   UNL     1      20.638  -5.328  20.669  0.00  0.00    +0.000 OA
ATOM     29  H   UNL     1      20.831  -5.998  21.351  0.00  0.00    +0.000 HD
ENDBRANCH  24  28
ENDBRANCH  18  20
ENDBRANCH   5  19
TORSDOF 8
ENDMDL
MODEL 9
REMARK VINA RESULT:      -5.7      7.457     12.318
REMARK  Name = 969516_Curcumin.pdbqt.pdb
REMARK  8 active torsions:
REMARK  status: ('A' for Active; 'I' for Inactive)
REMARK    1  A    between atoms: C_3  and  C_5
REMARK    2  A    between atoms: C_4  and  C_6
REMARK    3  A    between atoms: C_8  and  O_12
REMARK    4  A    between atoms: C_10  and  O_14
REMARK    5  A    between atoms: C_17  and  C_19
REMARK    6  A    between atoms: C_18  and  C_20
REMARK    7  A    between atoms: C_22  and  O_26
REMARK    8  A    between atoms: C_24  and  O_28
REMARK                            x       y       z     vdW  Elec       q    Type
REMARK                         _______ _______ _______ _____ _____    ______ ____
ROOT
ATOM      1  C   UNL     1      17.924  19.713   3.370  0.00  0.00    +0.000 C 
ATOM      2  O   UNL     1      18.461  20.994   5.194  0.00  0.00    +0.000 OA
ATOM      3  C   UNL     1      18.799  20.573   4.098  0.00  0.00    +0.000 C 
ATOM      4  O   UNL     1      17.229  18.677   1.448  0.00  0.00    +0.000 OA
ATOM      5  C   UNL     1      17.047  18.858   2.643  0.00  0.00    +0.000 C 
ENDROOT
BRANCH   3   7
ATOM      6  C   UNL     1      21.141  21.236   3.070  0.00  0.00    +0.000 C 
ATOM      7  C   UNL     1      20.076  20.935   3.538  0.00  0.00    +0.000 C 
BRANCH   6   8
ATOM      8  C   UNL     1      22.405  21.593   2.513  0.00  0.00    +0.000 A 
ATOM      9  C   UNL     1      22.836  20.996   1.329  0.00  0.00    +0.000 A 
ATOM     10  C   UNL     1      24.072  21.334   0.770  0.00  0.00    +0.000 A 
ATOM     11  C   UNL     1      23.206  22.535   3.152  0.00  0.00    +0.000 A 
ATOM     12  C   UNL     1      24.868  22.282   1.420  0.00  0.00    +0.000 A 
ATOM     13  C   UNL     1      24.438  22.880   2.604  0.00  0.00    +0.000 A 
BRANCH  10  14
ATOM     14  O   UNL     1      24.562  20.790  -0.392  0.00  0.00    +0.000 OA
ATOM     15  C   UNL     1      23.977  21.247  -1.579  0.00  0.00    +0.000 C 
ENDBRANCH  10  14
BRANCH  12  16
ATOM     16  O   UNL     1      26.090  22.676   0.949  0.00  0.00    +0.000 OA
ATOM     17  H   UNL     1      26.288  22.241   0.102  0.00  0.00    +0.000 HD
ENDBRANCH  12  16
ENDBRANCH   6   8
ENDBRANCH   3   7
BRANCH   5  19
ATOM     18  C   UNL     1      15.038  17.676   3.886  0.00  0.00    +0.000 C 
ATOM     19  C   UNL     1      15.953  18.212   3.321  0.00  0.00    +0.000 C 
BRANCH  18  20
ATOM     20  C   UNL     1      13.952  17.044   4.560  0.00  0.00    +0.000 A 
ATOM     21  C   UNL     1      13.967  15.665   4.760  0.00  0.00    +0.000 A 
ATOM     22  C   UNL     1      12.910  15.031   5.420  0.00  0.00    +0.000 A 
ATOM     23  C   UNL     1      12.878  17.806   5.018  0.00  0.00    +0.000 A 
ATOM     24  C   UNL     1      11.841  15.807   5.874  0.00  0.00    +0.000 A 
ATOM     25  C   UNL     1      11.820  17.186   5.676  0.00  0.00    +0.000 A 
BRANCH  22  26
ATOM     26  O   UNL     1      12.845  13.679   5.658  0.00  0.00    +0.000 OA
ATOM     27  C   UNL     1      13.047  12.857   4.538  0.00  0.00    +0.000 C 
ENDBRANCH  22  26
BRANCH  24  28
ATOM     28  O   UNL     1      10.797  15.205   6.522  0.00  0.00    +0.000 OA
ATOM     29  H   UNL     1      10.962  15.242   7.483  0.00  0.00    +0.000 HD
ENDBRANCH  24  28
ENDBRANCH  18  20
ENDBRANCH   5  19
TORSDOF 8
ENDMDL
