MODEL 1
REMARK VINA RESULT:      -4.3      0.000      0.000
REMARK  Name = 971_OxalicAcid.pdbqt.pdb
REMARK  3 active torsions:
REMARK  status: ('A' for Active; 'I' for Inactive)
REMARK    1  A    between atoms: C_2  and  O_3
REMARK    2  A    between atoms: C_2  and  C_6
REMARK    3  A    between atoms: C_6  and  O_7
REMARK                            x       y       z     vdW  Elec       q    Type
REMARK                         _______ _______ _______ _____ _____    ______ ____
ROOT
ATOM      1  O   UNL     1      36.998   8.052  17.695  0.00  0.00    +0.000 OA
ATOM      2  C   UNL     1      35.848   7.860  17.352  0.00  0.00    +0.000 C 
ENDROOT
BRANCH   2   3
ATOM      3  O   UNL     1      35.519   7.627  16.074  0.00  0.00    +0.000 OA
ATOM      4  H   UNL     1      34.543   7.689  16.057  0.00  0.00    +0.000 HD
ENDBRANCH   2   3
BRANCH   2   6
ATOM      5  O   UNL     1      34.630   7.552  19.480  0.00  0.00    +0.000 OA
ATOM      6  C   UNL     1      34.611   7.851  18.303  0.00  0.00    +0.000 C 
BRANCH   6   7
ATOM      7  O   UNL     1      33.480   8.217  17.683  0.00  0.00    +0.000 OA
ATOM      8  H   UNL     1      32.804   8.222  18.390  0.00  0.00    +0.000 HD
ENDBRANCH   6   7
ENDBRANCH   2   6
TORSDOF 3
ENDMDL
MODEL 2
REMARK VINA RESULT:      -4.2     13.348     14.557
REMARK  Name = 971_OxalicAcid.pdbqt.pdb
REMARK  3 active torsions:
REMARK  status: ('A' for Active; 'I' for Inactive)
REMARK    1  A    between atoms: C_2  and  O_3
REMARK    2  A    between atoms: C_2  and  C_6
REMARK    3  A    between atoms: C_6  and  O_7
REMARK                            x       y       z     vdW  Elec       q    Type
REMARK                         _______ _______ _______ _____ _____    ______ ____
ROOT
ATOM      1  O   UNL     1      28.796  -3.685  25.972  0.00  0.00    +0.000 OA
ATOM      2  C   UNL     1      30.007  -3.678  25.871  0.00  0.00    +0.000 C 
ENDROOT
BRANCH   2   3
ATOM      3  O   UNL     1      30.769  -4.640  26.412  0.00  0.00    +0.000 OA
ATOM      4  H   UNL     1      30.560  -5.440  25.890  0.00  0.00    +0.000 HD
ENDBRANCH   2   3
BRANCH   2   6
ATOM      5  O   UNL     1      30.497  -1.998  24.127  0.00  0.00    +0.000 OA
ATOM      6  C   UNL     1      30.845  -2.593  25.127  0.00  0.00    +0.000 C 
BRANCH   6   7
ATOM      7  O   UNL     1      32.030  -2.366  25.711  0.00  0.00    +0.000 OA
ATOM      8  H   UNL     1      32.478  -1.730  25.117  0.00  0.00    +0.000 HD
ENDBRANCH   6   7
ENDBRANCH   2   6
TORSDOF 3
ENDMDL
MODEL 3
REMARK VINA RESULT:      -3.9     12.799     13.799
REMARK  Name = 971_OxalicAcid.pdbqt.pdb
REMARK  3 active torsions:
REMARK  status: ('A' for Active; 'I' for Inactive)
REMARK    1  A    between atoms: C_2  and  O_3
REMARK    2  A    between atoms: C_2  and  C_6
REMARK    3  A    between atoms: C_6  and  O_7
REMARK                            x       y       z     vdW  Elec       q    Type
REMARK                         _______ _______ _______ _____ _____    ______ ____
ROOT
ATOM      1  O   UNL     1      30.623  -2.036  23.178  0.00  0.00    +0.000 OA
ATOM      2  C   UNL     1      30.125  -2.794  23.986  0.00  0.00    +0.000 C 
ENDROOT
BRANCH   2   3
ATOM      3  O   UNL     1      29.098  -3.595  23.668  0.00  0.00    +0.000 OA
ATOM      4  H   UNL     1      28.327  -2.995  23.614  0.00  0.00    +0.000 HD
ENDBRANCH   2   3
BRANCH   2   6
ATOM      5  O   UNL     1      31.013  -3.979  25.965  0.00  0.00    +0.000 OA
ATOM      6  C   UNL     1      30.577  -2.958  25.470  0.00  0.00    +0.000 C 
BRANCH   6   7
ATOM      7  O   UNL     1      30.439  -1.830  26.180  0.00  0.00    +0.000 OA
ATOM      8  H   UNL     1      29.601  -1.949  26.670  0.00  0.00    +0.000 HD
ENDBRANCH   6   7
ENDBRANCH   2   6
TORSDOF 3
ENDMDL
MODEL 4
REMARK VINA RESULT:      -3.8      1.002      1.827
REMARK  Name = 971_OxalicAcid.pdbqt.pdb
REMARK  3 active torsions:
REMARK  status: ('A' for Active; 'I' for Inactive)
REMARK    1  A    between atoms: C_2  and  O_3
REMARK    2  A    between atoms: C_2  and  C_6
REMARK    3  A    between atoms: C_6  and  O_7
REMARK                            x       y       z     vdW  Elec       q    Type
REMARK                         _______ _______ _______ _____ _____    ______ ____
ROOT
ATOM      1  O   UNL     1      36.475   9.836  18.563  0.00  0.00    +0.000 OA
ATOM      2  C   UNL     1      36.125   8.733  18.192  0.00  0.00    +0.000 C 
ENDROOT
BRANCH   2   3
ATOM      3  O   UNL     1      36.945   7.922  17.510  0.00  0.00    +0.000 OA
ATOM      4  H   UNL     1      36.348   7.275  17.081  0.00  0.00    +0.000 HD
ENDBRANCH   2   3
BRANCH   2   6
ATOM      5  O   UNL     1      33.784   8.142  17.664  0.00  0.00    +0.000 OA
ATOM      6  C   UNL     1      34.720   8.101  18.438  0.00  0.00    +0.000 C 
BRANCH   6   7
ATOM      7  O   UNL     1      34.632   7.484  19.625  0.00  0.00    +0.000 OA
ATOM      8  H   UNL     1      35.194   6.689  19.531  0.00  0.00    +0.000 HD
ENDBRANCH   6   7
ENDBRANCH   2   6
TORSDOF 3
ENDMDL
MODEL 5
REMARK VINA RESULT:      -3.7      2.062      2.762
REMARK  Name = 971_OxalicAcid.pdbqt.pdb
REMARK  3 active torsions:
REMARK  status: ('A' for Active; 'I' for Inactive)
REMARK    1  A    between atoms: C_2  and  O_3
REMARK    2  A    between atoms: C_2  and  C_6
REMARK    3  A    between atoms: C_6  and  O_7
REMARK                            x       y       z     vdW  Elec       q    Type
REMARK                         _______ _______ _______ _____ _____    ______ ____
ROOT
ATOM      1  O   UNL     1      35.641  10.346  19.247  0.00  0.00    +0.000 OA
ATOM      2  C   UNL     1      34.497   9.942  19.191  0.00  0.00    +0.000 C 
ENDROOT
BRANCH   2   3
ATOM      3  O   UNL     1      33.452  10.732  19.474  0.00  0.00    +0.000 OA
ATOM      4  H   UNL     1      32.951  10.786  18.636  0.00  0.00    +0.000 HD
ENDBRANCH   2   3
BRANCH   2   6
ATOM      5  O   UNL     1      34.514   7.472  19.279  0.00  0.00    +0.000 OA
ATOM      6  C   UNL     1      34.067   8.495  18.798  0.00  0.00    +0.000 C 
BRANCH   6   7
ATOM      7  O   UNL     1      33.125   8.477  17.844  0.00  0.00    +0.000 OA
ATOM      8  H   UNL     1      32.333   8.857  18.275  0.00  0.00    +0.000 HD
ENDBRANCH   6   7
ENDBRANCH   2   6
TORSDOF 3
ENDMDL
MODEL 6
REMARK VINA RESULT:      -3.5     13.719     14.281
REMARK  Name = 971_OxalicAcid.pdbqt.pdb
REMARK  3 active torsions:
REMARK  status: ('A' for Active; 'I' for Inactive)
REMARK    1  A    between atoms: C_2  and  O_3
REMARK    2  A    between atoms: C_2  and  C_6
REMARK    3  A    between atoms: C_6  and  O_7
REMARK                            x       y       z     vdW  Elec       q    Type
REMARK                         _______ _______ _______ _____ _____    ______ ____
ROOT
ATOM      1  O   UNL     1      27.816  -3.721  12.550  0.00  0.00    +0.000 OA
ATOM      2  C   UNL     1      28.942  -3.577  12.982  0.00  0.00    +0.000 C 
ENDROOT
BRANCH   2   3
ATOM      3  O   UNL     1      29.301  -2.491  13.681  0.00  0.00    +0.000 OA
ATOM      4  H   UNL     1      28.920  -2.636  14.571  0.00  0.00    +0.000 HD
ENDBRANCH   2   3
BRANCH   2   6
ATOM      5  O   UNL     1      30.017  -5.702  12.320  0.00  0.00    +0.000 OA
ATOM      6  C   UNL     1      30.114  -4.591  12.804  0.00  0.00    +0.000 C 
BRANCH   6   7
ATOM      7  O   UNL     1      31.285  -4.112  13.248  0.00  0.00    +0.000 OA
ATOM      8  H   UNL     1      31.713  -3.735  12.454  0.00  0.00    +0.000 HD
ENDBRANCH   6   7
ENDBRANCH   2   6
TORSDOF 3
ENDMDL
MODEL 7
REMARK VINA RESULT:      -3.5      1.818      2.697
REMARK  Name = 971_OxalicAcid.pdbqt.pdb
REMARK  3 active torsions:
REMARK  status: ('A' for Active; 'I' for Inactive)
REMARK    1  A    between atoms: C_2  and  O_3
REMARK    2  A    between atoms: C_2  and  C_6
REMARK    3  A    between atoms: C_6  and  O_7
REMARK                            x       y       z     vdW  Elec       q    Type
REMARK                         _______ _______ _______ _____ _____    ______ ____
ROOT
ATOM      1  O   UNL     1      38.043   8.151  17.885  0.00  0.00    +0.000 OA
ATOM      2  C   UNL     1      37.344   8.549  16.973  0.00  0.00    +0.000 C 
ENDROOT
BRANCH   2   3
ATOM      3  O   UNL     1      37.487   9.777  16.454  0.00  0.00    +0.000 OA
ATOM      4  H   UNL     1      36.586  10.026  16.165  0.00  0.00    +0.000 HD
ENDBRANCH   2   3
BRANCH   2   6
ATOM      5  O   UNL     1      36.311   7.142  15.224  0.00  0.00    +0.000 OA
ATOM      6  C   UNL     1      36.209   7.732  16.282  0.00  0.00    +0.000 C 
BRANCH   6   7
ATOM      7  O   UNL     1      35.067   7.737  16.984  0.00  0.00    +0.000 OA
ATOM      8  H   UNL     1      34.630   6.895  16.746  0.00  0.00    +0.000 HD
ENDBRANCH   6   7
ENDBRANCH   2   6
TORSDOF 3
ENDMDL
MODEL 8
REMARK VINA RESULT:      -3.5     22.523     23.283
REMARK  Name = 971_OxalicAcid.pdbqt.pdb
REMARK  3 active torsions:
REMARK  status: ('A' for Active; 'I' for Inactive)
REMARK    1  A    between atoms: C_2  and  O_3
REMARK    2  A    between atoms: C_2  and  C_6
REMARK    3  A    between atoms: C_6  and  O_7
REMARK                            x       y       z     vdW  Elec       q    Type
REMARK                         _______ _______ _______ _____ _____    ______ ____
ROOT
ATOM      1  O   UNL     1      22.797  22.584   2.263  0.00  0.00    +0.000 OA
ATOM      2  C   UNL     1      23.625  21.784   2.651  0.00  0.00    +0.000 C 
ENDROOT
BRANCH   2   3
ATOM      3  O   UNL     1      24.716  22.167   3.330  0.00  0.00    +0.000 OA
ATOM      4  H   UNL     1      25.450  22.068   2.690  0.00  0.00    +0.000 HD
ENDBRANCH   2   3
BRANCH   2   6
ATOM      5  O   UNL     1      22.784  19.664   1.701  0.00  0.00    +0.000 OA
ATOM      6  C   UNL     1      23.561  20.241   2.436  0.00  0.00    +0.000 C 
BRANCH   6   7
ATOM      7  O   UNL     1      24.475  19.579   3.160  0.00  0.00    +0.000 OA
ATOM      8  H   UNL     1      25.201  20.223   3.285  0.00  0.00    +0.000 HD
ENDBRANCH   6   7
ENDBRANCH   2   6
TORSDOF 3
ENDMDL
MODEL 9
REMARK VINA RESULT:      -3.3      2.424      3.165
REMARK  Name = 971_OxalicAcid.pdbqt.pdb
REMARK  3 active torsions:
REMARK  status: ('A' for Active; 'I' for Inactive)
REMARK    1  A    between atoms: C_2  and  O_3
REMARK    2  A    between atoms: C_2  and  C_6
REMARK    3  A    between atoms: C_6  and  O_7
REMARK                            x       y       z     vdW  Elec       q    Type
REMARK                         _______ _______ _______ _____ _____    ______ ____
ROOT
ATOM      1  O   UNL     1      37.890   9.090  14.477  0.00  0.00    +0.000 OA
ATOM      2  C   UNL     1      37.242   8.466  15.295  0.00  0.00    +0.000 C 
ENDROOT
BRANCH   2   3
ATOM      3  O   UNL     1      36.437   7.456  14.939  0.00  0.00    +0.000 OA
ATOM      4  H   UNL     1      37.029   6.679  14.883  0.00  0.00    +0.000 HD
ENDBRANCH   2   3
BRANCH   2   6
ATOM      5  O   UNL     1      36.898   7.926  17.681  0.00  0.00    +0.000 OA
ATOM      6  C   UNL     1      37.239   8.726  16.833  0.00  0.00    +0.000 C 
BRANCH   6   7
ATOM      7  O   UNL     1      37.663   9.958  17.150  0.00  0.00    +0.000 OA
ATOM      8  H   UNL     1      37.657   9.975  18.128  0.00  0.00    +0.000 HD
ENDBRANCH   6   7
ENDBRANCH   2   6
TORSDOF 3
ENDMDL
