MODEL 1
REMARK VINA RESULT:      -7.7      0.000      0.000
REMARK  Name = 9852185_GambogicAcid.pdbqt.pdb
REMARK  10 active torsions:
REMARK  status: ('A' for Active; 'I' for Inactive)
REMARK    1  A    between atoms: C_8  and  C_30
REMARK    2  A    between atoms: C_20  and  C_38
REMARK    3  A    between atoms: C_21  and  O_28
REMARK    4  A    between atoms: C_25  and  C_43
REMARK    5  A    between atoms: C_31  and  C_32
REMARK    6  A    between atoms: C_32  and  C_35
REMARK    7  A    between atoms: C_35  and  O_36
REMARK    8  A    between atoms: C_39  and  C_40
REMARK    9  A    between atoms: C_43  and  C_44
REMARK   10  A    between atoms: C_45  and  C_46
REMARK                            x       y       z     vdW  Elec       q    Type
REMARK                         _______ _______ _______ _____ _____    ______ ____
ROOT
ATOM      1  O   UNL     1      47.698  -2.369  12.617  0.00  0.00    +0.000 OA
ATOM      2  O   UNL     1      46.564  -4.619  11.222  0.00  0.00    +0.000 OA
ATOM      3  O   UNL     1      45.406  -0.805  14.157  0.00  0.00    +0.000 OA
ATOM      4  O   UNL     1      42.556  -4.570  10.278  0.00  0.00    +0.000 OA
ATOM      5  O   UNL     1      47.319  -8.521   8.616  0.00  0.00    +0.000 OA
ATOM      6  C   UNL     1      45.865  -3.409  11.484  0.00  0.00    +0.000 C 
ATOM      7  C   UNL     1      46.406  -2.201  10.638  0.00  0.00    +0.000 C 
ATOM      8  C   UNL     1      46.334  -2.755  12.844  0.00  0.00    +0.000 C 
ATOM      9  C   UNL     1      47.802  -1.987  11.234  0.00  0.00    +0.000 C 
ATOM     10  C   UNL     1      45.435  -1.116  10.777  0.00  0.00    +0.000 C 
ATOM     11  C   UNL     1      44.520  -1.136  11.906  0.00  0.00    +0.000 C 
ATOM     12  C   UNL     1      44.334  -3.544  11.431  0.00  0.00    +0.000 C 
ATOM     13  C   UNL     1      45.410  -1.473  13.135  0.00  0.00    +0.000 C 
ATOM     14  C   UNL     1      43.693  -2.301  11.722  0.00  0.00    +0.000 C 
ATOM     15  C   UNL     1      48.235  -0.515  11.176  0.00  0.00    +0.000 C 
ATOM     16  C   UNL     1      48.827  -2.881  10.518  0.00  0.00    +0.000 C 
ATOM     17  C   UNL     1      43.745  -4.566  10.568  0.00  0.00    +0.000 C 
ATOM     18  C   UNL     1      46.013  -5.554  10.387  0.00  0.00    +0.000 A 
ATOM     19  C   UNL     1      44.657  -5.584  10.032  0.00  0.00    +0.000 A 
ATOM     20  C   UNL     1      46.889  -6.554   9.911  0.00  0.00    +0.000 A 
ATOM     21  C   UNL     1      44.166  -6.588   9.181  0.00  0.00    +0.000 A 
ATOM     22  C   UNL     1      46.409  -7.561   9.068  0.00  0.00    +0.000 A 
ATOM     23  C   UNL     1      45.038  -7.563   8.705  0.00  0.00    +0.000 A 
ATOM     24  C   UNL     1      44.674  -8.635   7.853  0.00  0.00    +0.000 C 
ATOM     25  C   UNL     1      46.859  -9.657   7.781  0.00  0.00    +0.000 C 
ATOM     26  C   UNL     1      45.435  -9.479   7.494  0.00  0.00    +0.000 C 
ATOM     27  C   UNL     1      47.133 -10.947   8.594  0.00  0.00    +0.000 C 
ENDROOT
BRANCH  21  28
ATOM     28  O   UNL     1      42.854  -6.655   8.794  0.00  0.00    +0.000 OA
ATOM     29  H   UNL     1      42.796  -6.952   7.858  0.00  0.00    +0.000 HD
ENDBRANCH  21  28
BRANCH   8  30
ATOM     30  C   UNL     1      46.275  -3.698  13.970  0.00  0.00    +0.000 C 
ATOM     31  C   UNL     1      46.189  -4.721  15.113  0.00  0.00    +0.000 C 
BRANCH  31  32
ATOM     32  C   UNL     1      46.072  -5.612  16.057  0.00  0.00    +0.000 C 
ATOM     33  C   UNL     1      44.685  -6.211  16.199  0.00  0.00    +0.000 C 
BRANCH  32  35
ATOM     34  O   UNL     1      48.420  -5.823  16.579  0.00  0.00    +0.000 OA
ATOM     35  C   UNL     1      47.249  -5.986  16.887  0.00  0.00    +0.000 C 
BRANCH  35  36
ATOM     36  O   UNL     1      46.935  -6.547  18.074  0.00  0.00    +0.000 OA
ATOM     37  H   UNL     1      46.048  -6.196  18.298  0.00  0.00    +0.000 HD
ENDBRANCH  35  36
ENDBRANCH  32  35
ENDBRANCH  31  32
ENDBRANCH   8  30
BRANCH  20  38
ATOM     38  C   UNL     1      48.272  -6.534  10.291  0.00  0.00    +0.000 C 
ATOM     39  C   UNL     1      49.755  -6.544  10.691  0.00  0.00    +0.000 C 
BRANCH  39  40
ATOM     40  C   UNL     1      51.009  -6.571  11.020  0.00  0.00    +0.000 C 
ATOM     41  C   UNL     1      51.613  -7.853  11.510  0.00  0.00    +0.000 C 
ATOM     42  C   UNL     1      51.891  -5.409  10.682  0.00  0.00    +0.000 C 
ENDBRANCH  39  40
ENDBRANCH  20  38
BRANCH  25  43
ATOM     43  C   UNL     1      47.669  -9.639   6.549  0.00  0.00    +0.000 C 
BRANCH  43  44
ATOM     44  C   UNL     1      48.512  -9.612   5.267  0.00  0.00    +0.000 C 
ATOM     45  C   UNL     1      49.356  -9.583   3.985  0.00  0.00    +0.000 C 
BRANCH  45  46
ATOM     46  C   UNL     1      50.066  -9.552   2.901  0.00  0.00    +0.000 C 
ATOM     47  C   UNL     1      49.785  -8.509   1.863  0.00  0.00    +0.000 C 
ATOM     48  C   UNL     1      51.034 -10.655   2.607  0.00  0.00    +0.000 C 
ENDBRANCH  45  46
ENDBRANCH  43  44
ENDBRANCH  25  43
TORSDOF 10
ENDMDL
MODEL 2
REMARK VINA RESULT:      -6.7     34.792     38.912
REMARK  Name = 9852185_GambogicAcid.pdbqt.pdb
REMARK  10 active torsions:
REMARK  status: ('A' for Active; 'I' for Inactive)
REMARK    1  A    between atoms: C_8  and  C_30
REMARK    2  A    between atoms: C_20  and  C_38
REMARK    3  A    between atoms: C_21  and  O_28
REMARK    4  A    between atoms: C_25  and  C_43
REMARK    5  A    between atoms: C_31  and  C_32
REMARK    6  A    between atoms: C_32  and  C_35
REMARK    7  A    between atoms: C_35  and  O_36
REMARK    8  A    between atoms: C_39  and  C_40
REMARK    9  A    between atoms: C_43  and  C_44
REMARK   10  A    between atoms: C_45  and  C_46
REMARK                            x       y       z     vdW  Elec       q    Type
REMARK                         _______ _______ _______ _____ _____    ______ ____
ROOT
ATOM      1  O   UNL     1      20.362  20.338   0.519  0.00  0.00    +0.000 OA
ATOM      2  O   UNL     1      22.556  22.129  -0.007  0.00  0.00    +0.000 OA
ATOM      3  O   UNL     1      19.003  21.103   3.283  0.00  0.00    +0.000 OA
ATOM      4  O   UNL     1      24.328  24.098   3.145  0.00  0.00    +0.000 OA
ATOM      5  O   UNL     1      25.917  23.576  -3.040  0.00  0.00    +0.000 OA
ATOM      6  C   UNL     1      22.127  21.755   1.295  0.00  0.00    +0.000 C 
ATOM      7  C   UNL     1      22.452  20.256   1.633  0.00  0.00    +0.000 C 
ATOM      8  C   UNL     1      20.568  21.499   1.339  0.00  0.00    +0.000 C 
ATOM      9  C   UNL     1      21.519  19.500   0.680  0.00  0.00    +0.000 C 
ATOM     10  C   UNL     1      22.234  20.087   3.070  0.00  0.00    +0.000 C 
ATOM     11  C   UNL     1      21.395  21.046   3.768  0.00  0.00    +0.000 C 
ATOM     12  C   UNL     1      22.560  22.730   2.403  0.00  0.00    +0.000 C 
ATOM     13  C   UNL     1      20.143  21.215   2.862  0.00  0.00    +0.000 C 
ATOM     14  C   UNL     1      22.083  22.308   3.682  0.00  0.00    +0.000 C 
ATOM     15  C   UNL     1      21.060  18.157   1.266  0.00  0.00    +0.000 C 
ATOM     16  C   UNL     1      22.208  19.289  -0.678  0.00  0.00    +0.000 C 
ATOM     17  C   UNL     1      23.787  23.504   2.222  0.00  0.00    +0.000 C 
ATOM     18  C   UNL     1      23.723  22.827  -0.164  0.00  0.00    +0.000 A 
ATOM     19  C   UNL     1      24.369  23.514   0.873  0.00  0.00    +0.000 A 
ATOM     20  C   UNL     1      24.250  22.868  -1.473  0.00  0.00    +0.000 A 
ATOM     21  C   UNL     1      25.557  24.222   0.627  0.00  0.00    +0.000 A 
ATOM     22  C   UNL     1      25.431  23.575  -1.730  0.00  0.00    +0.000 A 
ATOM     23  C   UNL     1      26.079  24.246  -0.663  0.00  0.00    +0.000 A 
ATOM     24  C   UNL     1      27.258  24.929  -1.051  0.00  0.00    +0.000 C 
ATOM     25  C   UNL     1      27.120  24.366  -3.393  0.00  0.00    +0.000 C 
ATOM     26  C   UNL     1      27.660  24.966  -2.172  0.00  0.00    +0.000 C 
ATOM     27  C   UNL     1      26.666  25.436  -4.417  0.00  0.00    +0.000 C 
ENDROOT
BRANCH  21  28
ATOM     28  O   UNL     1      26.233  24.898   1.608  0.00  0.00    +0.000 OA
ATOM     29  H   UNL     1      26.256  25.859   1.396  0.00  0.00    +0.000 HD
ENDBRANCH  21  28
BRANCH   8  30
ATOM     30  C   UNL     1      19.799  22.626   0.792  0.00  0.00    +0.000 C 
ATOM     31  C   UNL     1      19.038  23.816   0.188  0.00  0.00    +0.000 C 
BRANCH  31  32
ATOM     32  C   UNL     1      18.443  24.851  -0.334  0.00  0.00    +0.000 C 
ATOM     33  C   UNL     1      19.022  26.193   0.074  0.00  0.00    +0.000 C 
BRANCH  32  35
ATOM     34  O   UNL     1      17.321  24.870  -2.472  0.00  0.00    +0.000 OA
ATOM     35  C   UNL     1      17.298  24.667  -1.267  0.00  0.00    +0.000 C 
BRANCH  35  36
ATOM     36  O   UNL     1      16.163  24.237  -0.676  0.00  0.00    +0.000 OA
ATOM     37  H   UNL     1      16.418  24.028   0.247  0.00  0.00    +0.000 HD
ENDBRANCH  35  36
ENDBRANCH  32  35
ENDBRANCH  31  32
ENDBRANCH   8  30
BRANCH  20  38
ATOM     38  C   UNL     1      23.578  22.182  -2.538  0.00  0.00    +0.000 C 
ATOM     39  C   UNL     1      22.831  21.457  -3.667  0.00  0.00    +0.000 C 
BRANCH  39  40
ATOM     40  C   UNL     1      22.183  20.854  -4.614  0.00  0.00    +0.000 C 
ATOM     41  C   UNL     1      21.244  19.738  -4.268  0.00  0.00    +0.000 C 
ATOM     42  C   UNL     1      22.185  21.428  -5.998  0.00  0.00    +0.000 C 
ENDBRANCH  39  40
ENDBRANCH  20  38
BRANCH  25  43
ATOM     43  C   UNL     1      28.081  23.432  -4.011  0.00  0.00    +0.000 C 
BRANCH  43  44
ATOM     44  C   UNL     1      29.081  22.458  -4.646  0.00  0.00    +0.000 C 
ATOM     45  C   UNL     1      30.083  21.484  -5.283  0.00  0.00    +0.000 C 
BRANCH  45  46
ATOM     46  C   UNL     1      30.925  20.662  -5.827  0.00  0.00    +0.000 C 
ATOM     47  C   UNL     1      30.497  19.832  -6.998  0.00  0.00    +0.000 C 
ATOM     48  C   UNL     1      32.253  20.414  -5.182  0.00  0.00    +0.000 C 
ENDBRANCH  45  46
ENDBRANCH  43  44
ENDBRANCH  25  43
TORSDOF 10
ENDMDL
MODEL 3
REMARK VINA RESULT:      -6.5     20.834     24.376
REMARK  Name = 9852185_GambogicAcid.pdbqt.pdb
REMARK  10 active torsions:
REMARK  status: ('A' for Active; 'I' for Inactive)
REMARK    1  A    between atoms: C_8  and  C_30
REMARK    2  A    between atoms: C_20  and  C_38
REMARK    3  A    between atoms: C_21  and  O_28
REMARK    4  A    between atoms: C_25  and  C_43
REMARK    5  A    between atoms: C_31  and  C_32
REMARK    6  A    between atoms: C_32  and  C_35
REMARK    7  A    between atoms: C_35  and  O_36
REMARK    8  A    between atoms: C_39  and  C_40
REMARK    9  A    between atoms: C_43  and  C_44
REMARK   10  A    between atoms: C_45  and  C_46
REMARK                            x       y       z     vdW  Elec       q    Type
REMARK                         _______ _______ _______ _____ _____    ______ ____
ROOT
ATOM      1  O   UNL     1      24.941  -8.010  21.822  0.00  0.00    +0.000 OA
ATOM      2  O   UNL     1      25.584  -6.339  19.565  0.00  0.00    +0.000 OA
ATOM      3  O   UNL     1      27.546  -9.543  22.788  0.00  0.00    +0.000 OA
ATOM      4  O   UNL     1      28.893  -7.245  17.288  0.00  0.00    +0.000 OA
ATOM      5  O   UNL     1      24.127  -3.042  16.468  0.00  0.00    +0.000 OA
ATOM      6  C   UNL     1      26.249  -7.558  19.870  0.00  0.00    +0.000 C 
ATOM      7  C   UNL     1      25.344  -8.819  19.632  0.00  0.00    +0.000 C 
ATOM      8  C   UNL     1      26.308  -7.810  21.430  0.00  0.00    +0.000 C 
ATOM      9  C   UNL     1      24.282  -8.667  20.726  0.00  0.00    +0.000 C 
ATOM     10  C   UNL     1      26.220  -9.990  19.696  0.00  0.00    +0.000 C 
ATOM     11  C   UNL     1      27.502  -9.868  20.368  0.00  0.00    +0.000 C 
ATOM     12  C   UNL     1      27.644  -7.688  19.235  0.00  0.00    +0.000 C 
ATOM     13  C   UNL     1      27.186  -9.127  21.698  0.00  0.00    +0.000 C 
ATOM     14  C   UNL     1      28.265  -8.923  19.594  0.00  0.00    +0.000 C 
ATOM     15  C   UNL     1      23.765 -10.025  21.222  0.00  0.00    +0.000 C 
ATOM     16  C   UNL     1      23.119  -7.800  20.217  0.00  0.00    +0.000 C 
ATOM     17  C   UNL     1      27.915  -6.992  17.978  0.00  0.00    +0.000 C 
ATOM     18  C   UNL     1      25.824  -5.715  18.371  0.00  0.00    +0.000 A 
ATOM     19  C   UNL     1      26.933  -5.984  17.556  0.00  0.00    +0.000 A 
ATOM     20  C   UNL     1      24.899  -4.716  17.995  0.00  0.00    +0.000 A 
ATOM     21  C   UNL     1      27.117  -5.287  16.351  0.00  0.00    +0.000 A 
ATOM     22  C   UNL     1      25.076  -4.013  16.799  0.00  0.00    +0.000 A 
ATOM     23  C   UNL     1      26.194  -4.314  15.980  0.00  0.00    +0.000 A 
ATOM     24  C   UNL     1      26.265  -3.531  14.802  0.00  0.00    +0.000 C 
ATOM     25  C   UNL     1      24.297  -2.210  15.253  0.00  0.00    +0.000 C 
ATOM     26  C   UNL     1      25.481  -2.676  14.530  0.00  0.00    +0.000 C 
ATOM     27  C   UNL     1      24.446  -0.745  15.733  0.00  0.00    +0.000 C 
ENDROOT
BRANCH  21  28
ATOM     28  O   UNL     1      28.176  -5.522  15.513  0.00  0.00    +0.000 OA
ATOM     29  H   UNL     1      28.709  -4.701  15.412  0.00  0.00    +0.000 HD
ENDBRANCH  21  28
BRANCH   8  30
ATOM     30  C   UNL     1      26.863  -6.662  22.162  0.00  0.00    +0.000 C 
ATOM     31  C   UNL     1      27.444  -5.494  22.973  0.00  0.00    +0.000 C 
BRANCH  31  32
ATOM     32  C   UNL     1      27.914  -4.526  23.708  0.00  0.00    +0.000 C 
ATOM     33  C   UNL     1      29.304  -4.052  23.324  0.00  0.00    +0.000 C 
BRANCH  32  35
ATOM     34  O   UNL     1      25.894  -4.113  24.965  0.00  0.00    +0.000 OA
ATOM     35  C   UNL     1      27.097  -3.957  24.814  0.00  0.00    +0.000 C 
BRANCH  35  36
ATOM     36  O   UNL     1      27.798  -3.215  25.697  0.00  0.00    +0.000 OA
ATOM     37  H   UNL     1      27.215  -2.456  25.914  0.00  0.00    +0.000 HD
ENDBRANCH  35  36
ENDBRANCH  32  35
ENDBRANCH  31  32
ENDBRANCH   8  30
BRANCH  20  38
ATOM     38  C   UNL     1      23.776  -4.427  18.839  0.00  0.00    +0.000 C 
ATOM     39  C   UNL     1      22.577  -4.145  19.756  0.00  0.00    +0.000 C 
BRANCH  39  40
ATOM     40  C   UNL     1      21.571  -3.923  20.543  0.00  0.00    +0.000 C 
ATOM     41  C   UNL     1      21.822  -3.603  21.986  0.00  0.00    +0.000 C 
ATOM     42  C   UNL     1      20.200  -3.744  19.965  0.00  0.00    +0.000 C 
ENDBRANCH  39  40
ENDBRANCH  20  38
BRANCH  25  43
ATOM     43  C   UNL     1      23.070  -2.370  14.449  0.00  0.00    +0.000 C 
BRANCH  43  44
ATOM     44  C   UNL     1      21.795  -2.543  13.615  0.00  0.00    +0.000 C 
ATOM     45  C   UNL     1      20.517  -2.719  12.781  0.00  0.00    +0.000 C 
BRANCH  45  46
ATOM     46  C   UNL     1      19.443  -2.872  12.072  0.00  0.00    +0.000 C 
ATOM     47  C   UNL     1      18.506  -1.717  11.891  0.00  0.00    +0.000 C 
ATOM     48  C   UNL     1      19.051  -4.233  11.589  0.00  0.00    +0.000 C 
ENDBRANCH  45  46
ENDBRANCH  43  44
ENDBRANCH  25  43
TORSDOF 10
ENDMDL
MODEL 4
REMARK VINA RESULT:      -6.4     30.838     35.511
REMARK  Name = 9852185_GambogicAcid.pdbqt.pdb
REMARK  10 active torsions:
REMARK  status: ('A' for Active; 'I' for Inactive)
REMARK    1  A    between atoms: C_8  and  C_30
REMARK    2  A    between atoms: C_20  and  C_38
REMARK    3  A    between atoms: C_21  and  O_28
REMARK    4  A    between atoms: C_25  and  C_43
REMARK    5  A    between atoms: C_31  and  C_32
REMARK    6  A    between atoms: C_32  and  C_35
REMARK    7  A    between atoms: C_35  and  O_36
REMARK    8  A    between atoms: C_39  and  C_40
REMARK    9  A    between atoms: C_43  and  C_44
REMARK   10  A    between atoms: C_45  and  C_46
REMARK                            x       y       z     vdW  Elec       q    Type
REMARK                         _______ _______ _______ _____ _____    ______ ____
ROOT
ATOM      1  O   UNL     1      14.126  -2.261  20.061  0.00  0.00    +0.000 OA
ATOM      2  O   UNL     1      15.514  -1.080  22.290  0.00  0.00    +0.000 OA
ATOM      3  O   UNL     1      15.880  -4.605  18.835  0.00  0.00    +0.000 OA
ATOM      4  O   UNL     1      19.606  -1.477  22.533  0.00  0.00    +0.000 OA
ATOM      5  O   UNL     1      15.416   2.015  25.896  0.00  0.00    +0.000 OA
ATOM      6  C   UNL     1      16.161  -1.673  21.173  0.00  0.00    +0.000 C 
ATOM      7  C   UNL     1      16.001  -0.827  19.859  0.00  0.00    +0.000 C 
ATOM      8  C   UNL     1      15.315  -2.872  20.585  0.00  0.00    +0.000 C 
ATOM      9  C   UNL     1      14.503  -0.965  19.566  0.00  0.00    +0.000 C 
ATOM     10  C   UNL     1      16.937  -1.380  18.880  0.00  0.00    +0.000 C 
ATOM     11  C   UNL     1      17.431  -2.733  19.070  0.00  0.00    +0.000 C 
ATOM     12  C   UNL     1      17.615  -2.100  21.441  0.00  0.00    +0.000 C 
ATOM     13  C   UNL     1      16.169  -3.573  19.419  0.00  0.00    +0.000 C 
ATOM     14  C   UNL     1      18.200  -2.705  20.287  0.00  0.00    +0.000 C 
ATOM     15  C   UNL     1      14.203  -0.922  18.060  0.00  0.00    +0.000 C 
ATOM     16  C   UNL     1      13.716   0.129  20.304  0.00  0.00    +0.000 C 
ATOM     17  C   UNL     1      18.390  -1.371  22.443  0.00  0.00    +0.000 C 
ATOM     18  C   UNL     1      16.249  -0.373  23.204  0.00  0.00    +0.000 A 
ATOM     19  C   UNL     1      17.642  -0.469  23.330  0.00  0.00    +0.000 A 
ATOM     20  C   UNL     1      15.517   0.457  24.081  0.00  0.00    +0.000 A 
ATOM     21  C   UNL     1      18.323   0.278  24.306  0.00  0.00    +0.000 A 
ATOM     22  C   UNL     1      16.185   1.201  25.060  0.00  0.00    +0.000 A 
ATOM     23  C   UNL     1      17.596   1.104  25.158  0.00  0.00    +0.000 A 
ATOM     24  C   UNL     1      18.152   1.900  26.190  0.00  0.00    +0.000 C 
ATOM     25  C   UNL     1      16.053   2.771  27.000  0.00  0.00    +0.000 C 
ATOM     26  C   UNL     1      17.501   2.568  26.931  0.00  0.00    +0.000 C 
ATOM     27  C   UNL     1      15.450   2.225  28.319  0.00  0.00    +0.000 C 
ENDROOT
BRANCH  21  28
ATOM     28  O   UNL     1      19.682   0.230  24.461  0.00  0.00    +0.000 OA
ATOM     29  H   UNL     1      19.907   0.162  25.417  0.00  0.00    +0.000 HD
ENDBRANCH  21  28
BRANCH   8  30
ATOM     30  C   UNL     1      14.945  -3.855  21.614  0.00  0.00    +0.000 C 
ATOM     31  C   UNL     1      14.532  -4.843  22.715  0.00  0.00    +0.000 C 
BRANCH  31  32
ATOM     32  C   UNL     1      14.175  -5.637  23.685  0.00  0.00    +0.000 C 
ATOM     33  C   UNL     1      13.344  -6.832  23.257  0.00  0.00    +0.000 C 
BRANCH  32  35
ATOM     34  O   UNL     1      14.022  -5.729  26.093  0.00  0.00    +0.000 OA
ATOM     35  C   UNL     1      14.597  -5.351  25.083  0.00  0.00    +0.000 C 
BRANCH  35  36
ATOM     36  O   UNL     1      15.719  -4.607  25.184  0.00  0.00    +0.000 OA
ATOM     37  H   UNL     1      15.562  -4.008  25.944  0.00  0.00    +0.000 HD
ENDBRANCH  35  36
ENDBRANCH  32  35
ENDBRANCH  31  32
ENDBRANCH   8  30
BRANCH  20  38
ATOM     38  C   UNL     1      14.090   0.539  23.965  0.00  0.00    +0.000 C 
ATOM     39  C   UNL     1      12.565   0.634  23.810  0.00  0.00    +0.000 C 
BRANCH  39  40
ATOM     40  C   UNL     1      11.280   0.715  23.659  0.00  0.00    +0.000 C 
ATOM     41  C   UNL     1      10.379   0.099  24.687  0.00  0.00    +0.000 C 
ATOM     42  C   UNL     1      10.710   1.619  22.610  0.00  0.00    +0.000 C 
ENDBRANCH  39  40
ENDBRANCH  20  38
BRANCH  25  43
ATOM     43  C   UNL     1      15.692   4.189  26.814  0.00  0.00    +0.000 C 
BRANCH  43  44
ATOM     44  C   UNL     1      15.310   5.662  26.623  0.00  0.00    +0.000 C 
ATOM     45  C   UNL     1      14.928   7.137  26.429  0.00  0.00    +0.000 C 
BRANCH  45  46
ATOM     46  C   UNL     1      14.613   8.384  26.266  0.00  0.00    +0.000 C 
ATOM     47  C   UNL     1      15.047   9.100  25.024  0.00  0.00    +0.000 C 
ATOM     48  C   UNL     1      13.980   9.149  27.386  0.00  0.00    +0.000 C 
ENDBRANCH  45  46
ENDBRANCH  43  44
ENDBRANCH  25  43
TORSDOF 10
ENDMDL
MODEL 5
REMARK VINA RESULT:      -6.2     37.030     41.591
REMARK  Name = 9852185_GambogicAcid.pdbqt.pdb
REMARK  10 active torsions:
REMARK  status: ('A' for Active; 'I' for Inactive)
REMARK    1  A    between atoms: C_8  and  C_30
REMARK    2  A    between atoms: C_20  and  C_38
REMARK    3  A    between atoms: C_21  and  O_28
REMARK    4  A    between atoms: C_25  and  C_43
REMARK    5  A    between atoms: C_31  and  C_32
REMARK    6  A    between atoms: C_32  and  C_35
REMARK    7  A    between atoms: C_35  and  O_36
REMARK    8  A    between atoms: C_39  and  C_40
REMARK    9  A    between atoms: C_43  and  C_44
REMARK   10  A    between atoms: C_45  and  C_46
REMARK                            x       y       z     vdW  Elec       q    Type
REMARK                         _______ _______ _______ _____ _____    ______ ____
ROOT
ATOM      1  O   UNL     1      22.635  11.047  38.308  0.00  0.00    +0.000 OA
ATOM      2  O   UNL     1      21.839  12.594  36.013  0.00  0.00    +0.000 OA
ATOM      3  O   UNL     1      25.327   9.494  37.663  0.00  0.00    +0.000 OA
ATOM      4  O   UNL     1      23.217  11.500  32.290  0.00  0.00    +0.000 OA
ATOM      5  O   UNL     1      18.834  15.780  34.167  0.00  0.00    +0.000 OA
ATOM      6  C   UNL     1      22.565  11.375  35.939  0.00  0.00    +0.000 C 
ATOM      7  C   UNL     1      21.697  10.127  36.336  0.00  0.00    +0.000 C 
ATOM      8  C   UNL     1      23.520  11.194  37.186  0.00  0.00    +0.000 C 
ATOM      9  C   UNL     1      21.466  10.357  37.834  0.00  0.00    +0.000 C 
ATOM     10  C   UNL     1      22.455   8.939  35.942  0.00  0.00    +0.000 C 
ATOM     11  C   UNL     1      23.889   9.059  35.738  0.00  0.00    +0.000 C 
ATOM     12  C   UNL     1      23.333  11.179  34.620  0.00  0.00    +0.000 C 
ATOM     13  C   UNL     1      24.399   9.868  36.964  0.00  0.00    +0.000 C 
ATOM     14  C   UNL     1      24.055   9.947  34.617  0.00  0.00    +0.000 C 
ATOM     15  C   UNL     1      21.343   9.037  38.608  0.00  0.00    +0.000 C 
ATOM     16  C   UNL     1      20.219  11.228  38.049  0.00  0.00    +0.000 C 
ATOM     17  C   UNL     1      22.819  11.809  33.405  0.00  0.00    +0.000 C 
ATOM     18  C   UNL     1      21.337  13.156  34.870  0.00  0.00    +0.000 A 
ATOM     19  C   UNL     1      21.769  12.821  33.579  0.00  0.00    +0.000 A 
ATOM     20  C   UNL     1      20.360  14.159  35.049  0.00  0.00    +0.000 A 
ATOM     21  C   UNL     1      21.214  13.457  32.455  0.00  0.00    +0.000 A 
ATOM     22  C   UNL     1      19.805  14.802  33.937  0.00  0.00    +0.000 A 
ATOM     23  C   UNL     1      20.241  14.435  32.639  0.00  0.00    +0.000 A 
ATOM     24  C   UNL     1      19.610  15.160  31.598  0.00  0.00    +0.000 C 
ATOM     25  C   UNL     1      18.261  16.550  33.037  0.00  0.00    +0.000 C 
ATOM     26  C   UNL     1      18.808  16.022  31.787  0.00  0.00    +0.000 C 
ATOM     27  C   UNL     1      18.652  18.032  33.264  0.00  0.00    +0.000 C 
ENDROOT
BRANCH  21  28
ATOM     28  O   UNL     1      21.591  13.157  31.173  0.00  0.00    +0.000 OA
ATOM     29  H   UNL     1      20.880  12.645  30.727  0.00  0.00    +0.000 HD
ENDBRANCH  21  28
BRANCH   8  30
ATOM     30  C   UNL     1      24.389  12.359  37.399  0.00  0.00    +0.000 C 
ATOM     31  C   UNL     1      25.279  13.582  37.673  0.00  0.00    +0.000 C 
BRANCH  31  32
ATOM     32  C   UNL     1      25.996  14.635  37.945  0.00  0.00    +0.000 C 
ATOM     33  C   UNL     1      27.112  14.405  38.948  0.00  0.00    +0.000 C 
BRANCH  32  35
ATOM     34  O   UNL     1      25.602  17.015  37.838  0.00  0.00    +0.000 OA
ATOM     35  C   UNL     1      25.707  15.933  37.279  0.00  0.00    +0.000 C 
BRANCH  35  36
ATOM     36  O   UNL     1      25.558  15.849  35.940  0.00  0.00    +0.000 OA
ATOM     37  H   UNL     1      25.210  16.724  35.665  0.00  0.00    +0.000 HD
ENDBRANCH  35  36
ENDBRANCH  32  35
ENDBRANCH  31  32
ENDBRANCH   8  30
BRANCH  20  38
ATOM     38  C   UNL     1      19.933  14.516  36.371  0.00  0.00    +0.000 C 
ATOM     39  C   UNL     1      19.466  14.868  37.791  0.00  0.00    +0.000 C 
BRANCH  39  40
ATOM     40  C   UNL     1      19.070  15.145  38.994  0.00  0.00    +0.000 C 
ATOM     41  C   UNL     1      18.805  16.572  39.370  0.00  0.00    +0.000 C 
ATOM     42  C   UNL     1      18.648  14.038  39.911  0.00  0.00    +0.000 C 
ENDBRANCH  39  40
ENDBRANCH  20  38
BRANCH  25  43
ATOM     43  C   UNL     1      16.797  16.385  33.103  0.00  0.00    +0.000 C 
BRANCH  43  44
ATOM     44  C   UNL     1      15.275  16.206  33.175  0.00  0.00    +0.000 C 
ATOM     45  C   UNL     1      13.752  16.026  33.249  0.00  0.00    +0.000 C 
BRANCH  45  46
ATOM     46  C   UNL     1      12.467  15.866  33.312  0.00  0.00    +0.000 C 
ATOM     47  C   UNL     1      11.564  17.037  33.073  0.00  0.00    +0.000 C 
ATOM     48  C   UNL     1      11.896  14.569  33.794  0.00  0.00    +0.000 C 
ENDBRANCH  45  46
ENDBRANCH  43  44
ENDBRANCH  25  43
TORSDOF 10
ENDMDL
MODEL 6
REMARK VINA RESULT:      -6.2     20.154     23.555
REMARK  Name = 9852185_GambogicAcid.pdbqt.pdb
REMARK  10 active torsions:
REMARK  status: ('A' for Active; 'I' for Inactive)
REMARK    1  A    between atoms: C_8  and  C_30
REMARK    2  A    between atoms: C_20  and  C_38
REMARK    3  A    between atoms: C_21  and  O_28
REMARK    4  A    between atoms: C_25  and  C_43
REMARK    5  A    between atoms: C_31  and  C_32
REMARK    6  A    between atoms: C_32  and  C_35
REMARK    7  A    between atoms: C_35  and  O_36
REMARK    8  A    between atoms: C_39  and  C_40
REMARK    9  A    between atoms: C_43  and  C_44
REMARK   10  A    between atoms: C_45  and  C_46
REMARK                            x       y       z     vdW  Elec       q    Type
REMARK                         _______ _______ _______ _____ _____    ______ ____
ROOT
ATOM      1  O   UNL     1      28.085  -6.350  13.698  0.00  0.00    +0.000 OA
ATOM      2  O   UNL     1      25.372  -5.385  13.717  0.00  0.00    +0.000 OA
ATOM      3  O   UNL     1      29.951  -4.311  15.259  0.00  0.00    +0.000 OA
ATOM      4  O   UNL     1      24.684  -1.366  14.293  0.00  0.00    +0.000 OA
ATOM      5  O   UNL     1      20.816  -6.198  12.635  0.00  0.00    +0.000 OA
ATOM      6  C   UNL     1      26.516  -4.544  13.746  0.00  0.00    +0.000 C 
ATOM      7  C   UNL     1      27.301  -4.541  12.385  0.00  0.00    +0.000 C 
ATOM      8  C   UNL     1      27.717  -5.227  14.515  0.00  0.00    +0.000 C 
ATOM      9  C   UNL     1      27.861  -5.966  12.331  0.00  0.00    +0.000 C 
ATOM     10  C   UNL     1      28.260  -3.437  12.449  0.00  0.00    +0.000 C 
ATOM     11  C   UNL     1      28.636  -2.912  13.750  0.00  0.00    +0.000 C 
ATOM     12  C   UNL     1      26.244  -3.130  14.287  0.00  0.00    +0.000 C 
ATOM     13  C   UNL     1      28.920  -4.168  14.621  0.00  0.00    +0.000 C 
ATOM     14  C   UNL     1      27.436  -2.343  14.307  0.00  0.00    +0.000 C 
ATOM     15  C   UNL     1      29.204  -6.031  11.589  0.00  0.00    +0.000 C 
ATOM     16  C   UNL     1      26.840  -6.913  11.681  0.00  0.00    +0.000 C 
ATOM     17  C   UNL     1      24.909  -2.557  14.124  0.00  0.00    +0.000 C 
ATOM     18  C   UNL     1      24.131  -4.837  13.533  0.00  0.00    +0.000 A 
ATOM     19  C   UNL     1      23.841  -3.478  13.714  0.00  0.00    +0.000 A 
ATOM     20  C   UNL     1      23.101  -5.737  13.182  0.00  0.00    +0.000 A 
ATOM     21  C   UNL     1      22.536  -2.995  13.520  0.00  0.00    +0.000 A 
ATOM     22  C   UNL     1      21.797  -5.268  12.992  0.00  0.00    +0.000 A 
ATOM     23  C   UNL     1      21.529  -3.886  13.161  0.00  0.00    +0.000 A 
ATOM     24  C   UNL     1      20.172  -3.538  12.947  0.00  0.00    +0.000 C 
ATOM     25  C   UNL     1      19.401  -5.779  12.492  0.00  0.00    +0.000 C 
ATOM     26  C   UNL     1      19.322  -4.329  12.679  0.00  0.00    +0.000 C 
ATOM     27  C   UNL     1      18.597  -6.550  13.568  0.00  0.00    +0.000 C 
ENDROOT
BRANCH  21  28
ATOM     28  O   UNL     1      22.203  -1.676  13.672  0.00  0.00    +0.000 OA
ATOM     29  H   UNL     1      21.249  -1.595  13.894  0.00  0.00    +0.000 HD
ENDBRANCH  21  28
BRANCH   8  30
ATOM     30  C   UNL     1      27.329  -5.702  15.851  0.00  0.00    +0.000 C 
ATOM     31  C   UNL     1      26.972  -6.179  17.267  0.00  0.00    +0.000 C 
BRANCH  31  32
ATOM     32  C   UNL     1      26.724  -6.586  18.479  0.00  0.00    +0.000 C 
ATOM     33  C   UNL     1      25.254  -6.605  18.857  0.00  0.00    +0.000 C 
BRANCH  32  35
ATOM     34  O   UNL     1      27.722  -7.668  20.393  0.00  0.00    +0.000 OA
ATOM     35  C   UNL     1      27.837  -7.004  19.373  0.00  0.00    +0.000 C 
BRANCH  35  36
ATOM     36  O   UNL     1      29.057  -6.588  18.973  0.00  0.00    +0.000 OA
ATOM     37  H   UNL     1      29.237  -7.080  18.144  0.00  0.00    +0.000 HD
ENDBRANCH  35  36
ENDBRANCH  32  35
ENDBRANCH  31  32
ENDBRANCH   8  30
BRANCH  20  38
ATOM     38  C   UNL     1      23.393  -7.132  13.016  0.00  0.00    +0.000 C 
ATOM     39  C   UNL     1      23.706  -8.628  12.870  0.00  0.00    +0.000 C 
BRANCH  39  40
ATOM     40  C   UNL     1      23.964  -9.895  12.767  0.00  0.00    +0.000 C 
ATOM     41  C   UNL     1      23.179 -10.728  11.800  0.00  0.00    +0.000 C 
ATOM     42  C   UNL     1      25.189 -10.459  13.420  0.00  0.00    +0.000 C 
ENDBRANCH  39  40
ENDBRANCH  20  38
BRANCH  25  43
ATOM     43  C   UNL     1      18.970  -6.177  11.138  0.00  0.00    +0.000 C 
BRANCH  43  44
ATOM     44  C   UNL     1      18.516  -6.585   9.731  0.00  0.00    +0.000 C 
ATOM     45  C   UNL     1      18.061  -6.995   8.323  0.00  0.00    +0.000 C 
BRANCH  45  46
ATOM     46  C   UNL     1      17.684  -7.346   7.133  0.00  0.00    +0.000 C 
ATOM     47  C   UNL     1      18.212  -8.612   6.533  0.00  0.00    +0.000 C 
ATOM     48  C   UNL     1      16.871  -6.406   6.298  0.00  0.00    +0.000 C 
ENDBRANCH  45  46
ENDBRANCH  43  44
ENDBRANCH  25  43
TORSDOF 10
ENDMDL
MODEL 7
REMARK VINA RESULT:      -6.2     35.690     40.464
REMARK  Name = 9852185_GambogicAcid.pdbqt.pdb
REMARK  10 active torsions:
REMARK  status: ('A' for Active; 'I' for Inactive)
REMARK    1  A    between atoms: C_8  and  C_30
REMARK    2  A    between atoms: C_20  and  C_38
REMARK    3  A    between atoms: C_21  and  O_28
REMARK    4  A    between atoms: C_25  and  C_43
REMARK    5  A    between atoms: C_31  and  C_32
REMARK    6  A    between atoms: C_32  and  C_35
REMARK    7  A    between atoms: C_35  and  O_36
REMARK    8  A    between atoms: C_39  and  C_40
REMARK    9  A    between atoms: C_43  and  C_44
REMARK   10  A    between atoms: C_45  and  C_46
REMARK                            x       y       z     vdW  Elec       q    Type
REMARK                         _______ _______ _______ _____ _____    ______ ____
ROOT
ATOM      1  O   UNL     1      12.814  -0.166  27.092  0.00  0.00    +0.000 OA
ATOM      2  O   UNL     1      13.306   2.610  27.683  0.00  0.00    +0.000 OA
ATOM      3  O   UNL     1      15.239  -1.343  25.415  0.00  0.00    +0.000 OA
ATOM      4  O   UNL     1      15.906   4.730  25.297  0.00  0.00    +0.000 OA
ATOM      5  O   UNL     1      11.900   6.537  29.960  0.00  0.00    +0.000 OA
ATOM      6  C   UNL     1      13.788   1.945  26.523  0.00  0.00    +0.000 C 
ATOM      7  C   UNL     1      12.643   1.588  25.508  0.00  0.00    +0.000 C 
ATOM      8  C   UNL     1      14.096   0.422  26.816  0.00  0.00    +0.000 C 
ATOM      9  C   UNL     1      11.852   0.522  26.273  0.00  0.00    +0.000 C 
ATOM     10  C   UNL     1      13.292   1.186  24.260  0.00  0.00    +0.000 C 
ATOM     11  C   UNL     1      14.679   0.756  24.299  0.00  0.00    +0.000 C 
ATOM     12  C   UNL     1      14.991   2.635  25.857  0.00  0.00    +0.000 C 
ATOM     13  C   UNL     1      14.759  -0.224  25.504  0.00  0.00    +0.000 C 
ATOM     14  C   UNL     1      15.438   1.908  24.712  0.00  0.00    +0.000 C 
ATOM     15  C   UNL     1      11.205  -0.504  25.331  0.00  0.00    +0.000 C 
ATOM     16  C   UNL     1      10.788   1.186  27.161  0.00  0.00    +0.000 C 
ATOM     17  C   UNL     1      15.137   4.083  25.995  0.00  0.00    +0.000 C 
ATOM     18  C   UNL     1      13.422   3.970  27.784  0.00  0.00    +0.000 A 
ATOM     19  C   UNL     1      14.290   4.741  26.997  0.00  0.00    +0.000 A 
ATOM     20  C   UNL     1      12.636   4.588  28.781  0.00  0.00    +0.000 A 
ATOM     21  C   UNL     1      14.364   6.133  27.173  0.00  0.00    +0.000 A 
ATOM     22  C   UNL     1      12.706   5.973  28.967  0.00  0.00    +0.000 A 
ATOM     23  C   UNL     1      13.576   6.737  28.149  0.00  0.00    +0.000 A 
ATOM     24  C   UNL     1      13.561   8.124  28.439  0.00  0.00    +0.000 C 
ATOM     25  C   UNL     1      11.982   7.987  30.259  0.00  0.00    +0.000 C 
ATOM     26  C   UNL     1      12.905   8.609  29.308  0.00  0.00    +0.000 C 
ATOM     27  C   UNL     1      12.479   8.113  31.721  0.00  0.00    +0.000 C 
ENDROOT
BRANCH  21  28
ATOM     28  O   UNL     1      15.185   6.932  26.423  0.00  0.00    +0.000 OA
ATOM     29  H   UNL     1      16.050   7.043  26.878  0.00  0.00    +0.000 HD
ENDBRANCH  21  28
BRANCH   8  30
ATOM     30  C   UNL     1      14.975   0.241  27.980  0.00  0.00    +0.000 C 
ATOM     31  C   UNL     1      15.854   0.028  29.222  0.00  0.00    +0.000 C 
BRANCH  31  32
ATOM     32  C   UNL     1      16.551  -0.154  30.308  0.00  0.00    +0.000 C 
ATOM     33  C   UNL     1      16.090  -1.311  31.175  0.00  0.00    +0.000 C 
BRANCH  32  35
ATOM     34  O   UNL     1      18.643   0.963  29.857  0.00  0.00    +0.000 OA
ATOM     35  C   UNL     1      17.712   0.726  30.611  0.00  0.00    +0.000 C 
BRANCH  35  36
ATOM     36  O   UNL     1      17.680   1.283  31.840  0.00  0.00    +0.000 OA
ATOM     37  H   UNL     1      18.619   1.409  32.090  0.00  0.00    +0.000 HD
ENDBRANCH  35  36
ENDBRANCH  32  35
ENDBRANCH  31  32
ENDBRANCH   8  30
BRANCH  20  38
ATOM     38  C   UNL     1      11.764   3.797  29.598  0.00  0.00    +0.000 C 
ATOM     39  C   UNL     1      10.825   2.929  30.450  0.00  0.00    +0.000 C 
BRANCH  39  40
ATOM     40  C   UNL     1      10.033   2.182  31.154  0.00  0.00    +0.000 C 
ATOM     41  C   UNL     1       9.198   1.144  30.467  0.00  0.00    +0.000 C 
ATOM     42  C   UNL     1      10.138   2.190  32.648  0.00  0.00    +0.000 C 
ENDBRANCH  39  40
ENDBRANCH  20  38
BRANCH  25  43
ATOM     43  C   UNL     1      10.617   8.531  30.127  0.00  0.00    +0.000 C 
BRANCH  43  44
ATOM     44  C   UNL     1       9.196   9.090  29.984  0.00  0.00    +0.000 C 
ATOM     45  C   UNL     1       7.773   9.648  29.841  0.00  0.00    +0.000 C 
BRANCH  45  46
ATOM     46  C   UNL     1       6.571  10.117  29.713  0.00  0.00    +0.000 C 
ATOM     47  C   UNL     1       5.723  10.321  30.931  0.00  0.00    +0.000 C 
ATOM     48  C   UNL     1       5.973  10.283  28.351  0.00  0.00    +0.000 C 
ENDBRANCH  45  46
ENDBRANCH  43  44
ENDBRANCH  25  43
TORSDOF 10
ENDMDL
MODEL 8
REMARK VINA RESULT:      -6.1     36.923     41.103
REMARK  Name = 9852185_GambogicAcid.pdbqt.pdb
REMARK  10 active torsions:
REMARK  status: ('A' for Active; 'I' for Inactive)
REMARK    1  A    between atoms: C_8  and  C_30
REMARK    2  A    between atoms: C_20  and  C_38
REMARK    3  A    between atoms: C_21  and  O_28
REMARK    4  A    between atoms: C_25  and  C_43
REMARK    5  A    between atoms: C_31  and  C_32
REMARK    6  A    between atoms: C_32  and  C_35
REMARK    7  A    between atoms: C_35  and  O_36
REMARK    8  A    between atoms: C_39  and  C_40
REMARK    9  A    between atoms: C_43  and  C_44
REMARK   10  A    between atoms: C_45  and  C_46
REMARK                            x       y       z     vdW  Elec       q    Type
REMARK                         _______ _______ _______ _____ _____    ______ ____
ROOT
ATOM      1  O   UNL     1      21.247  14.576  37.738  0.00  0.00    +0.000 OA
ATOM      2  O   UNL     1      21.863  15.468  35.070  0.00  0.00    +0.000 OA
ATOM      3  O   UNL     1      19.357  12.030  37.600  0.00  0.00    +0.000 OA
ATOM      4  O   UNL     1      19.330  14.448  31.988  0.00  0.00    +0.000 OA
ATOM      5  O   UNL     1      24.336  18.435  32.301  0.00  0.00    +0.000 OA
ATOM      6  C   UNL     1      20.654  14.816  35.433  0.00  0.00    +0.000 C 
ATOM      7  C   UNL     1      19.724  15.715  36.325  0.00  0.00    +0.000 C 
ATOM      8  C   UNL     1      20.885  13.777  36.601  0.00  0.00    +0.000 C 
ATOM      9  C   UNL     1      20.524  15.814  37.628  0.00  0.00    +0.000 C 
ATOM     10  C   UNL     1      18.419  15.055  36.378  0.00  0.00    +0.000 C 
ATOM     11  C   UNL     1      18.338  13.637  36.069  0.00  0.00    +0.000 C 
ATOM     12  C   UNL     1      19.911  14.166  34.252  0.00  0.00    +0.000 C 
ATOM     13  C   UNL     1      19.510  12.989  36.861  0.00  0.00    +0.000 C 
ATOM     14  C   UNL     1      18.717  13.513  34.686  0.00  0.00    +0.000 C 
ATOM     15  C   UNL     1      19.611  15.946  38.856  0.00  0.00    +0.000 C 
ATOM     16  C   UNL     1      21.507  16.993  37.557  0.00  0.00    +0.000 C 
ATOM     17  C   UNL     1      20.071  14.740  32.917  0.00  0.00    +0.000 C 
ATOM     18  C   UNL     1      21.986  16.028  33.827  0.00  0.00    +0.000 A 
ATOM     19  C   UNL     1      21.153  15.718  32.743  0.00  0.00    +0.000 A 
ATOM     20  C   UNL     1      23.057  16.933  33.657  0.00  0.00    +0.000 A 
ATOM     21  C   UNL     1      21.355  16.325  31.492  0.00  0.00    +0.000 A 
ATOM     22  C   UNL     1      23.270  17.539  32.414  0.00  0.00    +0.000 A 
ATOM     23  C   UNL     1      22.404  17.227  31.336  0.00  0.00    +0.000 A 
ATOM     24  C   UNL     1      22.727  17.898  30.131  0.00  0.00    +0.000 C 
ATOM     25  C   UNL     1      24.662  19.054  30.994  0.00  0.00    +0.000 C 
ATOM     26  C   UNL     1      23.656  18.636  30.016  0.00  0.00    +0.000 C 
ATOM     27  C   UNL     1      26.082  18.567  30.613  0.00  0.00    +0.000 C 
ENDROOT
BRANCH  21  28
ATOM     28  O   UNL     1      20.562  16.066  30.406  0.00  0.00    +0.000 OA
ATOM     29  H   UNL     1      20.630  16.804  29.760  0.00  0.00    +0.000 HD
ENDBRANCH  21  28
BRANCH   8  30
ATOM     30  C   UNL     1      21.971  12.832  36.304  0.00  0.00    +0.000 C 
ATOM     31  C   UNL     1      23.126  11.880  35.957  0.00  0.00    +0.000 C 
BRANCH  31  32
ATOM     32  C   UNL     1      24.108  11.096  35.610  0.00  0.00    +0.000 C 
ATOM     33  C   UNL     1      24.299   9.883  36.502  0.00  0.00    +0.000 C 
BRANCH  32  35
ATOM     34  O   UNL     1      24.696  11.049  33.269  0.00  0.00    +0.000 OA
ATOM     35  C   UNL     1      24.932  11.410  34.412  0.00  0.00    +0.000 C 
BRANCH  35  36
ATOM     36  O   UNL     1      26.023  12.162  34.670  0.00  0.00    +0.000 OA
ATOM     37  H   UNL     1      26.305  11.904  35.573  0.00  0.00    +0.000 HD
ENDBRANCH  35  36
ENDBRANCH  32  35
ENDBRANCH  31  32
ENDBRANCH   8  30
BRANCH  20  38
ATOM     38  C   UNL     1      23.922  17.235  34.761  0.00  0.00    +0.000 C 
ATOM     39  C   UNL     1      24.872  17.558  35.922  0.00  0.00    +0.000 C 
BRANCH  39  40
ATOM     40  C   UNL     1      25.690  17.836  36.890  0.00  0.00    +0.000 C 
ATOM     41  C   UNL     1      26.481  19.109  36.840  0.00  0.00    +0.000 C 
ATOM     42  C   UNL     1      25.657  17.023  38.147  0.00  0.00    +0.000 C 
ENDBRANCH  39  40
ENDBRANCH  20  38
BRANCH  25  43
ATOM     43  C   UNL     1      24.651  20.515  31.195  0.00  0.00    +0.000 C 
BRANCH  43  44
ATOM     44  C   UNL     1      24.631  22.034  31.403  0.00  0.00    +0.000 C 
ATOM     45  C   UNL     1      24.609  23.556  31.611  0.00  0.00    +0.000 C 
BRANCH  45  46
ATOM     46  C   UNL     1      24.588  24.841  31.780  0.00  0.00    +0.000 C 
ATOM     47  C   UNL     1      24.976  25.419  33.107  0.00  0.00    +0.000 C 
ATOM     48  C   UNL     1      24.011  25.726  30.720  0.00  0.00    +0.000 C 
ENDBRANCH  45  46
ENDBRANCH  43  44
ENDBRANCH  25  43
TORSDOF 10
ENDMDL
MODEL 9
REMARK VINA RESULT:      -6.1     37.799     42.124
REMARK  Name = 9852185_GambogicAcid.pdbqt.pdb
REMARK  10 active torsions:
REMARK  status: ('A' for Active; 'I' for Inactive)
REMARK    1  A    between atoms: C_8  and  C_30
REMARK    2  A    between atoms: C_20  and  C_38
REMARK    3  A    between atoms: C_21  and  O_28
REMARK    4  A    between atoms: C_25  and  C_43
REMARK    5  A    between atoms: C_31  and  C_32
REMARK    6  A    between atoms: C_32  and  C_35
REMARK    7  A    between atoms: C_35  and  O_36
REMARK    8  A    between atoms: C_39  and  C_40
REMARK    9  A    between atoms: C_43  and  C_44
REMARK   10  A    between atoms: C_45  and  C_46
REMARK                            x       y       z     vdW  Elec       q    Type
REMARK                         _______ _______ _______ _____ _____    ______ ____
ROOT
ATOM      1  O   UNL     1      10.610   8.836  32.941  0.00  0.00    +0.000 OA
ATOM      2  O   UNL     1      11.805   7.625  30.617  0.00  0.00    +0.000 OA
ATOM      3  O   UNL     1      10.774  11.996  32.698  0.00  0.00    +0.000 OA
ATOM      4  O   UNL     1      14.536   9.786  28.420  0.00  0.00    +0.000 OA
ATOM      5  O   UNL     1      12.729   3.643  28.194  0.00  0.00    +0.000 OA
ATOM      6  C   UNL     1      12.202   8.878  31.156  0.00  0.00    +0.000 C 
ATOM      7  C   UNL     1      12.942   8.739  32.535  0.00  0.00    +0.000 C 
ATOM      8  C   UNL     1      10.981   9.640  31.810  0.00  0.00    +0.000 C 
ATOM      9  C   UNL     1      11.818   8.253  33.457  0.00  0.00    +0.000 C 
ATOM     10  C   UNL     1      13.545  10.040  32.828  0.00  0.00    +0.000 C 
ATOM     11  C   UNL     1      13.025  11.219  32.157  0.00  0.00    +0.000 C 
ATOM     12  C   UNL     1      12.950   9.782  30.160  0.00  0.00    +0.000 C 
ATOM     13  C   UNL     1      11.479  11.095  32.273  0.00  0.00    +0.000 C 
ATOM     14  C   UNL     1      13.304  11.031  30.756  0.00  0.00    +0.000 C 
ATOM     15  C   UNL     1      12.006   8.739  34.901  0.00  0.00    +0.000 C 
ATOM     16  C   UNL     1      11.723   6.720  33.412  0.00  0.00    +0.000 C 
ATOM     17  C   UNL     1      13.722   9.160  29.086  0.00  0.00    +0.000 C 
ATOM     18  C   UNL     1      12.555   7.040  29.633  0.00  0.00    +0.000 A 
ATOM     19  C   UNL     1      13.498   7.727  28.856  0.00  0.00    +0.000 A 
ATOM     20  C   UNL     1      12.302   5.673  29.389  0.00  0.00    +0.000 A 
ATOM     21  C   UNL     1      14.218   7.058  27.852  0.00  0.00    +0.000 A 
ATOM     22  C   UNL     1      13.009   4.998  28.388  0.00  0.00    +0.000 A 
ATOM     23  C   UNL     1      13.973   5.706  27.627  0.00  0.00    +0.000 A 
ATOM     24  C   UNL     1      14.616   4.915  26.642  0.00  0.00    +0.000 C 
ATOM     25  C   UNL     1      13.389   2.889  27.101  0.00  0.00    +0.000 C 
ATOM     26  C   UNL     1      14.356   3.769  26.444  0.00  0.00    +0.000 C 
ATOM     27  C   UNL     1      12.268   2.432  26.135  0.00  0.00    +0.000 C 
ENDROOT
BRANCH  21  28
ATOM     28  O   UNL     1      15.159   7.679  27.074  0.00  0.00    +0.000 OA
ATOM     29  H   UNL     1      14.734   8.384  26.536  0.00  0.00    +0.000 HD
ENDBRANCH  21  28
BRANCH   8  30
ATOM     30  C   UNL     1       9.836   9.754  30.896  0.00  0.00    +0.000 C 
ATOM     31  C   UNL     1       8.618   9.910  29.973  0.00  0.00    +0.000 C 
BRANCH  31  32
ATOM     32  C   UNL     1       7.554  10.059  29.235  0.00  0.00    +0.000 C 
ATOM     33  C   UNL     1       6.810   8.774  28.922  0.00  0.00    +0.000 C 
BRANCH  32  35
ATOM     34  O   UNL     1       6.177  12.043  29.193  0.00  0.00    +0.000 OA
ATOM     35  C   UNL     1       7.140  11.414  28.780  0.00  0.00    +0.000 C 
BRANCH  35  36
ATOM     36  O   UNL     1       7.935  11.946  27.827  0.00  0.00    +0.000 OA
ATOM     37  H   UNL     1       8.433  12.660  28.278  0.00  0.00    +0.000 HD
ENDBRANCH  35  36
ENDBRANCH  32  35
ENDBRANCH  31  32
ENDBRANCH   8  30
BRANCH  20  38
ATOM     38  C   UNL     1      11.323   4.975  30.171  0.00  0.00    +0.000 C 
ATOM     39  C   UNL     1      10.285   4.241  31.034  0.00  0.00    +0.000 C 
BRANCH  39  40
ATOM     40  C   UNL     1       9.415   3.634  31.778  0.00  0.00    +0.000 C 
ATOM     41  C   UNL     1       9.204   2.160  31.609  0.00  0.00    +0.000 C 
ATOM     42  C   UNL     1       8.814   4.347  32.951  0.00  0.00    +0.000 C 
ENDBRANCH  39  40
ENDBRANCH  20  38
BRANCH  25  43
ATOM     43  C   UNL     1      14.047   1.722  27.720  0.00  0.00    +0.000 C 
BRANCH  43  44
ATOM     44  C   UNL     1      14.724   0.509  28.368  0.00  0.00    +0.000 C 
ATOM     45  C   UNL     1      15.401  -0.708  29.016  0.00  0.00    +0.000 C 
BRANCH  45  46
ATOM     46  C   UNL     1      15.967  -1.735  29.569  0.00  0.00    +0.000 C 
ATOM     47  C   UNL     1      15.810  -3.089  28.947  0.00  0.00    +0.000 C 
ATOM     48  C   UNL     1      16.618  -1.601  30.910  0.00  0.00    +0.000 C 
ENDBRANCH  45  46
ENDBRANCH  43  44
ENDBRANCH  25  43
TORSDOF 10
ENDMDL
