MODEL 1
REMARK VINA RESULT:      -8.4      0.000      0.000
REMARK  Name = AFLATOXIN.pdbqt.pdb
REMARK  1 active torsions:
REMARK  status: ('A' for Active; 'I' for Inactive)
REMARK    1  A    between atoms: C_15  and  O_23
REMARK                            x       y       z     vdW  Elec       q    Type
REMARK                         _______ _______ _______ _____ _____    ______ ____
ROOT
ATOM      1  O   UNL     1      42.255  -4.017  13.560  0.00  0.00    +0.000 OA
ATOM      2  O   UNL     1      42.999  -1.882  14.558  0.00  0.00    +0.000 OA
ATOM      3  O   UNL     1      46.734  -5.009  12.495  0.00  0.00    +0.000 OA
ATOM      4  O   UNL     1      48.263  -8.023   8.828  0.00  0.00    +0.000 OA
ATOM      5  O   UNL     1      48.916  -5.504  12.234  0.00  0.00    +0.000 OA
ATOM      6  O   UNL     1      49.729  -6.924  10.133  0.00  0.00    +0.000 OA
ATOM      7  C   UNL     1      44.504  -3.606  14.049  0.00  0.00    +0.000 C 
ATOM      8  C   UNL     1      44.440  -4.591  12.988  0.00  0.00    +0.000 A 
ATOM      9  C   UNL     1      43.099  -3.277  14.394  0.00  0.00    +0.000 C 
ATOM     10  C   UNL     1      43.076  -4.810  12.774  0.00  0.00    +0.000 A 
ATOM     11  C   UNL     1      45.385  -5.255  12.228  0.00  0.00    +0.000 A 
ATOM     12  C   UNL     1      44.994  -6.157  11.240  0.00  0.00    +0.000 A 
ATOM     13  C   UNL     1      45.211  -2.376  14.078  0.00  0.00    +0.000 C 
ATOM     14  C   UNL     1      46.074  -6.774  10.450  0.00  0.00    +0.000 A 
ATOM     15  C   UNL     1      43.599  -6.392  11.072  0.00  0.00    +0.000 A 
ATOM     16  C   UNL     1      42.630  -5.695  11.819  0.00  0.00    +0.000 A 
ATOM     17  C   UNL     1      45.802  -7.618   9.349  0.00  0.00    +0.000 A 
ATOM     18  C   UNL     1      47.396  -6.558  10.711  0.00  0.00    +0.000 A 
ATOM     19  C   UNL     1      44.299  -1.658  14.360  0.00  0.00    +0.000 C 
ATOM     20  C   UNL     1      46.973  -8.174   8.641  0.00  0.00    +0.000 A 
ATOM     21  C   UNL     1      47.768  -5.675  11.849  0.00  0.00    +0.000 A 
ATOM     22  C   UNL     1      48.554  -7.174   9.888  0.00  0.00    +0.000 A 
ENDROOT
BRANCH  15  23
ATOM     23  O   UNL     1      43.140  -7.255  10.102  0.00  0.00    +0.000 OA
ATOM     24  C   UNL     1      42.448  -6.555   9.099  0.00  0.00    +0.000 C 
ENDBRANCH  15  23
TORSDOF 1
ENDMDL
MODEL 2
REMARK VINA RESULT:      -8.4      1.507      3.828
REMARK  Name = AFLATOXIN.pdbqt.pdb
REMARK  1 active torsions:
REMARK  status: ('A' for Active; 'I' for Inactive)
REMARK    1  A    between atoms: C_15  and  O_23
REMARK                            x       y       z     vdW  Elec       q    Type
REMARK                         _______ _______ _______ _____ _____    ______ ____
ROOT
ATOM      1  O   UNL     1      45.523  -3.875  14.318  0.00  0.00    +0.000 OA
ATOM      2  O   UNL     1      43.297  -3.941  15.388  0.00  0.00    +0.000 OA
ATOM      3  O   UNL     1      43.736  -6.142  10.598  0.00  0.00    +0.000 OA
ATOM      4  O   UNL     1      46.305  -8.973   7.396  0.00  0.00    +0.000 OA
ATOM      5  O   UNL     1      42.748  -7.017   8.772  0.00  0.00    +0.000 OA
ATOM      6  O   UNL     1      44.078  -8.712   7.208  0.00  0.00    +0.000 OA
ATOM      7  C   UNL     1      43.594  -4.400  13.108  0.00  0.00    +0.000 C 
ATOM      8  C   UNL     1      44.730  -4.998  12.437  0.00  0.00    +0.000 A 
ATOM      9  C   UNL     1      44.138  -3.685  14.289  0.00  0.00    +0.000 C 
ATOM     10  C   UNL     1      45.844  -4.617  13.193  0.00  0.00    +0.000 A 
ATOM     11  C   UNL     1      44.881  -5.804  11.324  0.00  0.00    +0.000 A 
ATOM     12  C   UNL     1      46.144  -6.244  10.932  0.00  0.00    +0.000 A 
ATOM     13  C   UNL     1      42.394  -5.019  13.546  0.00  0.00    +0.000 C 
ATOM     14  C   UNL     1      46.195  -7.140   9.763  0.00  0.00    +0.000 A 
ATOM     15  C   UNL     1      47.264  -5.805  11.695  0.00  0.00    +0.000 A 
ATOM     16  C   UNL     1      47.116  -5.014  12.850  0.00  0.00    +0.000 A 
ATOM     17  C   UNL     1      47.401  -7.741   9.337  0.00  0.00    +0.000 A 
ATOM     18  C   UNL     1      45.087  -7.464   9.033  0.00  0.00    +0.000 A 
ATOM     19  C   UNL     1      42.420  -4.661  14.686  0.00  0.00    +0.000 C 
ATOM     20  C   UNL     1      47.316  -8.617   8.151  0.00  0.00    +0.000 A 
ATOM     21  C   UNL     1      43.775  -6.879   9.421  0.00  0.00    +0.000 A 
ATOM     22  C   UNL     1      45.102  -8.417   7.813  0.00  0.00    +0.000 A 
ENDROOT
BRANCH  15  23
ATOM     23  O   UNL     1      48.540  -6.217  11.379  0.00  0.00    +0.000 OA
ATOM     24  C   UNL     1      49.388  -5.112  11.191  0.00  0.00    +0.000 C 
ENDBRANCH  15  23
TORSDOF 1
ENDMDL
MODEL 3
REMARK VINA RESULT:      -8.4      1.984      4.317
REMARK  Name = AFLATOXIN.pdbqt.pdb
REMARK  1 active torsions:
REMARK  status: ('A' for Active; 'I' for Inactive)
REMARK    1  A    between atoms: C_15  and  O_23
REMARK                            x       y       z     vdW  Elec       q    Type
REMARK                         _______ _______ _______ _____ _____    ______ ____
ROOT
ATOM      1  O   UNL     1      44.034  -4.776  12.848  0.00  0.00    +0.000 OA
ATOM      2  O   UNL     1      41.698  -5.462  13.270  0.00  0.00    +0.000 OA
ATOM      3  O   UNL     1      44.120  -7.604   9.084  0.00  0.00    +0.000 OA
ATOM      4  O   UNL     1      48.193  -9.657   7.069  0.00  0.00    +0.000 OA
ATOM      5  O   UNL     1      43.996  -8.797   7.178  0.00  0.00    +0.000 OA
ATOM      6  O   UNL     1      46.140 -10.076   6.252  0.00  0.00    +0.000 OA
ATOM      7  C   UNL     1      42.770  -5.894  11.231  0.00  0.00    +0.000 C 
ATOM      8  C   UNL     1      44.172  -6.151  10.972  0.00  0.00    +0.000 A 
ATOM      9  C   UNL     1      42.723  -5.007  12.420  0.00  0.00    +0.000 C 
ATOM     10  C   UNL     1      44.863  -5.429  11.951  0.00  0.00    +0.000 A 
ATOM     11  C   UNL     1      44.860  -6.915  10.048  0.00  0.00    +0.000 A 
ATOM     12  C   UNL     1      46.252  -6.973  10.072  0.00  0.00    +0.000 A 
ATOM     13  C   UNL     1      41.712  -6.825  11.397  0.00  0.00    +0.000 C 
ATOM     14  C   UNL     1      46.890  -7.855   9.078  0.00  0.00    +0.000 A 
ATOM     15  C   UNL     1      46.931  -6.195  11.052  0.00  0.00    +0.000 A 
ATOM     16  C   UNL     1      46.238  -5.442  12.019  0.00  0.00    +0.000 A 
ATOM     17  C   UNL     1      48.284  -8.086   9.072  0.00  0.00    +0.000 A 
ATOM     18  C   UNL     1      46.181  -8.520   8.118  0.00  0.00    +0.000 A 
ATOM     19  C   UNL     1      41.301  -6.434  12.449  0.00  0.00    +0.000 C 
ATOM     20  C   UNL     1      48.797  -8.989   8.023  0.00  0.00    +0.000 A 
ATOM     21  C   UNL     1      44.706  -8.338   8.060  0.00  0.00    +0.000 A 
ATOM     22  C   UNL     1      46.817  -9.469   7.073  0.00  0.00    +0.000 A 
ENDROOT
BRANCH  15  23
ATOM     23  O   UNL     1      48.306  -6.220  11.147  0.00  0.00    +0.000 OA
ATOM     24  C   UNL     1      48.750  -5.361  12.166  0.00  0.00    +0.000 C 
ENDBRANCH  15  23
TORSDOF 1
ENDMDL
MODEL 4
REMARK VINA RESULT:      -8.4      1.779      5.949
REMARK  Name = AFLATOXIN.pdbqt.pdb
REMARK  1 active torsions:
REMARK  status: ('A' for Active; 'I' for Inactive)
REMARK    1  A    between atoms: C_15  and  O_23
REMARK                            x       y       z     vdW  Elec       q    Type
REMARK                         _______ _______ _______ _____ _____    ______ ____
ROOT
ATOM      1  O   UNL     1      44.617  -7.971   7.211  0.00  0.00    +0.000 OA
ATOM      2  O   UNL     1      46.682  -9.292   6.901  0.00  0.00    +0.000 OA
ATOM      3  O   UNL     1      46.420  -6.199  11.184  0.00  0.00    +0.000 OA
ATOM      4  O   UNL     1      43.804  -4.414  15.035  0.00  0.00    +0.000 OA
ATOM      5  O   UNL     1      47.451  -5.231  12.937  0.00  0.00    +0.000 OA
ATOM      6  O   UNL     1      46.051  -4.499  15.081  0.00  0.00    +0.000 OA
ATOM      7  C   UNL     1      46.560  -7.517   8.427  0.00  0.00    +0.000 C 
ATOM      8  C   UNL     1      45.423  -7.045   9.192  0.00  0.00    +0.000 A 
ATOM      9  C   UNL     1      46.010  -8.086   7.172  0.00  0.00    +0.000 C 
ATOM     10  C   UNL     1      44.308  -7.318   8.394  0.00  0.00    +0.000 A 
ATOM     11  C   UNL     1      45.271  -6.462  10.435  0.00  0.00    +0.000 A 
ATOM     12  C   UNL     1      44.004  -6.130  10.912  0.00  0.00    +0.000 A 
ATOM     13  C   UNL     1      47.599  -8.396   8.831  0.00  0.00    +0.000 C 
ATOM     14  C   UNL     1      43.941  -5.560  12.270  0.00  0.00    +0.000 A 
ATOM     15  C   UNL     1      42.890  -6.380  10.061  0.00  0.00    +0.000 A 
ATOM     16  C   UNL     1      43.033  -7.005   8.808  0.00  0.00    +0.000 A 
ATOM     17  C   UNL     1      42.709  -5.287  12.907  0.00  0.00    +0.000 A 
ATOM     18  C   UNL     1      45.057  -5.280  13.005  0.00  0.00    +0.000 A 
ATOM     19  C   UNL     1      47.507  -9.192   7.944  0.00  0.00    +0.000 C 
ATOM     20  C   UNL     1      42.785  -4.716  14.267  0.00  0.00    +0.000 A 
ATOM     21  C   UNL     1      46.394  -5.546  12.410  0.00  0.00    +0.000 A 
ATOM     22  C   UNL     1      45.026  -4.701  14.440  0.00  0.00    +0.000 A 
ENDROOT
BRANCH  15  23
ATOM     23  O   UNL     1      41.606  -6.096  10.475  0.00  0.00    +0.000 OA
ATOM     24  C   UNL     1      41.000  -5.165   9.615  0.00  0.00    +0.000 C 
ENDBRANCH  15  23
TORSDOF 1
ENDMDL
MODEL 5
REMARK VINA RESULT:      -8.3      2.723      6.627
REMARK  Name = AFLATOXIN.pdbqt.pdb
REMARK  1 active torsions:
REMARK  status: ('A' for Active; 'I' for Inactive)
REMARK    1  A    between atoms: C_15  and  O_23
REMARK                            x       y       z     vdW  Elec       q    Type
REMARK                         _______ _______ _______ _____ _____    ______ ____
ROOT
ATOM      1  O   UNL     1      44.575  -6.566  10.762  0.00  0.00    +0.000 OA
ATOM      2  O   UNL     1      42.467  -7.776  11.206  0.00  0.00    +0.000 OA
ATOM      3  O   UNL     1      42.951  -2.935  13.281  0.00  0.00    +0.000 OA
ATOM      4  O   UNL     1      44.366   1.822  12.793  0.00  0.00    +0.000 OA
ATOM      5  O   UNL     1      42.193  -1.348  14.689  0.00  0.00    +0.000 OA
ATOM      6  O   UNL     1      42.777   1.215  14.265  0.00  0.00    +0.000 OA
ATOM      7  C   UNL     1      43.083  -5.866  12.418  0.00  0.00    +0.000 C 
ATOM      8  C   UNL     1      43.855  -4.719  11.986  0.00  0.00    +0.000 A 
ATOM      9  C   UNL     1      43.577  -7.022  11.629  0.00  0.00    +0.000 C 
ATOM     10  C   UNL     1      44.742  -5.216  11.026  0.00  0.00    +0.000 A 
ATOM     11  C   UNL     1      43.849  -3.374  12.306  0.00  0.00    +0.000 A 
ATOM     12  C   UNL     1      44.731  -2.493  11.682  0.00  0.00    +0.000 A 
ATOM     13  C   UNL     1      41.673  -6.015  12.484  0.00  0.00    +0.000 C 
ATOM     14  C   UNL     1      44.611  -1.072  12.054  0.00  0.00    +0.000 A 
ATOM     15  C   UNL     1      45.652  -3.034  10.740  0.00  0.00    +0.000 A 
ATOM     16  C   UNL     1      45.642  -4.396  10.383  0.00  0.00    +0.000 A 
ATOM     17  C   UNL     1      45.371  -0.068  11.411  0.00  0.00    +0.000 A 
ATOM     18  C   UNL     1      43.752  -0.631  13.019  0.00  0.00    +0.000 A 
ATOM     19  C   UNL     1      41.573  -7.018  11.841  0.00  0.00    +0.000 C 
ATOM     20  C   UNL     1      45.159   1.317  11.878  0.00  0.00    +0.000 A 
ATOM     21  C   UNL     1      42.910  -1.624  13.738  0.00  0.00    +0.000 A 
ATOM     22  C   UNL     1      43.588   0.856  13.419  0.00  0.00    +0.000 A 
ENDROOT
BRANCH  15  23
ATOM     23  O   UNL     1      46.539  -2.219  10.071  0.00  0.00    +0.000 OA
ATOM     24  C   UNL     1      47.840  -2.746  10.127  0.00  0.00    +0.000 C 
ENDBRANCH  15  23
TORSDOF 1
ENDMDL
MODEL 6
REMARK VINA RESULT:      -8.3      1.360      6.969
REMARK  Name = AFLATOXIN.pdbqt.pdb
REMARK  1 active torsions:
REMARK  status: ('A' for Active; 'I' for Inactive)
REMARK    1  A    between atoms: C_15  and  O_23
REMARK                            x       y       z     vdW  Elec       q    Type
REMARK                         _______ _______ _______ _____ _____    ______ ____
ROOT
ATOM      1  O   UNL     1      48.098  -8.103   8.373  0.00  0.00    +0.000 OA
ATOM      2  O   UNL     1      46.955  -8.801   6.296  0.00  0.00    +0.000 OA
ATOM      3  O   UNL     1      43.895  -7.385  10.372  0.00  0.00    +0.000 OA
ATOM      4  O   UNL     1      42.956  -4.277  14.156  0.00  0.00    +0.000 OA
ATOM      5  O   UNL     1      41.853  -7.293  11.319  0.00  0.00    +0.000 OA
ATOM      6  O   UNL     1      41.315  -5.463  13.177  0.00  0.00    +0.000 OA
ATOM      7  C   UNL     1      45.819  -8.618   8.339  0.00  0.00    +0.000 C 
ATOM      8  C   UNL     1      46.065  -7.714   9.444  0.00  0.00    +0.000 A 
ATOM      9  C   UNL     1      47.134  -8.852   7.691  0.00  0.00    +0.000 C 
ATOM     10  C   UNL     1      47.443  -7.478   9.422  0.00  0.00    +0.000 A 
ATOM     11  C   UNL     1      45.263  -7.102  10.388  0.00  0.00    +0.000 A 
ATOM     12  C   UNL     1      45.815  -6.244  11.338  0.00  0.00    +0.000 A 
ATOM     13  C   UNL     1      44.881  -8.494   7.281  0.00  0.00    +0.000 C 
ATOM     14  C   UNL     1      44.871  -5.600  12.269  0.00  0.00    +0.000 A 
ATOM     15  C   UNL     1      47.226  -6.055  11.319  0.00  0.00    +0.000 A 
ATOM     16  C   UNL     1      48.046  -6.647  10.340  0.00  0.00    +0.000 A 
ATOM     17  C   UNL     1      45.292  -4.627  13.203  0.00  0.00    +0.000 A 
ATOM     18  C   UNL     1      43.535  -5.882  12.277  0.00  0.00    +0.000 A 
ATOM     19  C   UNL     1      45.635  -8.627   6.363  0.00  0.00    +0.000 C 
ATOM     20  C   UNL     1      44.248  -4.060  14.079  0.00  0.00    +0.000 A 
ATOM     21  C   UNL     1      43.007  -6.890  11.319  0.00  0.00    +0.000 A 
ATOM     22  C   UNL     1      42.513  -5.210  13.227  0.00  0.00    +0.000 A 
ENDROOT
BRANCH  15  23
ATOM     23  O   UNL     1      47.838  -5.205  12.215  0.00  0.00    +0.000 OA
ATOM     24  C   UNL     1      49.226  -5.419  12.236  0.00  0.00    +0.000 C 
ENDBRANCH  15  23
TORSDOF 1
ENDMDL
MODEL 7
REMARK VINA RESULT:      -7.8      1.594      5.705
REMARK  Name = AFLATOXIN.pdbqt.pdb
REMARK  1 active torsions:
REMARK  status: ('A' for Active; 'I' for Inactive)
REMARK    1  A    between atoms: C_15  and  O_23
REMARK                            x       y       z     vdW  Elec       q    Type
REMARK                         _______ _______ _______ _____ _____    ______ ____
ROOT
ATOM      1  O   UNL     1      49.238  -7.094   9.491  0.00  0.00    +0.000 OA
ATOM      2  O   UNL     1      51.046  -6.555  11.087  0.00  0.00    +0.000 OA
ATOM      3  O   UNL     1      46.159  -4.984  12.363  0.00  0.00    +0.000 OA
ATOM      4  O   UNL     1      41.272  -5.942  12.613  0.00  0.00    +0.000 OA
ATOM      5  O   UNL     1      44.802  -3.758  13.678  0.00  0.00    +0.000 OA
ATOM      6  O   UNL     1      42.244  -4.437  13.972  0.00  0.00    +0.000 OA
ATOM      7  C   UNL     1      48.937  -5.539  11.210  0.00  0.00    +0.000 C 
ATOM      8  C   UNL     1      47.641  -6.077  10.850  0.00  0.00    +0.000 A 
ATOM      9  C   UNL     1      49.923  -6.198  10.317  0.00  0.00    +0.000 C 
ATOM     10  C   UNL     1      47.893  -6.968   9.802  0.00  0.00    +0.000 A 
ATOM     11  C   UNL     1      46.355  -5.897  11.324  0.00  0.00    +0.000 A 
ATOM     12  C   UNL     1      45.288  -6.597  10.762  0.00  0.00    +0.000 A 
ATOM     13  C   UNL     1      49.550  -5.477  12.488  0.00  0.00    +0.000 C 
ATOM     14  C   UNL     1      43.965  -6.375  11.371  0.00  0.00    +0.000 A 
ATOM     15  C   UNL     1      45.568  -7.465   9.669  0.00  0.00    +0.000 A 
ATOM     16  C   UNL     1      46.879  -7.680   9.202  0.00  0.00    +0.000 A 
ATOM     17  C   UNL     1      42.826  -7.108  10.965  0.00  0.00    +0.000 A 
ATOM     18  C   UNL     1      43.755  -5.473  12.374  0.00  0.00    +0.000 A 
ATOM     19  C   UNL     1      50.582  -6.014  12.213  0.00  0.00    +0.000 C 
ATOM     20  C   UNL     1      41.559  -6.790  11.653  0.00  0.00    +0.000 A 
ATOM     21  C   UNL     1      44.904  -4.665  12.865  0.00  0.00    +0.000 A 
ATOM     22  C   UNL     1      42.383  -5.230  13.048  0.00  0.00    +0.000 A 
ENDROOT
BRANCH  15  23
ATOM     23  O   UNL     1      44.566  -8.203   9.078  0.00  0.00    +0.000 OA
ATOM     24  C   UNL     1      44.790  -8.332   7.697  0.00  0.00    +0.000 C 
ENDBRANCH  15  23
TORSDOF 1
ENDMDL
MODEL 8
REMARK VINA RESULT:      -7.6      2.148      7.290
REMARK  Name = AFLATOXIN.pdbqt.pdb
REMARK  1 active torsions:
REMARK  status: ('A' for Active; 'I' for Inactive)
REMARK    1  A    between atoms: C_15  and  O_23
REMARK                            x       y       z     vdW  Elec       q    Type
REMARK                         _______ _______ _______ _____ _____    ______ ____
ROOT
ATOM      1  O   UNL     1      49.344  -8.502   9.011  0.00  0.00    +0.000 OA
ATOM      2  O   UNL     1      49.316  -9.617   6.805  0.00  0.00    +0.000 OA
ATOM      3  O   UNL     1      44.777  -7.482   8.485  0.00  0.00    +0.000 OA
ATOM      4  O   UNL     1      42.359  -3.707  10.669  0.00  0.00    +0.000 OA
ATOM      5  O   UNL     1      42.549  -7.242   8.254  0.00  0.00    +0.000 OA
ATOM      6  O   UNL     1      41.320  -5.092   9.234  0.00  0.00    +0.000 OA
ATOM      7  C   UNL     1      47.342  -9.056   7.939  0.00  0.00    +0.000 C 
ATOM      8  C   UNL     1      47.087  -7.948   8.837  0.00  0.00    +0.000 A 
ATOM      9  C   UNL     1      48.781  -9.388   8.087  0.00  0.00    +0.000 C 
ATOM     10  C   UNL     1      48.312  -7.695   9.463  0.00  0.00    +0.000 A 
ATOM     11  C   UNL     1      45.978  -7.176   9.129  0.00  0.00    +0.000 A 
ATOM     12  C   UNL     1      46.060  -6.138  10.056  0.00  0.00    +0.000 A 
ATOM     13  C   UNL     1      47.059  -9.159   6.552  0.00  0.00    +0.000 C 
ATOM     14  C   UNL     1      44.837  -5.342  10.259  0.00  0.00    +0.000 A 
ATOM     15  C   UNL     1      47.308  -5.931  10.709  0.00  0.00    +0.000 A 
ATOM     16  C   UNL     1      48.451  -6.690  10.393  0.00  0.00    +0.000 A 
ATOM     17  C   UNL     1      44.824  -4.196  11.087  0.00  0.00    +0.000 A 
ATOM     18  C   UNL     1      43.652  -5.640   9.651  0.00  0.00    +0.000 A 
ATOM     19  C   UNL     1      48.153  -9.457   6.173  0.00  0.00    +0.000 C 
ATOM     20  C   UNL     1      43.535  -3.487  11.208  0.00  0.00    +0.000 A 
ATOM     21  C   UNL     1      43.582  -6.827   8.757  0.00  0.00    +0.000 A 
ATOM     22  C   UNL     1      42.355  -4.813   9.828  0.00  0.00    +0.000 A 
ENDROOT
BRANCH  15  23
ATOM     23  O   UNL     1      47.468  -4.911  11.621  0.00  0.00    +0.000 OA
ATOM     24  C   UNL     1      48.503  -5.208  12.524  0.00  0.00    +0.000 C 
ENDBRANCH  15  23
TORSDOF 1
ENDMDL
MODEL 9
REMARK VINA RESULT:      -7.4     17.584     20.419
REMARK  Name = AFLATOXIN.pdbqt.pdb
REMARK  1 active torsions:
REMARK  status: ('A' for Active; 'I' for Inactive)
REMARK    1  A    between atoms: C_15  and  O_23
REMARK                            x       y       z     vdW  Elec       q    Type
REMARK                         _______ _______ _______ _____ _____    ______ ____
ROOT
ATOM      1  O   UNL     1      26.019  -5.937  18.154  0.00  0.00    +0.000 OA
ATOM      2  O   UNL     1      28.405  -6.412  18.586  0.00  0.00    +0.000 OA
ATOM      3  O   UNL     1      27.252  -3.606  14.252  0.00  0.00    +0.000 OA
ATOM      4  O   UNL     1      24.617   0.016  12.060  0.00  0.00    +0.000 OA
ATOM      5  O   UNL     1      27.913  -2.715  12.292  0.00  0.00    +0.000 OA
ATOM      6  O   UNL     1      26.620  -0.627  11.262  0.00  0.00    +0.000 OA
ATOM      7  C   UNL     1      27.650  -5.634  16.507  0.00  0.00    +0.000 C 
ATOM      8  C   UNL     1      26.533  -4.760  16.209  0.00  0.00    +0.000 A 
ATOM      9  C   UNL     1      27.281  -6.374  17.740  0.00  0.00    +0.000 C 
ATOM     10  C   UNL     1      25.590  -5.018  17.209  0.00  0.00    +0.000 A 
ATOM     11  C   UNL     1      26.281  -3.812  15.235  0.00  0.00    +0.000 A 
ATOM     12  C   UNL     1      25.081  -3.103  15.229  0.00  0.00    +0.000 A 
ATOM     13  C   UNL     1      29.023  -5.305  16.647  0.00  0.00    +0.000 C 
ATOM     14  C   UNL     1      24.929  -2.079  14.180  0.00  0.00    +0.000 A 
ATOM     15  C   UNL     1      24.122  -3.416  16.234  0.00  0.00    +0.000 A 
ATOM     16  C   UNL     1      24.384  -4.355  17.250  0.00  0.00    +0.000 A 
ATOM     17  C   UNL     1      23.809  -1.219  14.137  0.00  0.00    +0.000 A 
ATOM     18  C   UNL     1      25.861  -1.879  13.203  0.00  0.00    +0.000 A 
ATOM     19  C   UNL     1      29.208  -5.787  17.725  0.00  0.00    +0.000 C 
ATOM     20  C   UNL     1      23.776  -0.237  13.034  0.00  0.00    +0.000 A 
ATOM     21  C   UNL     1      27.076  -2.738  13.182  0.00  0.00    +0.000 A 
ATOM     22  C   UNL     1      25.742  -0.799  12.100  0.00  0.00    +0.000 A 
ENDROOT
BRANCH  15  23
ATOM     23  O   UNL     1      22.923  -2.741  16.301  0.00  0.00    +0.000 OA
ATOM     24  C   UNL     1      22.761  -2.137  17.560  0.00  0.00    +0.000 C 
ENDBRANCH  15  23
TORSDOF 1
ENDMDL
