MODEL 1
REMARK VINA RESULT:      -7.5      0.000      0.000
REMARK  Name = AZD4547.pdbqt.pdb
REMARK  6 active torsions:
REMARK  status: ('A' for Active; 'I' for Inactive)
REMARK    1  A    between atoms: C_3  and  C_23
REMARK    2  A    between atoms: C_8  and  C_11
REMARK    3  A    between atoms: C_12  and  C_13
REMARK    4  A    between atoms: C_15  and  O_19
REMARK    5  A    between atoms: C_17  and  O_21
REMARK    6  A    between atoms: C_26  and  N_29
REMARK                            x       y       z     vdW  Elec       q    Type
REMARK                         _______ _______ _______ _____ _____    ______ ____
ROOT
ATOM      1  O   UNL     1      45.993  -4.705  10.990  0.00  0.00    +0.000 OA
ATOM      2  N   UNL     1      47.042  -3.895   9.091  0.00  0.00    +0.000 N 
ATOM      3  C   UNL     1      46.492  -4.877   9.883  0.00  0.00    +0.000 C 
ATOM      4  H   UNL     1      47.444  -4.085   8.186  0.00  0.00    +0.000 HD
ATOM      5  C   UNL     1      47.104  -2.565   9.434  0.00  0.00    +0.000 A 
ATOM      6  N   UNL     1      47.666  -1.705   8.578  0.00  0.00    +0.000 NA
ATOM      7  N   UNL     1      47.565  -0.519   9.207  0.00  0.00    +0.000 N 
ATOM      8  C   UNL     1      46.960  -0.594  10.425  0.00  0.00    +0.000 A 
ATOM      9  H   UNL     1      47.930   0.307   8.745  0.00  0.00    +0.000 HD
ATOM     10  C   UNL     1      46.646  -1.918  10.608  0.00  0.00    +0.000 A 
ENDROOT
BRANCH   3  11
ATOM     11  C   UNL     1      46.521  -6.253   9.326  0.00  0.00    +0.000 A 
ATOM     12  C   UNL     1      47.673  -7.018   9.501  0.00  0.00    +0.000 A 
ATOM     13  C   UNL     1      47.737  -8.313   8.991  0.00  0.00    +0.000 A 
ATOM     14  C   UNL     1      46.662  -8.867   8.283  0.00  0.00    +0.000 A 
ATOM     15  C   UNL     1      45.505  -8.090   8.132  0.00  0.00    +0.000 A 
ATOM     16  C   UNL     1      45.435  -6.793   8.641  0.00  0.00    +0.000 A 
BRANCH  14  17
ATOM     17  N   UNL     1      46.712 -10.197   7.805  0.00  0.00    +0.000 N 
ATOM     18  C   UNL     1      45.501 -10.766   7.188  0.00  0.00    +0.000 C 
ATOM     19  C   UNL     1      44.732 -11.954   7.362  0.00  0.00    +0.000 C 
ATOM     20  N   UNL     1      45.185 -12.866   8.364  0.00  0.00    +0.000 N 
ATOM     21  C   UNL     1      43.500 -12.238   6.580  0.00  0.00    +0.000 C 
ATOM     22  C   UNL     1      46.356 -12.519   9.102  0.00  0.00    +0.000 C 
ATOM     23  H   UNL     1      44.679 -13.716   8.559  0.00  0.00    +0.000 HD
ATOM     24  C   UNL     1      46.977 -11.279   8.769  0.00  0.00    +0.000 C 
ATOM     25  C   UNL     1      46.858 -13.400  10.190  0.00  0.00    +0.000 C 
ENDBRANCH  14  17
ENDBRANCH   3  11
BRANCH   8  26
ATOM     26  C   UNL     1      46.724   0.501  11.291  0.00  0.00    +0.000 C 
ATOM     27  C   UNL     1      46.471   1.684  12.231  0.00  0.00    +0.000 C 
BRANCH  27  28
ATOM     28  C   UNL     1      46.240   2.779  13.113  0.00  0.00    +0.000 A 
ATOM     29  C   UNL     1      45.431   2.609  14.233  0.00  0.00    +0.000 A 
ATOM     30  C   UNL     1      45.204   3.678  15.103  0.00  0.00    +0.000 A 
ATOM     31  C   UNL     1      45.801   4.913  14.841  0.00  0.00    +0.000 A 
ATOM     32  C   UNL     1      46.608   5.089  13.716  0.00  0.00    +0.000 A 
ATOM     33  C   UNL     1      46.827   4.013  12.854  0.00  0.00    +0.000 A 
BRANCH  30  34
ATOM     34  O   UNL     1      44.432   3.620  16.237  0.00  0.00    +0.000 OA
ATOM     35  C   UNL     1      45.082   3.974  17.425  0.00  0.00    +0.000 C 
ENDBRANCH  30  34
BRANCH  32  36
ATOM     36  O   UNL     1      47.142   6.345  13.559  0.00  0.00    +0.000 OA
ATOM     37  C   UNL     1      46.388   7.224  12.771  0.00  0.00    +0.000 C 
ENDBRANCH  32  36
ENDBRANCH  27  28
ENDBRANCH   8  26
TORSDOF 6
ENDMDL
MODEL 2
REMARK VINA RESULT:      -7.4      0.483      2.018
REMARK  Name = AZD4547.pdbqt.pdb
REMARK  6 active torsions:
REMARK  status: ('A' for Active; 'I' for Inactive)
REMARK    1  A    between atoms: C_3  and  C_23
REMARK    2  A    between atoms: C_8  and  C_11
REMARK    3  A    between atoms: C_12  and  C_13
REMARK    4  A    between atoms: C_15  and  O_19
REMARK    5  A    between atoms: C_17  and  O_21
REMARK    6  A    between atoms: C_26  and  N_29
REMARK                            x       y       z     vdW  Elec       q    Type
REMARK                         _______ _______ _______ _____ _____    ______ ____
ROOT
ATOM      1  O   UNL     1      45.762  -4.784  11.179  0.00  0.00    +0.000 OA
ATOM      2  N   UNL     1      46.826  -3.890   9.326  0.00  0.00    +0.000 N 
ATOM      3  C   UNL     1      46.285  -4.910  10.076  0.00  0.00    +0.000 C 
ATOM      4  H   UNL     1      47.249  -4.043   8.423  0.00  0.00    +0.000 HD
ATOM      5  C   UNL     1      46.851  -2.571   9.711  0.00  0.00    +0.000 A 
ATOM      6  N   UNL     1      47.408  -1.672   8.893  0.00  0.00    +0.000 NA
ATOM      7  N   UNL     1      47.268  -0.509   9.556  0.00  0.00    +0.000 N 
ATOM      8  C   UNL     1      46.642  -0.636  10.761  0.00  0.00    +0.000 A 
ATOM      9  H   UNL     1      47.622   0.340   9.128  0.00  0.00    +0.000 HD
ATOM     10  C   UNL     1      46.356  -1.972  10.895  0.00  0.00    +0.000 A 
ENDROOT
BRANCH   3  11
ATOM     11  C   UNL     1      46.357  -6.266   9.477  0.00  0.00    +0.000 A 
ATOM     12  C   UNL     1      47.548  -6.981   9.589  0.00  0.00    +0.000 A 
ATOM     13  C   UNL     1      47.652  -8.256   9.038  0.00  0.00    +0.000 A 
ATOM     14  C   UNL     1      46.579  -8.840   8.352  0.00  0.00    +0.000 A 
ATOM     15  C   UNL     1      45.383  -8.114   8.265  0.00  0.00    +0.000 A 
ATOM     16  C   UNL     1      45.272  -6.837   8.814  0.00  0.00    +0.000 A 
BRANCH  14  17
ATOM     17  N   UNL     1      46.672 -10.152   7.832  0.00  0.00    +0.000 N 
ATOM     18  C   UNL     1      45.467 -10.758   7.238  0.00  0.00    +0.000 C 
ATOM     19  C   UNL     1      44.759 -11.985   7.402  0.00  0.00    +0.000 C 
ATOM     20  N   UNL     1      45.287 -12.904   8.360  0.00  0.00    +0.000 N 
ATOM     21  C   UNL     1      43.515 -12.303   6.653  0.00  0.00    +0.000 C 
ATOM     22  C   UNL     1      46.466 -12.524   9.069  0.00  0.00    +0.000 C 
ATOM     23  H   UNL     1      44.826 -13.781   8.546  0.00  0.00    +0.000 HD
ATOM     24  C   UNL     1      47.018 -11.248   8.753  0.00  0.00    +0.000 C 
ATOM     25  C   UNL     1      47.043 -13.412  10.112  0.00  0.00    +0.000 C 
ENDBRANCH  14  17
ENDBRANCH   3  11
BRANCH   8  26
ATOM     26  C   UNL     1      46.366   0.425  11.655  0.00  0.00    +0.000 C 
ATOM     27  C   UNL     1      46.070   1.574  12.624  0.00  0.00    +0.000 C 
BRANCH  27  28
ATOM     28  C   UNL     1      45.805   2.645  13.526  0.00  0.00    +0.000 A 
ATOM     29  C   UNL     1      46.492   3.849  13.396  0.00  0.00    +0.000 A 
ATOM     30  C   UNL     1      46.232   4.903  14.274  0.00  0.00    +0.000 A 
ATOM     31  C   UNL     1      45.275   4.739  15.278  0.00  0.00    +0.000 A 
ATOM     32  C   UNL     1      44.588   3.532  15.416  0.00  0.00    +0.000 A 
ATOM     33  C   UNL     1      44.856   2.485  14.532  0.00  0.00    +0.000 A 
BRANCH  30  34
ATOM     34  O   UNL     1      46.843   6.132  14.232  0.00  0.00    +0.000 OA
ATOM     35  C   UNL     1      46.579   6.896  13.089  0.00  0.00    +0.000 C 
ENDBRANCH  30  34
BRANCH  32  36
ATOM     36  O   UNL     1      43.671   3.484  16.437  0.00  0.00    +0.000 OA
ATOM     37  C   UNL     1      43.868   4.414  17.467  0.00  0.00    +0.000 C 
ENDBRANCH  32  36
ENDBRANCH  27  28
ENDBRANCH   8  26
TORSDOF 6
ENDMDL
MODEL 3
REMARK VINA RESULT:      -6.9     35.889     37.321
REMARK  Name = AZD4547.pdbqt.pdb
REMARK  6 active torsions:
REMARK  status: ('A' for Active; 'I' for Inactive)
REMARK    1  A    between atoms: C_3  and  C_23
REMARK    2  A    between atoms: C_8  and  C_11
REMARK    3  A    between atoms: C_12  and  C_13
REMARK    4  A    between atoms: C_15  and  O_19
REMARK    5  A    between atoms: C_17  and  O_21
REMARK    6  A    between atoms: C_26  and  N_29
REMARK                            x       y       z     vdW  Elec       q    Type
REMARK                         _______ _______ _______ _____ _____    ______ ____
ROOT
ATOM      1  O   UNL     1      23.108  12.326  35.954  0.00  0.00    +0.000 OA
ATOM      2  N   UNL     1      22.317  11.032  34.204  0.00  0.00    +0.000 N 
ATOM      3  C   UNL     1      22.798  11.239  35.477  0.00  0.00    +0.000 C 
ATOM      4  H   UNL     1      22.078  10.117  33.853  0.00  0.00    +0.000 HD
ATOM      5  C   UNL     1      22.109  12.028  33.280  0.00  0.00    +0.000 A 
ATOM      6  N   UNL     1      21.638  11.699  32.073  0.00  0.00    +0.000 NA
ATOM      7  N   UNL     1      21.553  12.880  31.432  0.00  0.00    +0.000 N 
ATOM      8  C   UNL     1      21.949  13.943  32.186  0.00  0.00    +0.000 A 
ATOM      9  H   UNL     1      21.214  12.890  30.476  0.00  0.00    +0.000 HD
ATOM     10  C   UNL     1      22.321  13.424  33.402  0.00  0.00    +0.000 A 
ENDROOT
BRANCH   3  11
ATOM     11  C   UNL     1      22.947  10.027  36.320  0.00  0.00    +0.000 A 
ATOM     12  C   UNL     1      23.991   9.146  36.042  0.00  0.00    +0.000 A 
ATOM     13  C   UNL     1      24.161   7.998  36.812  0.00  0.00    +0.000 A 
ATOM     14  C   UNL     1      23.288   7.694  37.864  0.00  0.00    +0.000 A 
ATOM     15  C   UNL     1      22.254   8.600  38.141  0.00  0.00    +0.000 A 
ATOM     16  C   UNL     1      22.078   9.751  37.374  0.00  0.00    +0.000 A 
BRANCH  14  17
ATOM     17  N   UNL     1      23.488   6.551  38.673  0.00  0.00    +0.000 N 
ATOM     18  C   UNL     1      24.868   6.177  39.029  0.00  0.00    +0.000 C 
ATOM     19  C   UNL     1      25.650   4.987  38.957  0.00  0.00    +0.000 C 
ATOM     20  N   UNL     1      25.007   3.831  38.419  0.00  0.00    +0.000 N 
ATOM     21  C   UNL     1      27.074   4.933  39.383  0.00  0.00    +0.000 C 
ATOM     22  C   UNL     1      23.649   3.959  37.998  0.00  0.00    +0.000 C 
ATOM     23  H   UNL     1      25.505   2.961  38.316  0.00  0.00    +0.000 HD
ATOM     24  C   UNL     1      23.049   5.243  38.157  0.00  0.00    +0.000 C 
ATOM     25  C   UNL     1      22.932   2.809  37.387  0.00  0.00    +0.000 C 
ENDBRANCH  14  17
ENDBRANCH   3  11
BRANCH   8  26
ATOM     26  C   UNL     1      21.957  15.292  31.759  0.00  0.00    +0.000 C 
ATOM     27  C   UNL     1      21.969  16.752  31.293  0.00  0.00    +0.000 C 
BRANCH  27  28
ATOM     28  C   UNL     1      21.986  18.107  30.854  0.00  0.00    +0.000 A 
ATOM     29  C   UNL     1      21.059  19.013  31.361  0.00  0.00    +0.000 A 
ATOM     30  C   UNL     1      21.074  20.344  30.938  0.00  0.00    +0.000 A 
ATOM     31  C   UNL     1      22.031  20.755  30.007  0.00  0.00    +0.000 A 
ATOM     32  C   UNL     1      22.959  19.850  29.492  0.00  0.00    +0.000 A 
ATOM     33  C   UNL     1      22.933  18.522  29.923  0.00  0.00    +0.000 A 
BRANCH  30  34
ATOM     34  O   UNL     1      20.214  21.320  31.377  0.00  0.00    +0.000 OA
ATOM     35  C   UNL     1      19.980  21.339  32.756  0.00  0.00    +0.000 C 
ENDBRANCH  30  34
BRANCH  32  36
ATOM     36  O   UNL     1      23.851  20.365  28.584  0.00  0.00    +0.000 OA
ATOM     37  C   UNL     1      25.181  20.440  29.022  0.00  0.00    +0.000 C 
ENDBRANCH  32  36
ENDBRANCH  27  28
ENDBRANCH   8  26
TORSDOF 6
ENDMDL
MODEL 4
REMARK VINA RESULT:      -6.9     34.798     38.564
REMARK  Name = AZD4547.pdbqt.pdb
REMARK  6 active torsions:
REMARK  status: ('A' for Active; 'I' for Inactive)
REMARK    1  A    between atoms: C_3  and  C_23
REMARK    2  A    between atoms: C_8  and  C_11
REMARK    3  A    between atoms: C_12  and  C_13
REMARK    4  A    between atoms: C_15  and  O_19
REMARK    5  A    between atoms: C_17  and  O_21
REMARK    6  A    between atoms: C_26  and  N_29
REMARK                            x       y       z     vdW  Elec       q    Type
REMARK                         _______ _______ _______ _____ _____    ______ ____
ROOT
ATOM      1  O   UNL     1      21.494  11.735  32.933  0.00  0.00    +0.000 OA
ATOM      2  N   UNL     1      23.209  12.590  34.234  0.00  0.00    +0.000 N 
ATOM      3  C   UNL     1      22.205  12.667  33.295  0.00  0.00    +0.000 C 
ATOM      4  H   UNL     1      23.771  13.385  34.497  0.00  0.00    +0.000 HD
ATOM      5  C   UNL     1      23.555  11.444  34.909  0.00  0.00    +0.000 A 
ATOM      6  N   UNL     1      24.552  11.496  35.798  0.00  0.00    +0.000 NA
ATOM      7  N   UNL     1      24.629  10.236  36.265  0.00  0.00    +0.000 N 
ATOM      8  C   UNL     1      23.719   9.389  35.708  0.00  0.00    +0.000 A 
ATOM      9  H   UNL     1      25.328  10.021  36.968  0.00  0.00    +0.000 HD
ATOM     10  C   UNL     1      23.000  10.144  34.815  0.00  0.00    +0.000 A 
ENDROOT
BRANCH   3  11
ATOM     11  C   UNL     1      21.988  14.002  32.684  0.00  0.00    +0.000 A 
ATOM     12  C   UNL     1      21.898  14.092  31.295  0.00  0.00    +0.000 A 
ATOM     13  C   UNL     1      21.695  15.329  30.687  0.00  0.00    +0.000 A 
ATOM     14  C   UNL     1      21.594  16.502  31.445  0.00  0.00    +0.000 A 
ATOM     15  C   UNL     1      21.669  16.390  32.840  0.00  0.00    +0.000 A 
ATOM     16  C   UNL     1      21.871  15.155  33.456  0.00  0.00    +0.000 A 
BRANCH  14  17
ATOM     17  N   UNL     1      21.344  17.751  30.828  0.00  0.00    +0.000 N 
ATOM     18  C   UNL     1      22.442  18.401  30.091  0.00  0.00    +0.000 C 
ATOM     19  C   UNL     1      23.045  19.692  30.095  0.00  0.00    +0.000 C 
ATOM     20  N   UNL     1      22.508  20.645  31.015  0.00  0.00    +0.000 N 
ATOM     21  C   UNL     1      24.196  20.046  29.223  0.00  0.00    +0.000 C 
ATOM     22  C   UNL     1      21.425  20.232  31.847  0.00  0.00    +0.000 C 
ATOM     23  H   UNL     1      22.899  21.571  31.089  0.00  0.00    +0.000 HD
ATOM     24  C   UNL     1      20.969  18.891  31.682  0.00  0.00    +0.000 C 
ATOM     25  C   UNL     1      20.847  21.157  32.857  0.00  0.00    +0.000 C 
ENDBRANCH  14  17
ENDBRANCH   3  11
BRANCH   8  26
ATOM     26  C   UNL     1      23.581   8.015  36.020  0.00  0.00    +0.000 C 
ATOM     27  C   UNL     1      23.434   6.527  36.355  0.00  0.00    +0.000 C 
BRANCH  27  28
ATOM     28  C   UNL     1      23.302   5.141  36.658  0.00  0.00    +0.000 A 
ATOM     29  C   UNL     1      23.008   4.740  37.958  0.00  0.00    +0.000 A 
ATOM     30  C   UNL     1      22.872   3.383  38.260  0.00  0.00    +0.000 A 
ATOM     31  C   UNL     1      23.030   2.437  37.245  0.00  0.00    +0.000 A 
ATOM     32  C   UNL     1      23.331   2.834  35.941  0.00  0.00    +0.000 A 
ATOM     33  C   UNL     1      23.464   4.193  35.652  0.00  0.00    +0.000 A 
BRANCH  30  34
ATOM     34  O   UNL     1      22.576   2.878  39.502  0.00  0.00    +0.000 OA
ATOM     35  C   UNL     1      23.618   2.190  40.135  0.00  0.00    +0.000 C 
ENDBRANCH  30  34
BRANCH  32  36
ATOM     36  O   UNL     1      23.463   1.818  35.027  0.00  0.00    +0.000 OA
ATOM     37  C   UNL     1      23.833   0.575  35.558  0.00  0.00    +0.000 C 
ENDBRANCH  32  36
ENDBRANCH  27  28
ENDBRANCH   8  26
TORSDOF 6
ENDMDL
MODEL 5
REMARK VINA RESULT:      -6.8      4.650     15.021
REMARK  Name = AZD4547.pdbqt.pdb
REMARK  6 active torsions:
REMARK  status: ('A' for Active; 'I' for Inactive)
REMARK    1  A    between atoms: C_3  and  C_23
REMARK    2  A    between atoms: C_8  and  C_11
REMARK    3  A    between atoms: C_12  and  C_13
REMARK    4  A    between atoms: C_15  and  O_19
REMARK    5  A    between atoms: C_17  and  O_21
REMARK    6  A    between atoms: C_26  and  N_29
REMARK                            x       y       z     vdW  Elec       q    Type
REMARK                         _______ _______ _______ _____ _____    ______ ____
ROOT
ATOM      1  O   UNL     1      47.270   3.070  12.112  0.00  0.00    +0.000 OA
ATOM      2  N   UNL     1      45.302   3.236  13.322  0.00  0.00    +0.000 N 
ATOM      3  C   UNL     1      46.495   3.705  12.819  0.00  0.00    +0.000 C 
ATOM      4  H   UNL     1      44.698   3.795  13.904  0.00  0.00    +0.000 HD
ATOM      5  C   UNL     1      44.805   1.975  13.092  0.00  0.00    +0.000 A 
ATOM      6  N   UNL     1      43.633   1.635  13.639  0.00  0.00    +0.000 NA
ATOM      7  N   UNL     1      43.445   0.368  13.226  0.00  0.00    +0.000 N 
ATOM      8  C   UNL     1      44.451  -0.107  12.438  0.00  0.00    +0.000 A 
ATOM      9  H   UNL     1      42.604  -0.118  13.518  0.00  0.00    +0.000 HD
ATOM     10  C   UNL     1      45.359   0.916  12.330  0.00  0.00    +0.000 A 
ENDROOT
BRANCH   3  11
ATOM     11  C   UNL     1      46.848   5.100  13.183  0.00  0.00    +0.000 A 
ATOM     12  C   UNL     1      46.405   6.135  12.360  0.00  0.00    +0.000 A 
ATOM     13  C   UNL     1      46.718   7.457  12.670  0.00  0.00    +0.000 A 
ATOM     14  C   UNL     1      47.489   7.775  13.795  0.00  0.00    +0.000 A 
ATOM     15  C   UNL     1      47.910   6.723  14.621  0.00  0.00    +0.000 A 
ATOM     16  C   UNL     1      47.600   5.398  14.317  0.00  0.00    +0.000 A 
BRANCH  14  17
ATOM     17  N   UNL     1      47.767   9.121  14.133  0.00  0.00    +0.000 N 
ATOM     18  C   UNL     1      48.550   9.390  15.352  0.00  0.00    +0.000 C 
ATOM     19  C   UNL     1      48.390  10.219  16.501  0.00  0.00    +0.000 C 
ATOM     20  N   UNL     1      47.204  11.014  16.555  0.00  0.00    +0.000 N 
ATOM     21  C   UNL     1      49.374  10.250  17.615  0.00  0.00    +0.000 C 
ATOM     22  C   UNL     1      46.284  10.914  15.468  0.00  0.00    +0.000 C 
ATOM     23  H   UNL     1      47.013  11.607  17.347  0.00  0.00    +0.000 HD
ATOM     24  C   UNL     1      46.636  10.021  14.414  0.00  0.00    +0.000 C 
ATOM     25  C   UNL     1      45.009  11.677  15.480  0.00  0.00    +0.000 C 
ENDBRANCH  14  17
ENDBRANCH   3  11
BRANCH   8  26
ATOM     26  C   UNL     1      44.502  -1.402  11.869  0.00  0.00    +0.000 C 
ATOM     27  C   UNL     1      44.558  -2.802  11.249  0.00  0.00    +0.000 C 
BRANCH  27  28
ATOM     28  C   UNL     1      44.609  -4.101  10.664  0.00  0.00    +0.000 A 
ATOM     29  C   UNL     1      43.439  -4.840  10.512  0.00  0.00    +0.000 A 
ATOM     30  C   UNL     1      43.483  -6.111   9.935  0.00  0.00    +0.000 A 
ATOM     31  C   UNL     1      44.708  -6.628   9.509  0.00  0.00    +0.000 A 
ATOM     32  C   UNL     1      45.884  -5.893   9.664  0.00  0.00    +0.000 A 
ATOM     33  C   UNL     1      45.828  -4.623  10.243  0.00  0.00    +0.000 A 
BRANCH  30  34
ATOM     34  O   UNL     1      42.393  -6.921   9.731  0.00  0.00    +0.000 OA
ATOM     35  C   UNL     1      41.167  -6.398  10.158  0.00  0.00    +0.000 C 
ENDBRANCH  30  34
BRANCH  32  36
ATOM     36  O   UNL     1      47.029  -6.500   9.209  0.00  0.00    +0.000 OA
ATOM     37  C   UNL     1      46.843  -7.739   8.581  0.00  0.00    +0.000 C 
ENDBRANCH  32  36
ENDBRANCH  27  28
ENDBRANCH   8  26
TORSDOF 6
ENDMDL
MODEL 6
REMARK VINA RESULT:      -6.8     30.278     34.113
REMARK  Name = AZD4547.pdbqt.pdb
REMARK  6 active torsions:
REMARK  status: ('A' for Active; 'I' for Inactive)
REMARK    1  A    between atoms: C_3  and  C_23
REMARK    2  A    between atoms: C_8  and  C_11
REMARK    3  A    between atoms: C_12  and  C_13
REMARK    4  A    between atoms: C_15  and  O_19
REMARK    5  A    between atoms: C_17  and  O_21
REMARK    6  A    between atoms: C_26  and  N_29
REMARK                            x       y       z     vdW  Elec       q    Type
REMARK                         _______ _______ _______ _____ _____    ______ ____
ROOT
ATOM      1  O   UNL     1      31.022  22.172  -2.023  0.00  0.00    +0.000 OA
ATOM      2  N   UNL     1      29.697  22.893  -3.780  0.00  0.00    +0.000 N 
ATOM      3  C   UNL     1      30.847  22.385  -3.218  0.00  0.00    +0.000 C 
ATOM      4  H   UNL     1      29.600  23.055  -4.771  0.00  0.00    +0.000 HD
ATOM      5  C   UNL     1      28.570  23.232  -3.071  0.00  0.00    +0.000 A 
ATOM      6  N   UNL     1      27.515  23.719  -3.732  0.00  0.00    +0.000 NA
ATOM      7  N   UNL     1      26.607  23.940  -2.764  0.00  0.00    +0.000 N 
ATOM      8  C   UNL     1      27.044  23.611  -1.516  0.00  0.00    +0.000 A 
ATOM      9  H   UNL     1      25.702  24.319  -3.024  0.00  0.00    +0.000 HD
ATOM     10  C   UNL     1      28.325  23.145  -1.678  0.00  0.00    +0.000 A 
ENDROOT
BRANCH   3  11
ATOM     11  C   UNL     1      31.951  22.081  -4.162  0.00  0.00    +0.000 A 
ATOM     12  C   UNL     1      31.748  21.097  -5.129  0.00  0.00    +0.000 A 
ATOM     13  C   UNL     1      32.762  20.784  -6.031  0.00  0.00    +0.000 A 
ATOM     14  C   UNL     1      34.003  21.432  -5.981  0.00  0.00    +0.000 A 
ATOM     15  C   UNL     1      34.183  22.432  -5.015  0.00  0.00    +0.000 A 
ATOM     16  C   UNL     1      33.172  22.750  -4.108  0.00  0.00    +0.000 A 
BRANCH  14  17
ATOM     17  N   UNL     1      35.016  21.145  -6.927  0.00  0.00    +0.000 N 
ATOM     18  C   UNL     1      34.700  20.228  -8.036  0.00  0.00    +0.000 C 
ATOM     19  C   UNL     1      35.295  19.055  -8.586  0.00  0.00    +0.000 C 
ATOM     20  N   UNL     1      36.494  18.594  -7.962  0.00  0.00    +0.000 N 
ATOM     21  C   UNL     1      34.701  18.311  -9.728  0.00  0.00    +0.000 C 
ATOM     22  C   UNL     1      36.994  19.334  -6.849  0.00  0.00    +0.000 C 
ATOM     23  H   UNL     1      36.957  17.758  -8.282  0.00  0.00    +0.000 HD
ATOM     24  C   UNL     1      36.244  20.483  -6.457  0.00  0.00    +0.000 C 
ATOM     25  C   UNL     1      38.212  18.886  -6.124  0.00  0.00    +0.000 C 
ENDBRANCH  14  17
ENDBRANCH   3  11
BRANCH   8  26
ATOM     26  C   UNL     1      26.292  23.741  -0.324  0.00  0.00    +0.000 C 
ATOM     27  C   UNL     1      25.477  23.886   0.965  0.00  0.00    +0.000 C 
BRANCH  27  28
ATOM     28  C   UNL     1      24.715  24.029   2.161  0.00  0.00    +0.000 A 
ATOM     29  C   UNL     1      23.669  23.150   2.426  0.00  0.00    +0.000 A 
ATOM     30  C   UNL     1      22.922  23.282   3.599  0.00  0.00    +0.000 A 
ATOM     31  C   UNL     1      23.240  24.300   4.502  0.00  0.00    +0.000 A 
ATOM     32  C   UNL     1      24.284  25.186   4.237  0.00  0.00    +0.000 A 
ATOM     33  C   UNL     1      25.023  25.044   3.061  0.00  0.00    +0.000 A 
BRANCH  30  34
ATOM     34  O   UNL     1      21.878  22.469   3.964  0.00  0.00    +0.000 OA
ATOM     35  C   UNL     1      21.689  21.337   3.162  0.00  0.00    +0.000 C 
ENDBRANCH  30  34
BRANCH  32  36
ATOM     36  O   UNL     1      24.505  26.146   5.195  0.00  0.00    +0.000 OA
ATOM     37  C   UNL     1      23.455  26.345   6.101  0.00  0.00    +0.000 C 
ENDBRANCH  32  36
ENDBRANCH  27  28
ENDBRANCH   8  26
TORSDOF 6
ENDMDL
MODEL 7
REMARK VINA RESULT:      -6.7     36.519     38.276
REMARK  Name = AZD4547.pdbqt.pdb
REMARK  6 active torsions:
REMARK  status: ('A' for Active; 'I' for Inactive)
REMARK    1  A    between atoms: C_3  and  C_23
REMARK    2  A    between atoms: C_8  and  C_11
REMARK    3  A    between atoms: C_12  and  C_13
REMARK    4  A    between atoms: C_15  and  O_19
REMARK    5  A    between atoms: C_17  and  O_21
REMARK    6  A    between atoms: C_26  and  N_29
REMARK                            x       y       z     vdW  Elec       q    Type
REMARK                         _______ _______ _______ _____ _____    ______ ____
ROOT
ATOM      1  O   UNL     1      22.573  12.648  36.388  0.00  0.00    +0.000 OA
ATOM      2  N   UNL     1      22.014  11.222  34.652  0.00  0.00    +0.000 N 
ATOM      3  C   UNL     1      22.332  11.526  35.956  0.00  0.00    +0.000 C 
ATOM      4  H   UNL     1      21.827  10.280  34.342  0.00  0.00    +0.000 HD
ATOM      5  C   UNL     1      21.915  12.146  33.640  0.00  0.00    +0.000 A 
ATOM      6  N   UNL     1      21.600  11.725  32.410  0.00  0.00    +0.000 NA
ATOM      7  N   UNL     1      21.587  12.856  31.680  0.00  0.00    +0.000 N 
ATOM      8  C   UNL     1      21.879  13.976  32.399  0.00  0.00    +0.000 A 
ATOM      9  H   UNL     1      21.369  12.793  30.692  0.00  0.00    +0.000 HD
ATOM     10  C   UNL     1      22.101  13.550  33.685  0.00  0.00    +0.000 A 
ENDROOT
BRANCH   3  11
ATOM     11  C   UNL     1      22.383  10.379  36.896  0.00  0.00    +0.000 A 
ATOM     12  C   UNL     1      22.830  10.604  38.198  0.00  0.00    +0.000 A 
ATOM     13  C   UNL     1      22.891   9.551  39.108  0.00  0.00    +0.000 A 
ATOM     14  C   UNL     1      22.525   8.251  38.738  0.00  0.00    +0.000 A 
ATOM     15  C   UNL     1      22.061   8.046  37.431  0.00  0.00    +0.000 A 
ATOM     16  C   UNL     1      21.997   9.096  36.515  0.00  0.00    +0.000 A 
BRANCH  14  17
ATOM     17  N   UNL     1      22.546   7.191  39.676  0.00  0.00    +0.000 N 
ATOM     18  C   UNL     1      22.952   5.853  39.212  0.00  0.00    +0.000 C 
ATOM     19  C   UNL     1      22.405   4.539  39.296  0.00  0.00    +0.000 C 
ATOM     20  N   UNL     1      21.160   4.407  39.983  0.00  0.00    +0.000 N 
ATOM     21  C   UNL     1      23.060   3.354  38.681  0.00  0.00    +0.000 C 
ATOM     22  C   UNL     1      20.567   5.588  40.522  0.00  0.00    +0.000 C 
ATOM     23  H   UNL     1      20.703   3.512  40.061  0.00  0.00    +0.000 HD
ATOM     24  C   UNL     1      21.282   6.807  40.326  0.00  0.00    +0.000 C 
ATOM     25  C   UNL     1      19.250   5.532  41.209  0.00  0.00    +0.000 C 
ENDBRANCH  14  17
ENDBRANCH   3  11
BRANCH   8  26
ATOM     26  C   UNL     1      21.931  15.292  31.880  0.00  0.00    +0.000 C 
ATOM     27  C   UNL     1      21.989  16.715  31.314  0.00  0.00    +0.000 C 
BRANCH  27  28
ATOM     28  C   UNL     1      22.048  18.034  30.780  0.00  0.00    +0.000 A 
ATOM     29  C   UNL     1      21.087  18.974  31.144  0.00  0.00    +0.000 A 
ATOM     30  C   UNL     1      21.142  20.270  30.628  0.00  0.00    +0.000 A 
ATOM     31  C   UNL     1      22.172  20.614  29.749  0.00  0.00    +0.000 A 
ATOM     32  C   UNL     1      23.134  19.674  29.377  0.00  0.00    +0.000 A 
ATOM     33  C   UNL     1      23.068  18.381  29.900  0.00  0.00    +0.000 A 
BRANCH  30  34
ATOM     34  O   UNL     1      20.254  21.275  30.924  0.00  0.00    +0.000 OA
ATOM     35  C   UNL     1      20.576  22.534  30.406  0.00  0.00    +0.000 C 
ENDBRANCH  30  34
BRANCH  32  36
ATOM     36  O   UNL     1      24.098  20.124  28.509  0.00  0.00    +0.000 OA
ATOM     37  C   UNL     1      25.295  20.545  29.104  0.00  0.00    +0.000 C 
ENDBRANCH  32  36
ENDBRANCH  27  28
ENDBRANCH   8  26
TORSDOF 6
ENDMDL
MODEL 8
REMARK VINA RESULT:      -6.4     32.796     34.793
REMARK  Name = AZD4547.pdbqt.pdb
REMARK  6 active torsions:
REMARK  status: ('A' for Active; 'I' for Inactive)
REMARK    1  A    between atoms: C_3  and  C_23
REMARK    2  A    between atoms: C_8  and  C_11
REMARK    3  A    between atoms: C_12  and  C_13
REMARK    4  A    between atoms: C_15  and  O_19
REMARK    5  A    between atoms: C_17  and  O_21
REMARK    6  A    between atoms: C_26  and  N_29
REMARK                            x       y       z     vdW  Elec       q    Type
REMARK                         _______ _______ _______ _____ _____    ______ ____
ROOT
ATOM      1  O   UNL     1      31.092  22.280  -1.816  0.00  0.00    +0.000 OA
ATOM      2  N   UNL     1      29.765  22.913  -3.604  0.00  0.00    +0.000 N 
ATOM      3  C   UNL     1      30.921  22.451  -3.018  0.00  0.00    +0.000 C 
ATOM      4  H   UNL     1      29.672  23.042  -4.601  0.00  0.00    +0.000 HD
ATOM      5  C   UNL     1      28.623  23.246  -2.915  0.00  0.00    +0.000 A 
ATOM      6  N   UNL     1      27.562  23.686  -3.600  0.00  0.00    +0.000 NA
ATOM      7  N   UNL     1      26.641  23.915  -2.646  0.00  0.00    +0.000 N 
ATOM      8  C   UNL     1      27.075  23.635  -1.385  0.00  0.00    +0.000 A 
ATOM      9  H   UNL     1      25.729  24.262  -2.925  0.00  0.00    +0.000 HD
ATOM     10  C   UNL     1      28.369  23.196  -1.522  0.00  0.00    +0.000 A 
ENDROOT
BRANCH   3  11
ATOM     11  C   UNL     1      32.041  22.145  -3.943  0.00  0.00    +0.000 A 
ATOM     12  C   UNL     1      31.891  21.093  -4.845  0.00  0.00    +0.000 A 
ATOM     13  C   UNL     1      32.921  20.777  -5.728  0.00  0.00    +0.000 A 
ATOM     14  C   UNL     1      34.126  21.491  -5.722  0.00  0.00    +0.000 A 
ATOM     15  C   UNL     1      34.253  22.557  -4.821  0.00  0.00    +0.000 A 
ATOM     16  C   UNL     1      33.225  22.879  -3.934  0.00  0.00    +0.000 A 
BRANCH  14  17
ATOM     17  N   UNL     1      35.153  21.198  -6.649  0.00  0.00    +0.000 N 
ATOM     18  C   UNL     1      36.260  22.159  -6.797  0.00  0.00    +0.000 C 
ATOM     19  C   UNL     1      36.887  22.829  -7.889  0.00  0.00    +0.000 C 
ATOM     20  N   UNL     1      36.369  22.551  -9.191  0.00  0.00    +0.000 N 
ATOM     21  C   UNL     1      38.001  23.797  -7.707  0.00  0.00    +0.000 C 
ATOM     22  C   UNL     1      35.277  21.638  -9.293  0.00  0.00    +0.000 C 
ATOM     23  H   UNL     1      36.747  23.006 -10.007  0.00  0.00    +0.000 HD
ATOM     24  C   UNL     1      34.797  21.076  -8.074  0.00  0.00    +0.000 C 
ATOM     25  C   UNL     1      34.659  21.338 -10.612  0.00  0.00    +0.000 C 
ENDBRANCH  14  17
ENDBRANCH   3  11
BRANCH   8  26
ATOM     26  C   UNL     1      26.310  23.783  -0.204  0.00  0.00    +0.000 C 
ATOM     27  C   UNL     1      25.480  23.947   1.074  0.00  0.00    +0.000 C 
BRANCH  27  28
ATOM     28  C   UNL     1      24.706  24.108   2.259  0.00  0.00    +0.000 A 
ATOM     29  C   UNL     1      23.680  23.212   2.545  0.00  0.00    +0.000 A 
ATOM     30  C   UNL     1      22.921  23.362   3.709  0.00  0.00    +0.000 A 
ATOM     31  C   UNL     1      23.206  24.415   4.581  0.00  0.00    +0.000 A 
ATOM     32  C   UNL     1      24.230  25.319   4.295  0.00  0.00    +0.000 A 
ATOM     33  C   UNL     1      24.982  25.158   3.129  0.00  0.00    +0.000 A 
BRANCH  30  34
ATOM     34  O   UNL     1      21.895  22.534   4.092  0.00  0.00    +0.000 OA
ATOM     35  C   UNL     1      21.405  21.683   3.095  0.00  0.00    +0.000 C 
ENDBRANCH  30  34
BRANCH  32  36
ATOM     36  O   UNL     1      24.420  26.314   5.223  0.00  0.00    +0.000 OA
ATOM     37  C   UNL     1      24.976  27.501   4.728  0.00  0.00    +0.000 C 
ENDBRANCH  32  36
ENDBRANCH  27  28
ENDBRANCH   8  26
TORSDOF 6
ENDMDL
MODEL 9
REMARK VINA RESULT:      -6.2     37.038     40.723
REMARK  Name = AZD4547.pdbqt.pdb
REMARK  6 active torsions:
REMARK  status: ('A' for Active; 'I' for Inactive)
REMARK    1  A    between atoms: C_3  and  C_23
REMARK    2  A    between atoms: C_8  and  C_11
REMARK    3  A    between atoms: C_12  and  C_13
REMARK    4  A    between atoms: C_15  and  O_19
REMARK    5  A    between atoms: C_17  and  O_21
REMARK    6  A    between atoms: C_26  and  N_29
REMARK                            x       y       z     vdW  Elec       q    Type
REMARK                         _______ _______ _______ _____ _____    ______ ____
ROOT
ATOM      1  O   UNL     1      20.339  18.808  33.114  0.00  0.00    +0.000 OA
ATOM      2  N   UNL     1      21.379  18.414  31.083  0.00  0.00    +0.000 N 
ATOM      3  C   UNL     1      20.814  18.042  32.282  0.00  0.00    +0.000 C 
ATOM      4  H   UNL     1      21.761  17.746  30.430  0.00  0.00    +0.000 HD
ATOM      5  C   UNL     1      21.485  19.711  30.643  0.00  0.00    +0.000 A 
ATOM      6  N   UNL     1      22.057  19.945  29.457  0.00  0.00    +0.000 NA
ATOM      7  N   UNL     1      22.001  21.284  29.335  0.00  0.00    +0.000 N 
ATOM      8  C   UNL     1      21.414  21.907  30.396  0.00  0.00    +0.000 A 
ATOM      9  H   UNL     1      22.382  21.712  28.498  0.00  0.00    +0.000 HD
ATOM     10  C   UNL     1      21.065  20.910  31.271  0.00  0.00    +0.000 A 
ENDROOT
BRANCH   3  11
ATOM     11  C   UNL     1      20.794  16.586  32.567  0.00  0.00    +0.000 A 
ATOM     12  C   UNL     1      21.809  16.048  33.358  0.00  0.00    +0.000 A 
ATOM     13  C   UNL     1      21.823  14.685  33.646  0.00  0.00    +0.000 A 
ATOM     14  C   UNL     1      20.838  13.827  33.141  0.00  0.00    +0.000 A 
ATOM     15  C   UNL     1      19.815  14.388  32.363  0.00  0.00    +0.000 A 
ATOM     16  C   UNL     1      19.795  15.751  32.071  0.00  0.00    +0.000 A 
BRANCH  14  17
ATOM     17  N   UNL     1      20.829  12.451  33.471  0.00  0.00    +0.000 N 
ATOM     18  C   UNL     1      20.091  12.023  34.672  0.00  0.00    +0.000 C 
ATOM     19  C   UNL     1      20.390  11.236  35.822  0.00  0.00    +0.000 C 
ATOM     20  N   UNL     1      21.710  10.697  35.902  0.00  0.00    +0.000 N 
ATOM     21  C   UNL     1      19.408  11.002  36.914  0.00  0.00    +0.000 C 
ATOM     22  C   UNL     1      22.614  10.986  34.836  0.00  0.00    +0.000 C 
ATOM     23  H   UNL     1      22.000  10.149  36.698  0.00  0.00    +0.000 HD
ATOM     24  C   UNL     1      22.112  11.796  33.775  0.00  0.00    +0.000 C 
ATOM     25  C   UNL     1      24.016  10.495  34.876  0.00  0.00    +0.000 C 
ENDBRANCH  14  17
ENDBRANCH   3  11
BRANCH   8  26
ATOM     26  C   UNL     1      21.224  23.304  30.522  0.00  0.00    +0.000 C 
ATOM     27  C   UNL     1      21.021  24.817  30.662  0.00  0.00    +0.000 C 
BRANCH  27  28
ATOM     28  C   UNL     1      20.835  26.222  30.802  0.00  0.00    +0.000 A 
ATOM     29  C   UNL     1      21.141  27.071  29.742  0.00  0.00    +0.000 A 
ATOM     30  C   UNL     1      20.956  28.450  29.871  0.00  0.00    +0.000 A 
ATOM     31  C   UNL     1      20.458  28.964  31.070  0.00  0.00    +0.000 A 
ATOM     32  C   UNL     1      20.155  28.117  32.137  0.00  0.00    +0.000 A 
ATOM     33  C   UNL     1      20.344  26.741  31.996  0.00  0.00    +0.000 A 
BRANCH  30  34
ATOM     34  O   UNL     1      21.217  29.375  28.890  0.00  0.00    +0.000 OA
ATOM     35  C   UNL     1      20.854  28.994  27.593  0.00  0.00    +0.000 C 
ENDBRANCH  30  34
BRANCH  32  36
ATOM     36  O   UNL     1      19.672  28.734  33.265  0.00  0.00    +0.000 OA
ATOM     37  C   UNL     1      18.445  29.393  33.113  0.00  0.00    +0.000 C 
ENDBRANCH  32  36
ENDBRANCH  27  28
ENDBRANCH   8  26
TORSDOF 6
ENDMDL
