MODEL 1
REMARK VINA RESULT:      -7.0      0.000      0.000
REMARK  Name = Belinostat.pdbqt.pdb
REMARK  6 active torsions:
REMARK  status: ('A' for Active; 'I' for Inactive)
REMARK    1  A    between atoms: C_1  and  S_7
REMARK    2  A    between atoms: C_3  and  C_18
REMARK    3  A    between atoms: S_7  and  N_10
REMARK    4  A    between atoms: N_10  and  C_12
REMARK    5  A    between atoms: C_19  and  C_20
REMARK    6  A    between atoms: N_22  and  O_24
REMARK                            x       y       z     vdW  Elec       q    Type
REMARK                         _______ _______ _______ _____ _____    ______ ____
ROOT
ATOM      1  C   UNL     1      45.745  -7.786   8.935  0.00  0.00    +0.000 A 
ATOM      2  C   UNL     1      44.866  -7.264   9.877  0.00  0.00    +0.000 A 
ATOM      3  C   UNL     1      45.377  -6.543  10.951  0.00  0.00    +0.000 A 
ATOM      4  C   UNL     1      47.117  -7.577   9.027  0.00  0.00    +0.000 A 
ATOM      5  C   UNL     1      46.752  -6.337  11.067  0.00  0.00    +0.000 A 
ATOM      6  C   UNL     1      47.621  -6.853  10.104  0.00  0.00    +0.000 A 
ENDROOT
BRANCH   1   7
ATOM      7  S   UNL     1      45.107  -8.663   7.554  0.00  0.00    +0.000 S 
ATOM      8  O   UNL     1      46.054  -8.497   6.472  0.00  0.00    +0.000 OA
ATOM      9  O   UNL     1      43.716  -8.300   7.391  0.00  0.00    +0.000 OA
BRANCH   7  10
ATOM     10  N   UNL     1      45.207 -10.265   8.031  0.00  0.00    +0.000 N 
ATOM     11  H   UNL     1      44.307 -10.716   8.189  0.00  0.00    +0.000 HD
BRANCH  10  12
ATOM     12  C   UNL     1      46.369 -11.065   7.842  0.00  0.00    +0.000 A 
ATOM     13  C   UNL     1      47.367 -11.186   8.807  0.00  0.00    +0.000 A 
ATOM     14  C   UNL     1      48.443 -12.047   8.605  0.00  0.00    +0.000 A 
ATOM     15  C   UNL     1      48.511 -12.814   7.445  0.00  0.00    +0.000 A 
ATOM     16  C   UNL     1      47.498 -12.725   6.494  0.00  0.00    +0.000 A 
ATOM     17  C   UNL     1      46.425 -11.863   6.699  0.00  0.00    +0.000 A 
ENDBRANCH  10  12
ENDBRANCH   7  10
ENDBRANCH   1   7
BRANCH   3  18
ATOM     18  C   UNL     1      44.492  -6.012  11.935  0.00  0.00    +0.000 C 
ATOM     19  C   UNL     1      43.743  -5.566  12.763  0.00  0.00    +0.000 C 
BRANCH  19  20
ATOM     20  C   UNL     1      42.845  -5.032  13.755  0.00  0.00    +0.000 C 
ATOM     21  O   UNL     1      41.641  -4.968  13.534  0.00  0.00    +0.000 OA
ATOM     22  N   UNL     1      43.421  -4.625  14.926  0.00  0.00    +0.000 N 
ATOM     23  H   UNL     1      44.405  -4.724  15.147  0.00  0.00    +0.000 HD
BRANCH  22  24
ATOM     24  O   UNL     1      42.566  -4.140  15.941  0.00  0.00    +0.000 OA
ATOM     25  H   UNL     1      42.420  -4.936  16.497  0.00  0.00    +0.000 HD
ENDBRANCH  22  24
ENDBRANCH  19  20
ENDBRANCH   3  18
TORSDOF 6
ENDMDL
MODEL 2
REMARK VINA RESULT:      -6.9     37.339     38.688
REMARK  Name = Belinostat.pdbqt.pdb
REMARK  6 active torsions:
REMARK  status: ('A' for Active; 'I' for Inactive)
REMARK    1  A    between atoms: C_1  and  S_7
REMARK    2  A    between atoms: C_3  and  C_18
REMARK    3  A    between atoms: S_7  and  N_10
REMARK    4  A    between atoms: N_10  and  C_12
REMARK    5  A    between atoms: C_19  and  C_20
REMARK    6  A    between atoms: N_22  and  O_24
REMARK                            x       y       z     vdW  Elec       q    Type
REMARK                         _______ _______ _______ _____ _____    ______ ____
ROOT
ATOM      1  C   UNL     1      23.449  20.895   1.623  0.00  0.00    +0.000 A 
ATOM      2  C   UNL     1      23.964  21.999   2.292  0.00  0.00    +0.000 A 
ATOM      3  C   UNL     1      24.650  22.968   1.567  0.00  0.00    +0.000 A 
ATOM      4  C   UNL     1      23.579  20.754   0.246  0.00  0.00    +0.000 A 
ATOM      5  C   UNL     1      24.804  22.834   0.187  0.00  0.00    +0.000 A 
ATOM      6  C   UNL     1      24.266  21.728  -0.473  0.00  0.00    +0.000 A 
ENDROOT
BRANCH   1   7
ATOM      7  S   UNL     1      22.545  19.687   2.522  0.00  0.00    +0.000 S 
ATOM      8  O   UNL     1      23.477  19.043   3.422  0.00  0.00    +0.000 OA
ATOM      9  O   UNL     1      21.760  18.917   1.582  0.00  0.00    +0.000 OA
BRANCH   7  10
ATOM     10  N   UNL     1      21.519  20.601   3.478  0.00  0.00    +0.000 N 
ATOM     11  H   UNL     1      21.690  21.605   3.442  0.00  0.00    +0.000 HD
BRANCH  10  12
ATOM     12  C   UNL     1      20.273  20.120   3.971  0.00  0.00    +0.000 A 
ATOM     13  C   UNL     1      19.107  20.882   3.949  0.00  0.00    +0.000 A 
ATOM     14  C   UNL     1      17.897  20.333   4.367  0.00  0.00    +0.000 A 
ATOM     15  C   UNL     1      17.844  19.007   4.785  0.00  0.00    +0.000 A 
ATOM     16  C   UNL     1      18.998  18.229   4.775  0.00  0.00    +0.000 A 
ATOM     17  C   UNL     1      20.206  18.781   4.357  0.00  0.00    +0.000 A 
ENDBRANCH  10  12
ENDBRANCH   7  10
ENDBRANCH   1   7
BRANCH   3  18
ATOM     18  C   UNL     1      25.198  24.101   2.239  0.00  0.00    +0.000 C 
ATOM     19  C   UNL     1      25.657  25.057   2.803  0.00  0.00    +0.000 C 
BRANCH  19  20
ATOM     20  C   UNL     1      26.208  26.204   3.480  0.00  0.00    +0.000 C 
ATOM     21  O   UNL     1      25.497  26.908   4.189  0.00  0.00    +0.000 OA
ATOM     22  N   UNL     1      27.541  26.432   3.283  0.00  0.00    +0.000 N 
ATOM     23  H   UNL     1      28.154  25.828   2.748  0.00  0.00    +0.000 HD
BRANCH  22  24
ATOM     24  O   UNL     1      28.126  27.520   3.969  0.00  0.00    +0.000 OA
ATOM     25  H   UNL     1      28.215  28.197   3.264  0.00  0.00    +0.000 HD
ENDBRANCH  22  24
ENDBRANCH  19  20
ENDBRANCH   3  18
TORSDOF 6
ENDMDL
MODEL 3
REMARK VINA RESULT:      -6.9      3.627      9.004
REMARK  Name = Belinostat.pdbqt.pdb
REMARK  6 active torsions:
REMARK  status: ('A' for Active; 'I' for Inactive)
REMARK    1  A    between atoms: C_1  and  S_7
REMARK    2  A    between atoms: C_3  and  C_18
REMARK    3  A    between atoms: S_7  and  N_10
REMARK    4  A    between atoms: N_10  and  C_12
REMARK    5  A    between atoms: C_19  and  C_20
REMARK    6  A    between atoms: N_22  and  O_24
REMARK                            x       y       z     vdW  Elec       q    Type
REMARK                         _______ _______ _______ _____ _____    ______ ____
ROOT
ATOM      1  C   UNL     1      44.694  -4.528  12.859  0.00  0.00    +0.000 A 
ATOM      2  C   UNL     1      44.542  -5.409  11.795  0.00  0.00    +0.000 A 
ATOM      3  C   UNL     1      45.664  -6.061  11.293  0.00  0.00    +0.000 A 
ATOM      4  C   UNL     1      45.934  -4.307  13.448  0.00  0.00    +0.000 A 
ATOM      5  C   UNL     1      46.917  -5.839  11.862  0.00  0.00    +0.000 A 
ATOM      6  C   UNL     1      47.051  -4.963  12.940  0.00  0.00    +0.000 A 
ENDROOT
BRANCH   1   7
ATOM      7  S   UNL     1      43.279  -3.731  13.528  0.00  0.00    +0.000 S 
ATOM      8  O   UNL     1      43.686  -3.120  14.775  0.00  0.00    +0.000 OA
ATOM      9  O   UNL     1      42.171  -4.660  13.477  0.00  0.00    +0.000 OA
BRANCH   7  10
ATOM     10  N   UNL     1      42.996  -2.477  12.455  0.00  0.00    +0.000 N 
ATOM     11  H   UNL     1      42.064  -2.476  12.042  0.00  0.00    +0.000 HD
BRANCH  10  12
ATOM     12  C   UNL     1      43.782  -1.291  12.415  0.00  0.00    +0.000 A 
ATOM     13  C   UNL     1      44.954  -1.187  11.667  0.00  0.00    +0.000 A 
ATOM     14  C   UNL     1      45.641   0.022  11.597  0.00  0.00    +0.000 A 
ATOM     15  C   UNL     1      45.143   1.143  12.253  0.00  0.00    +0.000 A 
ATOM     16  C   UNL     1      43.953   1.056  12.972  0.00  0.00    +0.000 A 
ATOM     17  C   UNL     1      43.270  -0.154  13.041  0.00  0.00    +0.000 A 
ENDBRANCH  10  12
ENDBRANCH   7  10
ENDBRANCH   1   7
BRANCH   3  18
ATOM     18  C   UNL     1      45.529  -6.958  10.192  0.00  0.00    +0.000 C 
ATOM     19  C   UNL     1      45.418  -7.712   9.264  0.00  0.00    +0.000 C 
BRANCH  19  20
ATOM     20  C   UNL     1      45.286  -8.618   8.150  0.00  0.00    +0.000 C 
ATOM     21  O   UNL     1      46.237  -9.300   7.786  0.00  0.00    +0.000 OA
ATOM     22  N   UNL     1      44.055  -8.660   7.557  0.00  0.00    +0.000 N 
ATOM     23  H   UNL     1      43.244  -8.147   7.881  0.00  0.00    +0.000 HD
BRANCH  22  24
ATOM     24  O   UNL     1      43.874  -9.571   6.493  0.00  0.00    +0.000 OA
ATOM     25  H   UNL     1      42.954  -9.886   6.632  0.00  0.00    +0.000 HD
ENDBRANCH  22  24
ENDBRANCH  19  20
ENDBRANCH   3  18
TORSDOF 6
ENDMDL
MODEL 4
REMARK VINA RESULT:      -6.8      5.934      8.948
REMARK  Name = Belinostat.pdbqt.pdb
REMARK  6 active torsions:
REMARK  status: ('A' for Active; 'I' for Inactive)
REMARK    1  A    between atoms: C_1  and  S_7
REMARK    2  A    between atoms: C_3  and  C_18
REMARK    3  A    between atoms: S_7  and  N_10
REMARK    4  A    between atoms: N_10  and  C_12
REMARK    5  A    between atoms: C_19  and  C_20
REMARK    6  A    between atoms: N_22  and  O_24
REMARK                            x       y       z     vdW  Elec       q    Type
REMARK                         _______ _______ _______ _____ _____    ______ ____
ROOT
ATOM      1  C   UNL     1      42.883  -1.604  13.963  0.00  0.00    +0.000 A 
ATOM      2  C   UNL     1      43.878  -0.684  13.652  0.00  0.00    +0.000 A 
ATOM      3  C   UNL     1      43.601   0.674  13.768  0.00  0.00    +0.000 A 
ATOM      4  C   UNL     1      41.631  -1.197  14.414  0.00  0.00    +0.000 A 
ATOM      5  C   UNL     1      42.346   1.100  14.203  0.00  0.00    +0.000 A 
ATOM      6  C   UNL     1      41.363   0.164  14.528  0.00  0.00    +0.000 A 
ENDROOT
BRANCH   1   7
ATOM      7  S   UNL     1      43.234  -3.322  13.861  0.00  0.00    +0.000 S 
ATOM      8  O   UNL     1      41.966  -4.018  13.916  0.00  0.00    +0.000 OA
ATOM      9  O   UNL     1      44.294  -3.624  14.798  0.00  0.00    +0.000 OA
BRANCH   7  10
ATOM     10  N   UNL     1      43.809  -3.508  12.299  0.00  0.00    +0.000 N 
ATOM     11  H   UNL     1      44.691  -3.033  12.114  0.00  0.00    +0.000 HD
BRANCH  10  12
ATOM     12  C   UNL     1      43.372  -4.541  11.423  0.00  0.00    +0.000 A 
ATOM     13  C   UNL     1      42.543  -4.302  10.328  0.00  0.00    +0.000 A 
ATOM     14  C   UNL     1      42.212  -5.336   9.455  0.00  0.00    +0.000 A 
ATOM     15  C   UNL     1      42.732  -6.610   9.659  0.00  0.00    +0.000 A 
ATOM     16  C   UNL     1      43.590  -6.848  10.730  0.00  0.00    +0.000 A 
ATOM     17  C   UNL     1      43.918  -5.812  11.601  0.00  0.00    +0.000 A 
ENDBRANCH  10  12
ENDBRANCH   7  10
ENDBRANCH   1   7
BRANCH   3  18
ATOM     18  C   UNL     1      44.605   1.633  13.439  0.00  0.00    +0.000 C 
ATOM     19  C   UNL     1      45.452   2.439  13.165  0.00  0.00    +0.000 C 
BRANCH  19  20
ATOM     20  C   UNL     1      46.469   3.407  12.837  0.00  0.00    +0.000 C 
ATOM     21  O   UNL     1      47.354   3.131  12.036  0.00  0.00    +0.000 OA
ATOM     22  N   UNL     1      46.366   4.618  13.463  0.00  0.00    +0.000 N 
ATOM     23  H   UNL     1      45.609   4.881  14.083  0.00  0.00    +0.000 HD
BRANCH  22  24
ATOM     24  O   UNL     1      47.317   5.608  13.130  0.00  0.00    +0.000 OA
ATOM     25  H   UNL     1      47.822   5.186  12.401  0.00  0.00    +0.000 HD
ENDBRANCH  22  24
ENDBRANCH  19  20
ENDBRANCH   3  18
TORSDOF 6
ENDMDL
MODEL 5
REMARK VINA RESULT:      -6.5     37.295     39.109
REMARK  Name = Belinostat.pdbqt.pdb
REMARK  6 active torsions:
REMARK  status: ('A' for Active; 'I' for Inactive)
REMARK    1  A    between atoms: C_1  and  S_7
REMARK    2  A    between atoms: C_3  and  C_18
REMARK    3  A    between atoms: S_7  and  N_10
REMARK    4  A    between atoms: N_10  and  C_12
REMARK    5  A    between atoms: C_19  and  C_20
REMARK    6  A    between atoms: N_22  and  O_24
REMARK                            x       y       z     vdW  Elec       q    Type
REMARK                         _______ _______ _______ _____ _____    ______ ____
ROOT
ATOM      1  C   UNL     1      21.718  19.696   2.343  0.00  0.00    +0.000 A 
ATOM      2  C   UNL     1      21.901  20.808   3.157  0.00  0.00    +0.000 A 
ATOM      3  C   UNL     1      22.559  21.920   2.641  0.00  0.00    +0.000 A 
ATOM      4  C   UNL     1      22.151  19.683   1.021  0.00  0.00    +0.000 A 
ATOM      5  C   UNL     1      23.013  21.918   1.323  0.00  0.00    +0.000 A 
ATOM      6  C   UNL     1      22.807  20.800   0.513  0.00  0.00    +0.000 A 
ENDROOT
BRANCH   1   7
ATOM      7  S   UNL     1      20.853  18.302   2.971  0.00  0.00    +0.000 S 
ATOM      8  O   UNL     1      21.833  17.442   3.599  0.00  0.00    +0.000 OA
ATOM      9  O   UNL     1      19.981  17.805   1.929  0.00  0.00    +0.000 OA
BRANCH   7  10
ATOM     10  N   UNL     1      19.924  18.945   4.207  0.00  0.00    +0.000 N 
ATOM     11  H   UNL     1      20.460  19.400   4.945  0.00  0.00    +0.000 HD
BRANCH  10  12
ATOM     12  C   UNL     1      18.534  19.222   4.077  0.00  0.00    +0.000 A 
ATOM     13  C   UNL     1      18.048  20.370   3.455  0.00  0.00    +0.000 A 
ATOM     14  C   UNL     1      16.678  20.553   3.282  0.00  0.00    +0.000 A 
ATOM     15  C   UNL     1      15.787  19.571   3.707  0.00  0.00    +0.000 A 
ATOM     16  C   UNL     1      16.268  18.405   4.296  0.00  0.00    +0.000 A 
ATOM     17  C   UNL     1      17.638  18.227   4.468  0.00  0.00    +0.000 A 
ENDBRANCH  10  12
ENDBRANCH   7  10
ENDBRANCH   1   7
BRANCH   3  18
ATOM     18  C   UNL     1      22.768  23.066   3.466  0.00  0.00    +0.000 C 
ATOM     19  C   UNL     1      22.946  24.028   4.162  0.00  0.00    +0.000 C 
BRANCH  19  20
ATOM     20  C   UNL     1      23.160  25.183   4.998  0.00  0.00    +0.000 C 
ATOM     21  O   UNL     1      23.227  26.303   4.505  0.00  0.00    +0.000 OA
ATOM     22  N   UNL     1      23.270  24.939   6.338  0.00  0.00    +0.000 N 
ATOM     23  H   UNL     1      23.160  24.027   6.767  0.00  0.00    +0.000 HD
BRANCH  22  24
ATOM     24  O   UNL     1      23.432  26.051   7.194  0.00  0.00    +0.000 OA
ATOM     25  H   UNL     1      24.025  25.701   7.893  0.00  0.00    +0.000 HD
ENDBRANCH  22  24
ENDBRANCH  19  20
ENDBRANCH   3  18
TORSDOF 6
ENDMDL
MODEL 6
REMARK VINA RESULT:      -6.5     37.848     39.670
REMARK  Name = Belinostat.pdbqt.pdb
REMARK  6 active torsions:
REMARK  status: ('A' for Active; 'I' for Inactive)
REMARK    1  A    between atoms: C_1  and  S_7
REMARK    2  A    between atoms: C_3  and  C_18
REMARK    3  A    between atoms: S_7  and  N_10
REMARK    4  A    between atoms: N_10  and  C_12
REMARK    5  A    between atoms: C_19  and  C_20
REMARK    6  A    between atoms: N_22  and  O_24
REMARK                            x       y       z     vdW  Elec       q    Type
REMARK                         _______ _______ _______ _____ _____    ______ ____
ROOT
ATOM      1  C   UNL     1      23.470  22.515   2.000  0.00  0.00    +0.000 A 
ATOM      2  C   UNL     1      22.451  22.061   2.830  0.00  0.00    +0.000 A 
ATOM      3  C   UNL     1      21.886  20.814   2.585  0.00  0.00    +0.000 A 
ATOM      4  C   UNL     1      23.955  21.738   0.953  0.00  0.00    +0.000 A 
ATOM      5  C   UNL     1      22.351  20.028   1.530  0.00  0.00    +0.000 A 
ATOM      6  C   UNL     1      23.386  20.491   0.716  0.00  0.00    +0.000 A 
ENDROOT
BRANCH   1   7
ATOM      7  S   UNL     1      24.217  24.071   2.325  0.00  0.00    +0.000 S 
ATOM      8  O   UNL     1      23.324  25.086   1.811  0.00  0.00    +0.000 OA
ATOM      9  O   UNL     1      25.599  24.006   1.900  0.00  0.00    +0.000 OA
BRANCH   7  10
ATOM     10  N   UNL     1      24.159  24.189   3.994  0.00  0.00    +0.000 N 
ATOM     11  H   UNL     1      24.442  23.343   4.488  0.00  0.00    +0.000 HD
BRANCH  10  12
ATOM     12  C   UNL     1      24.132  25.431   4.689  0.00  0.00    +0.000 A 
ATOM     13  C   UNL     1      24.885  26.534   4.293  0.00  0.00    +0.000 A 
ATOM     14  C   UNL     1      24.759  27.751   4.959  0.00  0.00    +0.000 A 
ATOM     15  C   UNL     1      23.857  27.876   6.012  0.00  0.00    +0.000 A 
ATOM     16  C   UNL     1      23.076  26.787   6.390  0.00  0.00    +0.000 A 
ATOM     17  C   UNL     1      23.205  25.573   5.722  0.00  0.00    +0.000 A 
ENDBRANCH  10  12
ENDBRANCH   7  10
ENDBRANCH   1   7
BRANCH   3  18
ATOM     18  C   UNL     1      20.830  20.338   3.417  0.00  0.00    +0.000 C 
ATOM     19  C   UNL     1      19.941  19.939   4.119  0.00  0.00    +0.000 C 
BRANCH  19  20
ATOM     20  C   UNL     1      18.874  19.462   4.963  0.00  0.00    +0.000 C 
ATOM     21  O   UNL     1      18.246  20.240   5.672  0.00  0.00    +0.000 OA
ATOM     22  N   UNL     1      18.620  18.120   4.905  0.00  0.00    +0.000 N 
ATOM     23  H   UNL     1      19.091  17.473   4.283  0.00  0.00    +0.000 HD
BRANCH  22  24
ATOM     24  O   UNL     1      17.550  17.623   5.681  0.00  0.00    +0.000 OA
ATOM     25  H   UNL     1      17.240  18.423   6.158  0.00  0.00    +0.000 HD
ENDBRANCH  22  24
ENDBRANCH  19  20
ENDBRANCH   3  18
TORSDOF 6
ENDMDL
MODEL 7
REMARK VINA RESULT:      -6.4     22.511     24.335
REMARK  Name = Belinostat.pdbqt.pdb
REMARK  6 active torsions:
REMARK  status: ('A' for Active; 'I' for Inactive)
REMARK    1  A    between atoms: C_1  and  S_7
REMARK    2  A    between atoms: C_3  and  C_18
REMARK    3  A    between atoms: S_7  and  N_10
REMARK    4  A    between atoms: N_10  and  C_12
REMARK    5  A    between atoms: C_19  and  C_20
REMARK    6  A    between atoms: N_22  and  O_24
REMARK                            x       y       z     vdW  Elec       q    Type
REMARK                         _______ _______ _______ _____ _____    ______ ____
ROOT
ATOM      1  C   UNL     1      40.179  11.475  20.093  0.00  0.00    +0.000 A 
ATOM      2  C   UNL     1      38.953  10.972  19.672  0.00  0.00    +0.000 A 
ATOM      3  C   UNL     1      38.228  10.153  20.531  0.00  0.00    +0.000 A 
ATOM      4  C   UNL     1      40.679  11.202  21.362  0.00  0.00    +0.000 A 
ATOM      5  C   UNL     1      38.722   9.857  21.802  0.00  0.00    +0.000 A 
ATOM      6  C   UNL     1      39.946  10.383  22.217  0.00  0.00    +0.000 A 
ENDROOT
BRANCH   1   7
ATOM      7  S   UNL     1      41.084  12.542  19.032  0.00  0.00    +0.000 S 
ATOM      8  O   UNL     1      40.738  12.183  17.674  0.00  0.00    +0.000 OA
ATOM      9  O   UNL     1      42.462  12.556  19.474  0.00  0.00    +0.000 OA
BRANCH   7  10
ATOM     10  N   UNL     1      40.398  14.043  19.315  0.00  0.00    +0.000 N 
ATOM     11  H   UNL     1      39.511  14.015  19.815  0.00  0.00    +0.000 HD
BRANCH  10  12
ATOM     12  C   UNL     1      41.133  15.261  19.257  0.00  0.00    +0.000 A 
ATOM     13  C   UNL     1      41.517  15.965  20.397  0.00  0.00    +0.000 A 
ATOM     14  C   UNL     1      42.306  17.108  20.288  0.00  0.00    +0.000 A 
ATOM     15  C   UNL     1      42.737  17.537  19.036  0.00  0.00    +0.000 A 
ATOM     16  C   UNL     1      42.388  16.817  17.897  0.00  0.00    +0.000 A 
ATOM     17  C   UNL     1      41.599  15.676  18.010  0.00  0.00    +0.000 A 
ENDBRANCH  10  12
ENDBRANCH   7  10
ENDBRANCH   1   7
BRANCH   3  18
ATOM     18  C   UNL     1      36.975   9.616  20.110  0.00  0.00    +0.000 C 
ATOM     19  C   UNL     1      35.919   9.165  19.759  0.00  0.00    +0.000 C 
BRANCH  19  20
ATOM     20  C   UNL     1      34.651   8.623  19.338  0.00  0.00    +0.000 C 
ATOM     21  O   UNL     1      34.516   7.416  19.168  0.00  0.00    +0.000 OA
ATOM     22  N   UNL     1      33.643   9.528  19.160  0.00  0.00    +0.000 N 
ATOM     23  H   UNL     1      33.722  10.520  19.352  0.00  0.00    +0.000 HD
BRANCH  22  24
ATOM     24  O   UNL     1      32.374   9.029  18.794  0.00  0.00    +0.000 OA
ATOM     25  H   UNL     1      31.925   9.824  18.434  0.00  0.00    +0.000 HD
ENDBRANCH  22  24
ENDBRANCH  19  20
ENDBRANCH   3  18
TORSDOF 6
ENDMDL
MODEL 8
REMARK VINA RESULT:      -6.2     37.781     40.761
REMARK  Name = Belinostat.pdbqt.pdb
REMARK  6 active torsions:
REMARK  status: ('A' for Active; 'I' for Inactive)
REMARK    1  A    between atoms: C_1  and  S_7
REMARK    2  A    between atoms: C_3  and  C_18
REMARK    3  A    between atoms: S_7  and  N_10
REMARK    4  A    between atoms: N_10  and  C_12
REMARK    5  A    between atoms: C_19  and  C_20
REMARK    6  A    between atoms: N_22  and  O_24
REMARK                            x       y       z     vdW  Elec       q    Type
REMARK                         _______ _______ _______ _____ _____    ______ ____
ROOT
ATOM      1  C   UNL     1      10.521  12.345  16.272  0.00  0.00    +0.000 A 
ATOM      2  C   UNL     1      11.153  13.421  16.885  0.00  0.00    +0.000 A 
ATOM      3  C   UNL     1      10.480  14.123  17.879  0.00  0.00    +0.000 A 
ATOM      4  C   UNL     1       9.245  11.939  16.652  0.00  0.00    +0.000 A 
ATOM      5  C   UNL     1       9.194  13.739  18.261  0.00  0.00    +0.000 A 
ATOM      6  C   UNL     1       8.579  12.646  17.649  0.00  0.00    +0.000 A 
ENDROOT
BRANCH   1   7
ATOM      7  S   UNL     1      11.377  11.427  15.044  0.00  0.00    +0.000 S 
ATOM      8  O   UNL     1      10.395  10.607  14.366  0.00  0.00    +0.000 OA
ATOM      9  O   UNL     1      12.549  10.839  15.655  0.00  0.00    +0.000 OA
BRANCH   7  10
ATOM     10  N   UNL     1      11.856  12.598  13.947  0.00  0.00    +0.000 N 
ATOM     11  H   UNL     1      11.992  13.524  14.350  0.00  0.00    +0.000 HD
BRANCH  10  12
ATOM     12  C   UNL     1      12.426  12.294  12.678  0.00  0.00    +0.000 A 
ATOM     13  C   UNL     1      11.807  12.625  11.475  0.00  0.00    +0.000 A 
ATOM     14  C   UNL     1      12.447  12.379  10.262  0.00  0.00    +0.000 A 
ATOM     15  C   UNL     1      13.723  11.824  10.250  0.00  0.00    +0.000 A 
ATOM     16  C   UNL     1      14.361  11.524  11.450  0.00  0.00    +0.000 A 
ATOM     17  C   UNL     1      13.719  11.771  12.660  0.00  0.00    +0.000 A 
ENDBRANCH  10  12
ENDBRANCH   7  10
ENDBRANCH   1   7
BRANCH   3  18
ATOM     18  C   UNL     1      11.107  15.238  18.509  0.00  0.00    +0.000 C 
ATOM     19  C   UNL     1      11.639  16.176  19.040  0.00  0.00    +0.000 C 
BRANCH  19  20
ATOM     20  C   UNL     1      12.277  17.301  19.676  0.00  0.00    +0.000 C 
ATOM     21  O   UNL     1      11.610  18.137  20.275  0.00  0.00    +0.000 OA
ATOM     22  N   UNL     1      13.638  17.355  19.570  0.00  0.00    +0.000 N 
ATOM     23  H   UNL     1      14.209  16.643  19.128  0.00  0.00    +0.000 HD
BRANCH  22  24
ATOM     24  O   UNL     1      14.303  18.417  20.222  0.00  0.00    +0.000 OA
ATOM     25  H   UNL     1      14.010  18.315  21.154  0.00  0.00    +0.000 HD
ENDBRANCH  22  24
ENDBRANCH  19  20
ENDBRANCH   3  18
TORSDOF 6
ENDMDL
MODEL 9
REMARK VINA RESULT:      -6.2     37.647     39.432
REMARK  Name = Belinostat.pdbqt.pdb
REMARK  6 active torsions:
REMARK  status: ('A' for Active; 'I' for Inactive)
REMARK    1  A    between atoms: C_1  and  S_7
REMARK    2  A    between atoms: C_3  and  C_18
REMARK    3  A    between atoms: S_7  and  N_10
REMARK    4  A    between atoms: N_10  and  C_12
REMARK    5  A    between atoms: C_19  and  C_20
REMARK    6  A    between atoms: N_22  and  O_24
REMARK                            x       y       z     vdW  Elec       q    Type
REMARK                         _______ _______ _______ _____ _____    ______ ____
ROOT
ATOM      1  C   UNL     1      22.831  22.439   3.061  0.00  0.00    +0.000 A 
ATOM      2  C   UNL     1      21.686  21.861   3.596  0.00  0.00    +0.000 A 
ATOM      3  C   UNL     1      21.370  20.550   3.258  0.00  0.00    +0.000 A 
ATOM      4  C   UNL     1      23.681  21.726   2.221  0.00  0.00    +0.000 A 
ATOM      5  C   UNL     1      22.202  19.825   2.405  0.00  0.00    +0.000 A 
ATOM      6  C   UNL     1      23.358  20.414   1.889  0.00  0.00    +0.000 A 
ENDROOT
BRANCH   1   7
ATOM      7  S   UNL     1      23.261  24.080   3.514  0.00  0.00    +0.000 S 
ATOM      8  O   UNL     1      23.172  24.160   4.956  0.00  0.00    +0.000 OA
ATOM      9  O   UNL     1      22.522  24.992   2.668  0.00  0.00    +0.000 OA
BRANCH   7  10
ATOM     10  N   UNL     1      24.890  24.174   3.134  0.00  0.00    +0.000 N 
ATOM     11  H   UNL     1      25.329  23.277   2.934  0.00  0.00    +0.000 HD
BRANCH  10  12
ATOM     12  C   UNL     1      25.527  25.376   2.714  0.00  0.00    +0.000 A 
ATOM     13  C   UNL     1      26.173  26.236   3.598  0.00  0.00    +0.000 A 
ATOM     14  C   UNL     1      26.851  27.357   3.124  0.00  0.00    +0.000 A 
ATOM     15  C   UNL     1      26.908  27.606   1.756  0.00  0.00    +0.000 A 
ATOM     16  C   UNL     1      26.296  26.731   0.864  0.00  0.00    +0.000 A 
ATOM     17  C   UNL     1      25.618  25.612   1.342  0.00  0.00    +0.000 A 
ENDBRANCH  10  12
ENDBRANCH   7  10
ENDBRANCH   1   7
BRANCH   3  18
ATOM     18  C   UNL     1      20.191  19.945   3.786  0.00  0.00    +0.000 C 
ATOM     19  C   UNL     1      19.196  19.437   4.228  0.00  0.00    +0.000 C 
BRANCH  19  20
ATOM     20  C   UNL     1      18.002  18.827   4.758  0.00  0.00    +0.000 C 
ATOM     21  O   UNL     1      16.969  19.477   4.869  0.00  0.00    +0.000 OA
ATOM     22  N   UNL     1      18.108  17.510   5.107  0.00  0.00    +0.000 N 
ATOM     23  H   UNL     1      18.937  16.944   4.968  0.00  0.00    +0.000 HD
BRANCH  22  24
ATOM     24  O   UNL     1      16.945  16.866   5.585  0.00  0.00    +0.000 OA
ATOM     25  H   UNL     1      17.311  16.108   6.090  0.00  0.00    +0.000 HD
ENDBRANCH  22  24
ENDBRANCH  19  20
ENDBRANCH   3  18
TORSDOF 6
ENDMDL
