REMARK  Name = Belinostat.pdbqt.pdb
REMARK  6 active torsions:
REMARK  status: ('A' for Active; 'I' for Inactive)
REMARK    1  A    between atoms: C_1  and  S_7
REMARK    2  A    between atoms: C_3  and  C_18
REMARK    3  A    between atoms: S_7  and  N_10
REMARK    4  A    between atoms: N_10  and  C_12
REMARK    5  A    between atoms: C_19  and  C_20
REMARK    6  A    between atoms: N_22  and  O_24
REMARK                            x       y       z     vdW  Elec       q    Type
REMARK                         _______ _______ _______ _____ _____    ______ ____
ROOT
ATOM      1  C   UNL     1      -1.484  -1.030  -0.290  0.00  0.00    +0.000 A 
ATOM      2  C   UNL     1      -0.143  -0.769  -0.547  0.00  0.00    +0.000 A 
ATOM      3  C   UNL     1       0.828  -1.419   0.208  0.00  0.00    +0.000 A 
ATOM      4  C   UNL     1      -1.873  -1.946   0.682  0.00  0.00    +0.000 A 
ATOM      5  C   UNL     1       0.455  -2.329   1.197  0.00  0.00    +0.000 A 
ATOM      6  C   UNL     1      -0.895  -2.593   1.432  0.00  0.00    +0.000 A 
ENDROOT
BRANCH   1   7
ATOM      7  S   UNL     1      -2.717  -0.246  -1.264  0.00  0.00    +0.000 S 
ATOM      8  O   UNL     1      -3.677  -1.264  -1.633  0.00  0.00    +0.000 OA
ATOM      9  O   UNL     1      -2.056   0.558  -2.269  0.00  0.00    +0.000 OA
BRANCH   7  10
ATOM     10  N   UNL     1      -3.491   0.762  -0.173  0.00  0.00    +0.000 N 
ATOM     11  H   UNL     1      -4.381   0.406   0.173  0.00  0.00    +0.000 HD
BRANCH  10  12
ATOM     12  C   UNL     1      -2.827   1.801   0.538  0.00  0.00    +0.000 A 
ATOM     13  C   UNL     1      -1.637   2.376   0.097  0.00  0.00    +0.000 A 
ATOM     14  C   UNL     1      -1.072   3.446   0.787  0.00  0.00    +0.000 A 
ATOM     15  C   UNL     1      -1.712   3.964   1.909  0.00  0.00    +0.000 A 
ATOM     16  C   UNL     1      -2.920   3.418   2.334  0.00  0.00    +0.000 A 
ATOM     17  C   UNL     1      -3.481   2.348   1.642  0.00  0.00    +0.000 A 
ENDBRANCH  10  12
ENDBRANCH   7  10
ENDBRANCH   1   7
BRANCH   3  18
ATOM     18  C   UNL     1       2.209  -1.153  -0.032  0.00  0.00    +0.000 C 
ATOM     19  C   UNL     1       3.371  -0.926  -0.233  0.00  0.00    +0.000 C 
BRANCH  19  20
ATOM     20  C   UNL     1       4.766  -0.653  -0.474  0.00  0.00    +0.000 C 
ATOM     21  O   UNL     1       5.612  -0.957   0.359  0.00  0.00    +0.000 OA
ATOM     22  N   UNL     1       5.061  -0.057  -1.668  0.00  0.00    +0.000 N 
ATOM     23  H   UNL     1       4.381   0.148  -2.391  0.00  0.00    +0.000 HD
BRANCH  22  24
ATOM     24  O   UNL     1       6.422   0.182  -1.960  0.00  0.00    +0.000 OA
ATOM     25  H   UNL     1       6.878  -0.166  -1.163  0.00  0.00    +0.000 HD
ENDBRANCH  22  24
ENDBRANCH  19  20
ENDBRANCH   3  18
TORSDOF 6
