MODEL 1
REMARK VINA RESULT:      -8.8      0.000      0.000
REMARK  Name = Benzo[a]pyrene.pdbqt.pdb
REMARK  0 active torsions:
REMARK  status: ('A' for Active; 'I' for Inactive)
REMARK                            x       y       z     vdW  Elec       q    Type
REMARK                         _______ _______ _______ _____ _____    ______ ____
ROOT
ATOM      1  C   UNL     1      45.033  -6.082  11.668  0.00  0.00    +0.000 A 
ATOM      2  C   UNL     1      44.232  -5.511  12.682  0.00  0.00    +0.000 A 
ATOM      3  C   UNL     1      44.438  -6.803  10.608  0.00  0.00    +0.000 A 
ATOM      4  C   UNL     1      46.434  -5.924  11.728  0.00  0.00    +0.000 A 
ATOM      5  C   UNL     1      45.266  -7.365   9.605  0.00  0.00    +0.000 A 
ATOM      6  C   UNL     1      42.831  -5.658  12.641  0.00  0.00    +0.000 A 
ATOM      7  C   UNL     1      44.832  -4.793  13.738  0.00  0.00    +0.000 A 
ATOM      8  C   UNL     1      46.667  -7.195   9.684  0.00  0.00    +0.000 A 
ATOM      9  C   UNL     1      47.234  -6.482  10.736  0.00  0.00    +0.000 A 
ATOM     10  C   UNL     1      43.039  -6.929  10.599  0.00  0.00    +0.000 A 
ATOM     11  C   UNL     1      47.012  -5.212  12.778  0.00  0.00    +0.000 A 
ATOM     12  C   UNL     1      42.244  -6.367  11.597  0.00  0.00    +0.000 A 
ATOM     13  C   UNL     1      46.218  -4.649  13.777  0.00  0.00    +0.000 A 
ATOM     14  C   UNL     1      42.049  -5.090  13.646  0.00  0.00    +0.000 A 
ATOM     15  C   UNL     1      44.031  -4.233  14.734  0.00  0.00    +0.000 A 
ATOM     16  C   UNL     1      44.752  -8.095   8.520  0.00  0.00    +0.000 A 
ATOM     17  C   UNL     1      47.500  -7.740   8.707  0.00  0.00    +0.000 A 
ATOM     18  C   UNL     1      42.646  -4.381  14.688  0.00  0.00    +0.000 A 
ATOM     19  C   UNL     1      45.589  -8.636   7.548  0.00  0.00    +0.000 A 
ATOM     20  C   UNL     1      46.965  -8.459   7.642  0.00  0.00    +0.000 A 
ENDROOT
TORSDOF 0
ENDMDL
MODEL 2
REMARK VINA RESULT:      -8.5      0.810      2.964
REMARK  Name = Benzo[a]pyrene.pdbqt.pdb
REMARK  0 active torsions:
REMARK  status: ('A' for Active; 'I' for Inactive)
REMARK                            x       y       z     vdW  Elec       q    Type
REMARK                         _______ _______ _______ _____ _____    ______ ____
ROOT
ATOM      1  C   UNL     1      44.589  -6.262  10.885  0.00  0.00    +0.000 A 
ATOM      2  C   UNL     1      44.383  -5.533  12.077  0.00  0.00    +0.000 A 
ATOM      3  C   UNL     1      45.894  -6.627  10.487  0.00  0.00    +0.000 A 
ATOM      4  C   UNL     1      43.474  -6.621  10.098  0.00  0.00    +0.000 A 
ATOM      5  C   UNL     1      46.071  -7.359   9.286  0.00  0.00    +0.000 A 
ATOM      6  C   UNL     1      45.483  -5.165  12.878  0.00  0.00    +0.000 A 
ATOM      7  C   UNL     1      43.077  -5.171  12.471  0.00  0.00    +0.000 A 
ATOM      8  C   UNL     1      44.941  -7.708   8.512  0.00  0.00    +0.000 A 
ATOM      9  C   UNL     1      43.663  -7.339   8.922  0.00  0.00    +0.000 A 
ATOM     10  C   UNL     1      46.968  -6.244  11.309  0.00  0.00    +0.000 A 
ATOM     11  C   UNL     1      42.189  -6.256  10.500  0.00  0.00    +0.000 A 
ATOM     12  C   UNL     1      46.769  -5.524  12.487  0.00  0.00    +0.000 A 
ATOM     13  C   UNL     1      41.991  -5.536  11.677  0.00  0.00    +0.000 A 
ATOM     14  C   UNL     1      45.270  -4.445  14.054  0.00  0.00    +0.000 A 
ATOM     15  C   UNL     1      42.886  -4.451  13.650  0.00  0.00    +0.000 A 
ATOM     16  C   UNL     1      47.335  -7.759   8.822  0.00  0.00    +0.000 A 
ATOM     17  C   UNL     1      45.092  -8.427   7.327  0.00  0.00    +0.000 A 
ATOM     18  C   UNL     1      43.978  -4.090  14.438  0.00  0.00    +0.000 A 
ATOM     19  C   UNL     1      47.480  -8.477   7.637  0.00  0.00    +0.000 A 
ATOM     20  C   UNL     1      46.357  -8.812   6.890  0.00  0.00    +0.000 A 
ENDROOT
TORSDOF 0
ENDMDL
MODEL 3
REMARK VINA RESULT:      -8.5      0.999      6.128
REMARK  Name = Benzo[a]pyrene.pdbqt.pdb
REMARK  0 active torsions:
REMARK  status: ('A' for Active; 'I' for Inactive)
REMARK                            x       y       z     vdW  Elec       q    Type
REMARK                         _______ _______ _______ _____ _____    ______ ____
ROOT
ATOM      1  C   UNL     1      44.884  -6.143  10.519  0.00  0.00    +0.000 A 
ATOM      2  C   UNL     1      45.412  -6.936   9.475  0.00  0.00    +0.000 A 
ATOM      3  C   UNL     1      45.724  -5.668  11.551  0.00  0.00    +0.000 A 
ATOM      4  C   UNL     1      43.507  -5.832  10.517  0.00  0.00    +0.000 A 
ATOM      5  C   UNL     1      45.168  -4.875  12.585  0.00  0.00    +0.000 A 
ATOM      6  C   UNL     1      46.783  -7.258   9.458  0.00  0.00    +0.000 A 
ATOM      7  C   UNL     1      44.568  -7.408   8.447  0.00  0.00    +0.000 A 
ATOM      8  C   UNL     1      43.786  -4.575  12.564  0.00  0.00    +0.000 A 
ATOM      9  C   UNL     1      42.975  -5.053  11.538  0.00  0.00    +0.000 A 
ATOM     10  C   UNL     1      47.087  -6.009  11.502  0.00  0.00    +0.000 A 
ATOM     11  C   UNL     1      42.686  -6.306   9.494  0.00  0.00    +0.000 A 
ATOM     12  C   UNL     1      47.612  -6.791  10.474  0.00  0.00    +0.000 A 
ATOM     13  C   UNL     1      43.211  -7.088   8.466  0.00  0.00    +0.000 A 
ATOM     14  C   UNL     1      47.295  -8.041   8.424  0.00  0.00    +0.000 A 
ATOM     15  C   UNL     1      45.100  -8.189   7.422  0.00  0.00    +0.000 A 
ATOM     16  C   UNL     1      45.936  -4.366  13.645  0.00  0.00    +0.000 A 
ATOM     17  C   UNL     1      43.218  -3.796  13.571  0.00  0.00    +0.000 A 
ATOM     18  C   UNL     1      46.458  -8.505   7.411  0.00  0.00    +0.000 A 
ATOM     19  C   UNL     1      45.362  -3.588  14.649  0.00  0.00    +0.000 A 
ATOM     20  C   UNL     1      44.002  -3.304  14.611  0.00  0.00    +0.000 A 
ENDROOT
TORSDOF 0
ENDMDL
MODEL 4
REMARK VINA RESULT:      -8.1      1.407      5.018
REMARK  Name = Benzo[a]pyrene.pdbqt.pdb
REMARK  0 active torsions:
REMARK  status: ('A' for Active; 'I' for Inactive)
REMARK                            x       y       z     vdW  Elec       q    Type
REMARK                         _______ _______ _______ _____ _____    ______ ____
ROOT
ATOM      1  C   UNL     1      46.348  -5.975  11.733  0.00  0.00    +0.000 A 
ATOM      2  C   UNL     1      47.696  -6.083  11.326  0.00  0.00    +0.000 A 
ATOM      3  C   UNL     1      45.320  -6.572  10.968  0.00  0.00    +0.000 A 
ATOM      4  C   UNL     1      46.041  -5.262  12.911  0.00  0.00    +0.000 A 
ATOM      5  C   UNL     1      43.977  -6.447  11.400  0.00  0.00    +0.000 A 
ATOM      6  C   UNL     1      48.025  -6.791  10.152  0.00  0.00    +0.000 A 
ATOM      7  C   UNL     1      48.718  -5.484  12.093  0.00  0.00    +0.000 A 
ATOM      8  C   UNL     1      43.690  -5.729  12.583  0.00  0.00    +0.000 A 
ATOM      9  C   UNL     1      44.717  -5.147  13.322  0.00  0.00    +0.000 A 
ATOM     10  C   UNL     1      45.684  -7.270   9.804  0.00  0.00    +0.000 A 
ATOM     11  C   UNL     1      47.061  -4.675  13.658  0.00  0.00    +0.000 A 
ATOM     12  C   UNL     1      47.014  -7.380   9.399  0.00  0.00    +0.000 A 
ATOM     13  C   UNL     1      48.391  -4.785  13.253  0.00  0.00    +0.000 A 
ATOM     14  C   UNL     1      49.359  -6.893   9.759  0.00  0.00    +0.000 A 
ATOM     15  C   UNL     1      50.046  -5.598  11.682  0.00  0.00    +0.000 A 
ATOM     16  C   UNL     1      42.899  -7.012  10.696  0.00  0.00    +0.000 A 
ATOM     17  C   UNL     1      42.375  -5.594  13.026  0.00  0.00    +0.000 A 
ATOM     18  C   UNL     1      50.365  -6.299  10.520  0.00  0.00    +0.000 A 
ATOM     19  C   UNL     1      41.588  -6.874  11.144  0.00  0.00    +0.000 A 
ATOM     20  C   UNL     1      41.326  -6.164  12.309  0.00  0.00    +0.000 A 
ENDROOT
TORSDOF 0
ENDMDL
MODEL 5
REMARK VINA RESULT:      -8.0      1.592      3.644
REMARK  Name = Benzo[a]pyrene.pdbqt.pdb
REMARK  0 active torsions:
REMARK  status: ('A' for Active; 'I' for Inactive)
REMARK                            x       y       z     vdW  Elec       q    Type
REMARK                         _______ _______ _______ _____ _____    ______ ____
ROOT
ATOM      1  C   UNL     1      45.418  -5.971  10.920  0.00  0.00    +0.000 A 
ATOM      2  C   UNL     1      44.055  -6.024  10.553  0.00  0.00    +0.000 A 
ATOM      3  C   UNL     1      46.400  -6.591  10.115  0.00  0.00    +0.000 A 
ATOM      4  C   UNL     1      45.786  -5.290  12.100  0.00  0.00    +0.000 A 
ATOM      5  C   UNL     1      47.760  -6.522  10.508  0.00  0.00    +0.000 A 
ATOM      6  C   UNL     1      43.667  -6.698   9.378  0.00  0.00    +0.000 A 
ATOM      7  C   UNL     1      43.079  -5.402  11.360  0.00  0.00    +0.000 A 
ATOM      8  C   UNL     1      48.107  -5.836  11.694  0.00  0.00    +0.000 A 
ATOM      9  C   UNL     1      47.125  -5.231  12.473  0.00  0.00    +0.000 A 
ATOM     10  C   UNL     1      45.977  -7.255   8.951  0.00  0.00    +0.000 A 
ATOM     11  C   UNL     1      44.810  -4.681  12.888  0.00  0.00    +0.000 A 
ATOM     12  C   UNL     1      44.633  -7.310   8.584  0.00  0.00    +0.000 A 
ATOM     13  C   UNL     1      43.466  -4.736  12.521  0.00  0.00    +0.000 A 
ATOM     14  C   UNL     1      42.319  -6.745   9.023  0.00  0.00    +0.000 A 
ATOM     15  C   UNL     1      41.737  -5.461  10.988  0.00  0.00    +0.000 A 
ATOM     16  C   UNL     1      48.794  -7.113   9.763  0.00  0.00    +0.000 A 
ATOM     17  C   UNL     1      49.439  -5.756  12.099  0.00  0.00    +0.000 A 
ATOM     18  C   UNL     1      41.358  -6.129   9.824  0.00  0.00    +0.000 A 
ATOM     19  C   UNL     1      50.123  -7.030  10.173  0.00  0.00    +0.000 A 
ATOM     20  C   UNL     1      50.445  -6.350  11.342  0.00  0.00    +0.000 A 
ENDROOT
TORSDOF 0
ENDMDL
MODEL 6
REMARK VINA RESULT:      -7.8      1.651      4.404
REMARK  Name = Benzo[a]pyrene.pdbqt.pdb
REMARK  0 active torsions:
REMARK  status: ('A' for Active; 'I' for Inactive)
REMARK                            x       y       z     vdW  Elec       q    Type
REMARK                         _______ _______ _______ _____ _____    ______ ____
ROOT
ATOM      1  C   UNL     1      45.725  -5.412  12.374  0.00  0.00    +0.000 A 
ATOM      2  C   UNL     1      47.069  -5.239  12.772  0.00  0.00    +0.000 A 
ATOM      3  C   UNL     1      45.418  -5.902  11.085  0.00  0.00    +0.000 A 
ATOM      4  C   UNL     1      44.693  -5.089  13.282  0.00  0.00    +0.000 A 
ATOM      5  C   UNL     1      44.060  -6.065  10.713  0.00  0.00    +0.000 A 
ATOM      6  C   UNL     1      48.115  -5.555  11.881  0.00  0.00    +0.000 A 
ATOM      7  C   UNL     1      47.370  -4.750  14.060  0.00  0.00    +0.000 A 
ATOM      8  C   UNL     1      43.042  -5.736  11.636  0.00  0.00    +0.000 A 
ATOM      9  C   UNL     1      43.365  -5.255  12.902  0.00  0.00    +0.000 A 
ATOM     10  C   UNL     1      46.485  -6.207  10.223  0.00  0.00    +0.000 A 
ATOM     11  C   UNL     1      45.006  -4.607  14.552  0.00  0.00    +0.000 A 
ATOM     12  C   UNL     1      47.814  -6.038  10.611  0.00  0.00    +0.000 A 
ATOM     13  C   UNL     1      46.334  -4.438  14.940  0.00  0.00    +0.000 A 
ATOM     14  C   UNL     1      49.439  -5.382  12.282  0.00  0.00    +0.000 A 
ATOM     15  C   UNL     1      48.701  -4.584  14.442  0.00  0.00    +0.000 A 
ATOM     16  C   UNL     1      43.673  -6.545   9.450  0.00  0.00    +0.000 A 
ATOM     17  C   UNL     1      41.700  -5.889  11.291  0.00  0.00    +0.000 A 
ATOM     18  C   UNL     1      49.731  -4.898  13.557  0.00  0.00    +0.000 A 
ATOM     19  C   UNL     1      42.331  -6.696   9.112  0.00  0.00    +0.000 A 
ATOM     20  C   UNL     1      41.343  -6.367  10.033  0.00  0.00    +0.000 A 
ENDROOT
TORSDOF 0
ENDMDL
MODEL 7
REMARK VINA RESULT:      -7.7      5.533      8.421
REMARK  Name = Benzo[a]pyrene.pdbqt.pdb
REMARK  0 active torsions:
REMARK  status: ('A' for Active; 'I' for Inactive)
REMARK                            x       y       z     vdW  Elec       q    Type
REMARK                         _______ _______ _______ _____ _____    ______ ____
ROOT
ATOM      1  C   UNL     1      45.423   0.372  11.879  0.00  0.00    +0.000 A 
ATOM      2  C   UNL     1      46.433   0.016  10.959  0.00  0.00    +0.000 A 
ATOM      3  C   UNL     1      44.365  -0.521  12.161  0.00  0.00    +0.000 A 
ATOM      4  C   UNL     1      45.485   1.631  12.514  0.00  0.00    +0.000 A 
ATOM      5  C   UNL     1      43.366  -0.138  13.089  0.00  0.00    +0.000 A 
ATOM      6  C   UNL     1      46.391  -1.237  10.314  0.00  0.00    +0.000 A 
ATOM      7  C   UNL     1      47.488   0.911  10.681  0.00  0.00    +0.000 A 
ATOM      8  C   UNL     1      43.446   1.128  13.714  0.00  0.00    +0.000 A 
ATOM      9  C   UNL     1      44.497   1.994  13.423  0.00  0.00    +0.000 A 
ATOM     10  C   UNL     1      44.354  -1.762  11.500  0.00  0.00    +0.000 A 
ATOM     11  C   UNL     1      46.533   2.506  12.229  0.00  0.00    +0.000 A 
ATOM     12  C   UNL     1      45.349  -2.118  10.590  0.00  0.00    +0.000 A 
ATOM     13  C   UNL     1      47.528   2.150  11.320  0.00  0.00    +0.000 A 
ATOM     14  C   UNL     1      47.392  -1.580   9.406  0.00  0.00    +0.000 A 
ATOM     15  C   UNL     1      48.479   0.549   9.770  0.00  0.00    +0.000 A 
ATOM     16  C   UNL     1      42.283  -0.968  13.423  0.00  0.00    +0.000 A 
ATOM     17  C   UNL     1      42.473   1.526  14.630  0.00  0.00    +0.000 A 
ATOM     18  C   UNL     1      48.432  -0.691   9.135  0.00  0.00    +0.000 A 
ATOM     19  C   UNL     1      41.314  -0.565  14.339  0.00  0.00    +0.000 A 
ATOM     20  C   UNL     1      41.410   0.683  14.943  0.00  0.00    +0.000 A 
ENDROOT
TORSDOF 0
ENDMDL
MODEL 8
REMARK VINA RESULT:      -7.6     36.713     39.120
REMARK  Name = Benzo[a]pyrene.pdbqt.pdb
REMARK  0 active torsions:
REMARK  status: ('A' for Active; 'I' for Inactive)
REMARK                            x       y       z     vdW  Elec       q    Type
REMARK                         _______ _______ _______ _____ _____    ______ ____
ROOT
ATOM      1  C   UNL     1      21.868  17.685  31.236  0.00  0.00    +0.000 A 
ATOM      2  C   UNL     1      20.636  17.093  31.592  0.00  0.00    +0.000 A 
ATOM      3  C   UNL     1      22.253  18.926  31.794  0.00  0.00    +0.000 A 
ATOM      4  C   UNL     1      22.709  17.022  30.317  0.00  0.00    +0.000 A 
ATOM      5  C   UNL     1      23.494  19.496  31.419  0.00  0.00    +0.000 A 
ATOM      6  C   UNL     1      19.781  17.739  32.508  0.00  0.00    +0.000 A 
ATOM      7  C   UNL     1      20.257  15.855  31.033  0.00  0.00    +0.000 A 
ATOM      8  C   UNL     1      24.322  18.816  30.497  0.00  0.00    +0.000 A 
ATOM      9  C   UNL     1      23.925  17.594  29.959  0.00  0.00    +0.000 A 
ATOM     10  C   UNL     1      21.376  19.541  32.704  0.00  0.00    +0.000 A 
ATOM     11  C   UNL     1      22.321  15.799  29.773  0.00  0.00    +0.000 A 
ATOM     12  C   UNL     1      20.159  18.960  33.058  0.00  0.00    +0.000 A 
ATOM     13  C   UNL     1      21.104  15.218  30.127  0.00  0.00    +0.000 A 
ATOM     14  C   UNL     1      18.566  17.147  32.854  0.00  0.00    +0.000 A 
ATOM     15  C   UNL     1      19.038  15.279  31.391  0.00  0.00    +0.000 A 
ATOM     16  C   UNL     1      23.947  20.725  31.928  0.00  0.00    +0.000 A 
ATOM     17  C   UNL     1      25.547  19.359  30.114  0.00  0.00    +0.000 A 
ATOM     18  C   UNL     1      18.196  15.923  32.298  0.00  0.00    +0.000 A 
ATOM     19  C   UNL     1      25.173  21.262  31.541  0.00  0.00    +0.000 A 
ATOM     20  C   UNL     1      25.973  20.579  30.633  0.00  0.00    +0.000 A 
ENDROOT
TORSDOF 0
ENDMDL
MODEL 9
REMARK VINA RESULT:      -7.5      3.268      6.188
REMARK  Name = Benzo[a]pyrene.pdbqt.pdb
REMARK  0 active torsions:
REMARK  status: ('A' for Active; 'I' for Inactive)
REMARK                            x       y       z     vdW  Elec       q    Type
REMARK                         _______ _______ _______ _____ _____    ______ ____
ROOT
ATOM      1  C   UNL     1      43.824  -3.239  12.613  0.00  0.00    +0.000 A 
ATOM      2  C   UNL     1      43.617  -4.607  12.329  0.00  0.00    +0.000 A 
ATOM      3  C   UNL     1      44.637  -2.449  11.769  0.00  0.00    +0.000 A 
ATOM      4  C   UNL     1      43.209  -2.672  13.749  0.00  0.00    +0.000 A 
ATOM      5  C   UNL     1      44.827  -1.079  12.077  0.00  0.00    +0.000 A 
ATOM      6  C   UNL     1      44.222  -5.193  11.199  0.00  0.00    +0.000 A 
ATOM      7  C   UNL     1      42.805  -5.391  13.175  0.00  0.00    +0.000 A 
ATOM      8  C   UNL     1      44.202  -0.531  13.220  0.00  0.00    +0.000 A 
ATOM      9  C   UNL     1      43.405  -1.326  14.039  0.00  0.00    +0.000 A 
ATOM     10  C   UNL     1      45.224  -3.066  10.651  0.00  0.00    +0.000 A 
ATOM     11  C   UNL     1      42.409  -3.460  14.576  0.00  0.00    +0.000 A 
ATOM     12  C   UNL     1      45.023  -4.416  10.367  0.00  0.00    +0.000 A 
ATOM     13  C   UNL     1      42.207  -4.810  14.292  0.00  0.00    +0.000 A 
ATOM     14  C   UNL     1      44.012  -6.545  10.927  0.00  0.00    +0.000 A 
ATOM     15  C   UNL     1      42.607  -6.741  12.885  0.00  0.00    +0.000 A 
ATOM     16  C   UNL     1      45.620  -0.228  11.289  0.00  0.00    +0.000 A 
ATOM     17  C   UNL     1      44.376   0.815  13.543  0.00  0.00    +0.000 A 
ATOM     18  C   UNL     1      43.208  -7.315  11.766  0.00  0.00    +0.000 A 
ATOM     19  C   UNL     1      45.790   1.115  11.616  0.00  0.00    +0.000 A 
ATOM     20  C   UNL     1      45.167   1.636  12.744  0.00  0.00    +0.000 A 
ENDROOT
TORSDOF 0
ENDMDL
