MODEL 1
REMARK VINA RESULT:      -6.1      0.000      0.000
REMARK  Name = Bicalutamide.pdbqt.pdb
REMARK  8 active torsions:
REMARK  status: ('A' for Active; 'I' for Inactive)
REMARK    1  A    between atoms: C_2  and  N_13
REMARK    2  A    between atoms: C_5  and  C_9
REMARK    3  A    between atoms: C_6  and  C_8
REMARK    4  A    between atoms: C_14  and  C_17
REMARK    5  A    between atoms: C_17  and  O_19
REMARK    6  A    between atoms: C_17  and  C_21
REMARK    7  A    between atoms: C_21  and  S_22
REMARK    8  A    between atoms: S_22  and  C_25
REMARK                            x       y       z     vdW  Elec       q    Type
REMARK                         _______ _______ _______ _____ _____    ______ ____
ROOT
ATOM      1  N   UNL     1      14.019   4.427  29.969  0.00  0.00    +0.000 N 
ATOM      2  C   UNL     1      14.521   4.900  31.179  0.00  0.00    +0.000 C 
ATOM      3  O   UNL     1      15.594   4.549  31.680  0.00  0.00    +0.000 OA
ATOM      4  H   UNL     1      13.170   4.876  29.622  0.00  0.00    +0.000 HD
ENDROOT
BRANCH   1   5
ATOM      5  C   UNL     1      14.617   3.455  29.152  0.00  0.00    +0.000 A 
ATOM      6  C   UNL     1      15.349   3.893  28.049  0.00  0.00    +0.000 A 
ATOM      7  C   UNL     1      14.499   2.089  29.389  0.00  0.00    +0.000 A 
ATOM      8  C   UNL     1      15.968   2.987  27.180  0.00  0.00    +0.000 A 
ATOM      9  C   UNL     1      15.842   1.613  27.433  0.00  0.00    +0.000 A 
ATOM     10  C   UNL     1      15.108   1.173  28.535  0.00  0.00    +0.000 A 
BRANCH   8  11
ATOM     11  C   UNL     1      16.744   3.514  26.008  0.00  0.00    +0.000 C 
ATOM     12  F   UNL     1      18.027   3.058  25.965  0.00  0.00    +0.000 F 
ATOM     13  F   UNL     1      16.186   3.164  24.820  0.00  0.00    +0.000 F 
ATOM     14  F   UNL     1      16.833   4.870  26.011  0.00  0.00    +0.000 F 
ENDBRANCH   8  11
BRANCH   9  16
ATOM     15  N   UNL     1      16.934  -0.187  25.923  0.00  0.00    +0.000 NA
ATOM     16  C   UNL     1      16.445   0.623  26.592  0.00  0.00    +0.000 C 
ENDBRANCH   9  16
ENDBRANCH   1   5
BRANCH   2  17
ATOM     17  C   UNL     1      13.588   5.927  31.941  0.00  0.00    +0.000 C 
ATOM     18  C   UNL     1      14.299   6.516  33.193  0.00  0.00    +0.000 C 
BRANCH  17  19
ATOM     19  O   UNL     1      12.411   5.279  32.394  0.00  0.00    +0.000 OA
ATOM     20  H   UNL     1      12.230   5.678  33.267  0.00  0.00    +0.000 HD
ENDBRANCH  17  19
BRANCH  17  21
ATOM     21  C   UNL     1      13.225   6.962  31.023  0.00  0.00    +0.000 C 
BRANCH  21  22
ATOM     22  S   UNL     1      12.651   8.285  30.077  0.00  0.00    +0.000 S 
ATOM     23  O   UNL     1      13.094   9.352  30.938  0.00  0.00    +0.000 OA
ATOM     24  O   UNL     1      11.291   7.820  29.947  0.00  0.00    +0.000 OA
BRANCH  22  25
ATOM     25  C   UNL     1      13.476   8.299  28.555  0.00  0.00    +0.000 A 
ATOM     26  C   UNL     1      14.034   9.497  28.122  0.00  0.00    +0.000 A 
ATOM     27  C   UNL     1      14.683   9.539  26.891  0.00  0.00    +0.000 A 
ATOM     28  C   UNL     1      14.756   8.384  26.117  0.00  0.00    +0.000 A 
ATOM     29  F   UNL     1      15.381   8.425  24.933  0.00  0.00    +0.000 F 
ATOM     30  C   UNL     1      14.190   7.188  26.551  0.00  0.00    +0.000 A 
ATOM     31  C   UNL     1      13.541   7.145  27.781  0.00  0.00    +0.000 A 
ENDBRANCH  22  25
ENDBRANCH  21  22
ENDBRANCH  17  21
ENDBRANCH   2  17
TORSDOF 8
ENDMDL
MODEL 2
REMARK VINA RESULT:      -6.1     29.226     32.021
REMARK  Name = Bicalutamide.pdbqt.pdb
REMARK  8 active torsions:
REMARK  status: ('A' for Active; 'I' for Inactive)
REMARK    1  A    between atoms: C_2  and  N_13
REMARK    2  A    between atoms: C_5  and  C_9
REMARK    3  A    between atoms: C_6  and  C_8
REMARK    4  A    between atoms: C_14  and  C_17
REMARK    5  A    between atoms: C_17  and  O_19
REMARK    6  A    between atoms: C_17  and  C_21
REMARK    7  A    between atoms: C_21  and  S_22
REMARK    8  A    between atoms: S_22  and  C_25
REMARK                            x       y       z     vdW  Elec       q    Type
REMARK                         _______ _______ _______ _____ _____    ______ ____
ROOT
ATOM      1  N   UNL     1      21.382  20.953   0.970  0.00  0.00    +0.000 N 
ATOM      2  C   UNL     1      22.122  20.260   0.015  0.00  0.00    +0.000 C 
ATOM      3  O   UNL     1      21.835  19.140  -0.419  0.00  0.00    +0.000 OA
ATOM      4  H   UNL     1      21.674  21.911   1.165  0.00  0.00    +0.000 HD
ENDROOT
BRANCH   1   5
ATOM      5  C   UNL     1      20.229  20.483   1.620  0.00  0.00    +0.000 A 
ATOM      6  C   UNL     1      20.400  19.685   2.751  0.00  0.00    +0.000 A 
ATOM      7  C   UNL     1      18.941  20.769   1.179  0.00  0.00    +0.000 A 
ATOM      8  C   UNL     1      19.303  19.170   3.450  0.00  0.00    +0.000 A 
ATOM      9  C   UNL     1      18.009  19.468   2.995  0.00  0.00    +0.000 A 
ATOM     10  C   UNL     1      17.837  20.265   1.862  0.00  0.00    +0.000 A 
BRANCH   8  11
ATOM     11  C   UNL     1      19.544  18.317   4.661  0.00  0.00    +0.000 C 
ATOM     12  F   UNL     1      20.864  18.164   4.957  0.00  0.00    +0.000 F 
ATOM     13  F   UNL     1      18.970  18.833   5.780  0.00  0.00    +0.000 F 
ATOM     14  F   UNL     1      19.049  17.059   4.517  0.00  0.00    +0.000 F 
ENDBRANCH   8  11
BRANCH   9  16
ATOM     15  N   UNL     1      15.895  18.579   4.199  0.00  0.00    +0.000 NA
ATOM     16  C   UNL     1      16.836  18.980   3.655  0.00  0.00    +0.000 C 
ENDBRANCH   9  16
ENDBRANCH   1   5
BRANCH   2  17
ATOM     17  C   UNL     1      23.435  20.991  -0.481  0.00  0.00    +0.000 C 
ATOM     18  C   UNL     1      23.166  21.829  -1.763  0.00  0.00    +0.000 C 
BRANCH  17  19
ATOM     19  O   UNL     1      24.435  20.039  -0.806  0.00  0.00    +0.000 OA
ATOM     20  H   UNL     1      24.897  20.420  -1.577  0.00  0.00    +0.000 HD
ENDBRANCH  17  19
BRANCH  17  21
ATOM     21  C   UNL     1      23.911  21.819   0.584  0.00  0.00    +0.000 C 
BRANCH  21  22
ATOM     22  S   UNL     1      24.592  22.636   1.943  0.00  0.00    +0.000 S 
ATOM     23  O   UNL     1      25.832  23.040   1.331  0.00  0.00    +0.000 OA
ATOM     24  O   UNL     1      24.432  21.555   2.884  0.00  0.00    +0.000 OA
BRANCH  22  25
ATOM     25  C   UNL     1      23.599  23.995   2.347  0.00  0.00    +0.000 A 
ATOM     26  C   UNL     1      23.856  24.664   3.539  0.00  0.00    +0.000 A 
ATOM     27  C   UNL     1      23.057  25.746   3.897  0.00  0.00    +0.000 A 
ATOM     28  C   UNL     1      22.015  26.133   3.059  0.00  0.00    +0.000 A 
ATOM     29  F   UNL     1      21.245  27.175   3.405  0.00  0.00    +0.000 F 
ATOM     30  C   UNL     1      21.756  25.456   1.870  0.00  0.00    +0.000 A 
ATOM     31  C   UNL     1      22.553  24.375   1.511  0.00  0.00    +0.000 A 
ENDBRANCH  22  25
ENDBRANCH  21  22
ENDBRANCH  17  21
ENDBRANCH   2  17
TORSDOF 8
ENDMDL
MODEL 3
REMARK VINA RESULT:      -5.8     12.977     15.750
REMARK  Name = Bicalutamide.pdbqt.pdb
REMARK  8 active torsions:
REMARK  status: ('A' for Active; 'I' for Inactive)
REMARK    1  A    between atoms: C_2  and  N_13
REMARK    2  A    between atoms: C_5  and  C_9
REMARK    3  A    between atoms: C_6  and  C_8
REMARK    4  A    between atoms: C_14  and  C_17
REMARK    5  A    between atoms: C_17  and  O_19
REMARK    6  A    between atoms: C_17  and  C_21
REMARK    7  A    between atoms: C_21  and  S_22
REMARK    8  A    between atoms: S_22  and  C_25
REMARK                            x       y       z     vdW  Elec       q    Type
REMARK                         _______ _______ _______ _____ _____    ______ ____
ROOT
ATOM      1  N   UNL     1      28.033  -4.893  28.627  0.00  0.00    +0.000 N 
ATOM      2  C   UNL     1      26.705  -4.803  29.036  0.00  0.00    +0.000 C 
ATOM      3  O   UNL     1      25.814  -4.222  28.408  0.00  0.00    +0.000 OA
ATOM      4  H   UNL     1      28.643  -5.488  29.189  0.00  0.00    +0.000 HD
ENDROOT
BRANCH   1   5
ATOM      5  C   UNL     1      28.582  -4.311  27.473  0.00  0.00    +0.000 A 
ATOM      6  C   UNL     1      28.140  -4.779  26.236  0.00  0.00    +0.000 A 
ATOM      7  C   UNL     1      29.545  -3.308  27.515  0.00  0.00    +0.000 A 
ATOM      8  C   UNL     1      28.645  -4.257  25.039  0.00  0.00    +0.000 A 
ATOM      9  C   UNL     1      29.614  -3.245  25.096  0.00  0.00    +0.000 A 
ATOM     10  C   UNL     1      30.058  -2.777  26.335  0.00  0.00    +0.000 A 
BRANCH   8  11
ATOM     11  C   UNL     1      28.134  -4.797  23.735  0.00  0.00    +0.000 C 
ATOM     12  F   UNL     1      27.441  -5.962  23.870  0.00  0.00    +0.000 F 
ATOM     13  F   UNL     1      27.290  -3.933  23.112  0.00  0.00    +0.000 F 
ATOM     14  F   UNL     1      29.136  -5.062  22.855  0.00  0.00    +0.000 F 
ENDBRANCH   8  11
BRANCH   9  16
ATOM     15  N   UNL     1      30.635  -2.199  22.957  0.00  0.00    +0.000 NA
ATOM     16  C   UNL     1      30.178  -2.660  23.918  0.00  0.00    +0.000 C 
ENDBRANCH   9  16
ENDBRANCH   1   5
BRANCH   2  17
ATOM     17  C   UNL     1      26.382  -5.475  30.432  0.00  0.00    +0.000 C 
ATOM     18  C   UNL     1      27.532  -6.420  30.884  0.00  0.00    +0.000 C 
BRANCH  17  19
ATOM     19  O   UNL     1      25.206  -6.261  30.340  0.00  0.00    +0.000 OA
ATOM     20  H   UNL     1      25.143  -6.501  29.395  0.00  0.00    +0.000 HD
ENDBRANCH  17  19
BRANCH  17  21
ATOM     21  C   UNL     1      26.169  -4.432  31.388  0.00  0.00    +0.000 C 
BRANCH  21  22
ATOM     22  S   UNL     1      26.036  -3.046  32.406  0.00  0.00    +0.000 S 
ATOM     23  O   UNL     1      27.266  -3.218  33.137  0.00  0.00    +0.000 OA
ATOM     24  O   UNL     1      24.714  -3.333  32.906  0.00  0.00    +0.000 OA
BRANCH  22  25
ATOM     25  C   UNL     1      26.060  -1.617  31.429  0.00  0.00    +0.000 A 
ATOM     26  C   UNL     1      25.131  -0.619  31.705  0.00  0.00    +0.000 A 
ATOM     27  C   UNL     1      25.116   0.530  30.919  0.00  0.00    +0.000 A 
ATOM     28  C   UNL     1      26.025   0.655  29.872  0.00  0.00    +0.000 A 
ATOM     29  F   UNL     1      26.009   1.761  29.115  0.00  0.00    +0.000 F 
ATOM     30  C   UNL     1      26.949  -0.350  29.595  0.00  0.00    +0.000 A 
ATOM     31  C   UNL     1      26.966  -1.498  30.379  0.00  0.00    +0.000 A 
ENDBRANCH  22  25
ENDBRANCH  21  22
ENDBRANCH  17  21
ENDBRANCH   2  17
TORSDOF 8
ENDMDL
MODEL 4
REMARK VINA RESULT:      -5.8     19.385     20.970
REMARK  Name = Bicalutamide.pdbqt.pdb
REMARK  8 active torsions:
REMARK  status: ('A' for Active; 'I' for Inactive)
REMARK    1  A    between atoms: C_2  and  N_13
REMARK    2  A    between atoms: C_5  and  C_9
REMARK    3  A    between atoms: C_6  and  C_8
REMARK    4  A    between atoms: C_14  and  C_17
REMARK    5  A    between atoms: C_17  and  O_19
REMARK    6  A    between atoms: C_17  and  C_21
REMARK    7  A    between atoms: C_21  and  S_22
REMARK    8  A    between atoms: S_22  and  C_25
REMARK                            x       y       z     vdW  Elec       q    Type
REMARK                         _______ _______ _______ _____ _____    ______ ____
ROOT
ATOM      1  N   UNL     1      28.482  -4.539  15.153  0.00  0.00    +0.000 N 
ATOM      2  C   UNL     1      27.292  -3.881  14.853  0.00  0.00    +0.000 C 
ATOM      3  O   UNL     1      26.249  -3.982  15.508  0.00  0.00    +0.000 OA
ATOM      4  H   UNL     1      29.295  -4.287  14.589  0.00  0.00    +0.000 HD
ENDROOT
BRANCH   1   5
ATOM      5  C   UNL     1      28.681  -5.446  16.205  0.00  0.00    +0.000 A 
ATOM      6  C   UNL     1      27.991  -6.657  16.159  0.00  0.00    +0.000 A 
ATOM      7  C   UNL     1      29.519  -5.182  17.284  0.00  0.00    +0.000 A 
ATOM      8  C   UNL     1      28.128  -7.611  17.174  0.00  0.00    +0.000 A 
ATOM      9  C   UNL     1      28.977  -7.332  18.255  0.00  0.00    +0.000 A 
ATOM     10  C   UNL     1      29.667  -6.119  18.304  0.00  0.00    +0.000 A 
BRANCH   8  11
ATOM     11  C   UNL     1      27.362  -8.897  17.074  0.00  0.00    +0.000 C 
ATOM     12  F   UNL     1      26.523  -9.107  18.127  0.00  0.00    +0.000 F 
ATOM     13  F   UNL     1      26.582  -8.950  15.963  0.00  0.00    +0.000 F 
ATOM     14  F   UNL     1      28.177  -9.984  17.028  0.00  0.00    +0.000 F 
ENDBRANCH   8  11
BRANCH   9  16
ATOM     15  N   UNL     1      29.340  -8.996  20.208  0.00  0.00    +0.000 NA
ATOM     16  C   UNL     1      29.171  -8.255  19.332  0.00  0.00    +0.000 C 
ENDBRANCH   9  16
ENDBRANCH   1   5
BRANCH   2  17
ATOM     17  C   UNL     1      27.324  -2.987  13.547  0.00  0.00    +0.000 C 
ATOM     18  C   UNL     1      27.381  -3.863  12.264  0.00  0.00    +0.000 C 
BRANCH  17  19
ATOM     19  O   UNL     1      28.479  -2.164  13.543  0.00  0.00    +0.000 OA
ATOM     20  H   UNL     1      28.583  -1.880  14.472  0.00  0.00    +0.000 HD
ENDBRANCH  17  19
BRANCH  17  21
ATOM     21  C   UNL     1      26.161  -2.155  13.550  0.00  0.00    +0.000 C 
BRANCH  21  22
ATOM     22  S   UNL     1      24.661  -1.312  13.674  0.00  0.00    +0.000 S 
ATOM     23  O   UNL     1      24.932  -0.282  12.703  0.00  0.00    +0.000 OA
ATOM     24  O   UNL     1      24.683  -1.143  15.106  0.00  0.00    +0.000 OA
BRANCH  22  25
ATOM     25  C   UNL     1      23.376  -2.356  13.166  0.00  0.00    +0.000 A 
ATOM     26  C   UNL     1      23.632  -3.721  13.093  0.00  0.00    +0.000 A 
ATOM     27  C   UNL     1      22.621  -4.578  12.665  0.00  0.00    +0.000 A 
ATOM     28  C   UNL     1      21.380  -4.053  12.316  0.00  0.00    +0.000 A 
ATOM     29  F   UNL     1      20.408  -4.878  11.905  0.00  0.00    +0.000 F 
ATOM     30  C   UNL     1      21.132  -2.684  12.385  0.00  0.00    +0.000 A 
ATOM     31  C   UNL     1      22.140  -1.826  12.811  0.00  0.00    +0.000 A 
ENDBRANCH  22  25
ENDBRANCH  21  22
ENDBRANCH  17  21
ENDBRANCH   2  17
TORSDOF 8
ENDMDL
MODEL 5
REMARK VINA RESULT:      -5.6     19.097     20.105
REMARK  Name = Bicalutamide.pdbqt.pdb
REMARK  8 active torsions:
REMARK  status: ('A' for Active; 'I' for Inactive)
REMARK    1  A    between atoms: C_2  and  N_13
REMARK    2  A    between atoms: C_5  and  C_9
REMARK    3  A    between atoms: C_6  and  C_8
REMARK    4  A    between atoms: C_14  and  C_17
REMARK    5  A    between atoms: C_17  and  O_19
REMARK    6  A    between atoms: C_17  and  C_21
REMARK    7  A    between atoms: C_21  and  S_22
REMARK    8  A    between atoms: S_22  and  C_25
REMARK                            x       y       z     vdW  Elec       q    Type
REMARK                         _______ _______ _______ _____ _____    ______ ____
ROOT
ATOM      1  N   UNL     1      26.866  -4.882  15.908  0.00  0.00    +0.000 N 
ATOM      2  C   UNL     1      26.028  -3.788  15.714  0.00  0.00    +0.000 C 
ATOM      3  O   UNL     1      25.280  -3.313  16.575  0.00  0.00    +0.000 OA
ATOM      4  H   UNL     1      27.505  -5.108  15.145  0.00  0.00    +0.000 HD
ENDROOT
BRANCH   1   5
ATOM      5  C   UNL     1      26.967  -5.645  17.083  0.00  0.00    +0.000 A 
ATOM      6  C   UNL     1      28.239  -5.854  17.615  0.00  0.00    +0.000 A 
ATOM      7  C   UNL     1      25.863  -6.204  17.720  0.00  0.00    +0.000 A 
ATOM      8  C   UNL     1      28.425  -6.611  18.777  0.00  0.00    +0.000 A 
ATOM      9  C   UNL     1      27.304  -7.167  19.411  0.00  0.00    +0.000 A 
ATOM     10  C   UNL     1      26.030  -6.960  18.878  0.00  0.00    +0.000 A 
BRANCH   8  11
ATOM     11  C   UNL     1      29.816  -6.805  19.307  0.00  0.00    +0.000 C 
ATOM     12  F   UNL     1      30.019  -6.210  20.515  0.00  0.00    +0.000 F 
ATOM     13  F   UNL     1      30.125  -8.116  19.484  0.00  0.00    +0.000 F 
ATOM     14  F   UNL     1      30.763  -6.292  18.478  0.00  0.00    +0.000 F 
ENDBRANCH   8  11
BRANCH   9  16
ATOM     15  N   UNL     1      27.508  -8.580  21.573  0.00  0.00    +0.000 NA
ATOM     16  C   UNL     1      27.411  -7.952  20.603  0.00  0.00    +0.000 C 
ENDBRANCH   9  16
ENDBRANCH   1   5
BRANCH   2  17
ATOM     17  C   UNL     1      26.046  -3.175  14.254  0.00  0.00    +0.000 C 
ATOM     18  C   UNL     1      26.179  -4.287  13.176  0.00  0.00    +0.000 C 
BRANCH  17  19
ATOM     19  O   UNL     1      27.157  -2.306  14.100  0.00  0.00    +0.000 OA
ATOM     20  H   UNL     1      27.610  -2.626  13.296  0.00  0.00    +0.000 HD
ENDBRANCH  17  19
BRANCH  17  21
ATOM     21  C   UNL     1      24.842  -2.425  14.073  0.00  0.00    +0.000 C 
BRANCH  21  22
ATOM     22  S   UNL     1      23.282  -1.715  13.873  0.00  0.00    +0.000 S 
ATOM     23  O   UNL     1      23.686  -0.559  13.113  0.00  0.00    +0.000 OA
ATOM     24  O   UNL     1      22.917  -1.718  15.268  0.00  0.00    +0.000 OA
BRANCH  22  25
ATOM     25  C   UNL     1      22.285  -2.783  12.943  0.00  0.00    +0.000 A 
ATOM     26  C   UNL     1      21.102  -2.279  12.412  0.00  0.00    +0.000 A 
ATOM     27  C   UNL     1      20.272  -3.123  11.680  0.00  0.00    +0.000 A 
ATOM     28  C   UNL     1      20.639  -4.454  11.499  0.00  0.00    +0.000 A 
ATOM     29  F   UNL     1      19.840  -5.267  10.795  0.00  0.00    +0.000 F 
ATOM     30  C   UNL     1      21.821  -4.956  12.038  0.00  0.00    +0.000 A 
ATOM     31  C   UNL     1      22.651  -4.114  12.770  0.00  0.00    +0.000 A 
ENDBRANCH  22  25
ENDBRANCH  21  22
ENDBRANCH  17  21
ENDBRANCH   2  17
TORSDOF 8
ENDMDL
MODEL 6
REMARK VINA RESULT:      -5.5     18.701     20.996
REMARK  Name = Bicalutamide.pdbqt.pdb
REMARK  8 active torsions:
REMARK  status: ('A' for Active; 'I' for Inactive)
REMARK    1  A    between atoms: C_2  and  N_13
REMARK    2  A    between atoms: C_5  and  C_9
REMARK    3  A    between atoms: C_6  and  C_8
REMARK    4  A    between atoms: C_14  and  C_17
REMARK    5  A    between atoms: C_17  and  O_19
REMARK    6  A    between atoms: C_17  and  C_21
REMARK    7  A    between atoms: C_21  and  S_22
REMARK    8  A    between atoms: S_22  and  C_25
REMARK                            x       y       z     vdW  Elec       q    Type
REMARK                         _______ _______ _______ _____ _____    ______ ____
ROOT
ATOM      1  N   UNL     1      22.320  -2.128  12.737  0.00  0.00    +0.000 N 
ATOM      2  C   UNL     1      23.488  -2.778  13.128  0.00  0.00    +0.000 C 
ATOM      3  O   UNL     1      23.650  -4.002  13.111  0.00  0.00    +0.000 OA
ATOM      4  H   UNL     1      22.355  -1.108  12.704  0.00  0.00    +0.000 HD
ENDROOT
BRANCH   1   5
ATOM      5  C   UNL     1      21.135  -2.748  12.307  0.00  0.00    +0.000 A 
ATOM      6  C   UNL     1      19.979  -1.970  12.248  0.00  0.00    +0.000 A 
ATOM      7  C   UNL     1      21.069  -4.092  11.956  0.00  0.00    +0.000 A 
ATOM      8  C   UNL     1      18.757  -2.515  11.839  0.00  0.00    +0.000 A 
ATOM      9  C   UNL     1      18.704  -3.872  11.486  0.00  0.00    +0.000 A 
ATOM     10  C   UNL     1      19.860  -4.652  11.547  0.00  0.00    +0.000 A 
BRANCH   8  11
ATOM     11  C   UNL     1      17.543  -1.633  11.794  0.00  0.00    +0.000 C 
ATOM     12  F   UNL     1      16.968  -1.574  10.561  0.00  0.00    +0.000 F 
ATOM     13  F   UNL     1      16.566  -2.054  12.639  0.00  0.00    +0.000 F 
ATOM     14  F   UNL     1      17.823  -0.348  12.134  0.00  0.00    +0.000 F 
ENDBRANCH   8  11
BRANCH   9  16
ATOM     15  N   UNL     1      16.519  -5.028  10.711  0.00  0.00    +0.000 NA
ATOM     16  C   UNL     1      17.493  -4.504  11.057  0.00  0.00    +0.000 C 
ENDBRANCH   9  16
ENDBRANCH   1   5
BRANCH   2  17
ATOM     17  C   UNL     1      24.640  -1.832  13.661  0.00  0.00    +0.000 C 
ATOM     18  C   UNL     1      24.069  -0.690  14.548  0.00  0.00    +0.000 C 
BRANCH  17  19
ATOM     19  O   UNL     1      25.316  -1.220  12.574  0.00  0.00    +0.000 OA
ATOM     20  H   UNL     1      25.318  -1.898  11.872  0.00  0.00    +0.000 HD
ENDBRANCH  17  19
BRANCH  17  21
ATOM     21  C   UNL     1      25.570  -2.635  14.393  0.00  0.00    +0.000 C 
BRANCH  21  22
ATOM     22  S   UNL     1      26.741  -3.699  15.080  0.00  0.00    +0.000 S 
ATOM     23  O   UNL     1      25.828  -4.640  15.678  0.00  0.00    +0.000 OA
ATOM     24  O   UNL     1      27.489  -2.689  15.787  0.00  0.00    +0.000 OA
BRANCH  22  25
ATOM     25  C   UNL     1      27.671  -4.420  13.810  0.00  0.00    +0.000 A 
ATOM     26  C   UNL     1      29.052  -4.254  13.833  0.00  0.00    +0.000 A 
ATOM     27  C   UNL     1      29.819  -4.805  12.811  0.00  0.00    +0.000 A 
ATOM     28  C   UNL     1      29.191  -5.505  11.785  0.00  0.00    +0.000 A 
ATOM     29  F   UNL     1      29.930  -6.035  10.801  0.00  0.00    +0.000 F 
ATOM     30  C   UNL     1      27.807  -5.663  11.762  0.00  0.00    +0.000 A 
ATOM     31  C   UNL     1      27.039  -5.114  12.783  0.00  0.00    +0.000 A 
ENDBRANCH  22  25
ENDBRANCH  21  22
ENDBRANCH  17  21
ENDBRANCH   2  17
TORSDOF 8
ENDMDL
MODEL 7
REMARK VINA RESULT:      -5.4     38.077     40.249
REMARK  Name = Bicalutamide.pdbqt.pdb
REMARK  8 active torsions:
REMARK  status: ('A' for Active; 'I' for Inactive)
REMARK    1  A    between atoms: C_2  and  N_13
REMARK    2  A    between atoms: C_5  and  C_9
REMARK    3  A    between atoms: C_6  and  C_8
REMARK    4  A    between atoms: C_14  and  C_17
REMARK    5  A    between atoms: C_17  and  O_19
REMARK    6  A    between atoms: C_17  and  C_21
REMARK    7  A    between atoms: C_21  and  S_22
REMARK    8  A    between atoms: S_22  and  C_25
REMARK                            x       y       z     vdW  Elec       q    Type
REMARK                         _______ _______ _______ _____ _____    ______ ____
ROOT
ATOM      1  N   UNL     1      31.186  11.910  -7.895  0.00  0.00    +0.000 N 
ATOM      2  C   UNL     1      30.447  11.791  -9.070  0.00  0.00    +0.000 C 
ATOM      3  O   UNL     1      30.912  11.443 -10.160  0.00  0.00    +0.000 OA
ATOM      4  H   UNL     1      30.658  12.108  -7.044  0.00  0.00    +0.000 HD
ENDROOT
BRANCH   1   5
ATOM      5  C   UNL     1      32.568  11.700  -7.765  0.00  0.00    +0.000 A 
ATOM      6  C   UNL     1      33.000  10.792  -6.799  0.00  0.00    +0.000 A 
ATOM      7  C   UNL     1      33.511  12.364  -8.543  0.00  0.00    +0.000 A 
ATOM      8  C   UNL     1      34.361  10.534  -6.600  0.00  0.00    +0.000 A 
ATOM      9  C   UNL     1      35.301  11.209  -7.393  0.00  0.00    +0.000 A 
ATOM     10  C   UNL     1      34.870  12.120  -8.359  0.00  0.00    +0.000 A 
BRANCH   8  11
ATOM     11  C   UNL     1      34.771   9.546  -5.547  0.00  0.00    +0.000 C 
ATOM     12  F   UNL     1      35.274   8.390  -6.061  0.00  0.00    +0.000 F 
ATOM     13  F   UNL     1      35.735  10.037  -4.725  0.00  0.00    +0.000 F 
ATOM     14  F   UNL     1      33.733   9.177  -4.750  0.00  0.00    +0.000 F 
ENDBRANCH   8  11
BRANCH   9  16
ATOM     15  N   UNL     1      37.852  10.843  -7.129  0.00  0.00    +0.000 NA
ATOM     16  C   UNL     1      36.710  11.000  -7.252  0.00  0.00    +0.000 C 
ENDBRANCH   9  16
ENDBRANCH   1   5
BRANCH   2  17
ATOM     17  C   UNL     1      28.919  12.183  -8.948  0.00  0.00    +0.000 C 
ATOM     18  C   UNL     1      28.285  12.431 -10.346  0.00  0.00    +0.000 C 
BRANCH  17  19
ATOM     19  O   UNL     1      28.776  13.383  -8.205  0.00  0.00    +0.000 OA
ATOM     20  H   UNL     1      29.598  13.448  -7.682  0.00  0.00    +0.000 HD
ENDBRANCH  17  19
BRANCH  17  21
ATOM     21  C   UNL     1      28.244  11.127  -8.258  0.00  0.00    +0.000 C 
BRANCH  21  22
ATOM     22  S   UNL     1      27.628   9.752  -7.419  0.00  0.00    +0.000 S 
ATOM     23  O   UNL     1      26.983   9.110  -8.537  0.00  0.00    +0.000 OA
ATOM     24  O   UNL     1      26.961  10.482  -6.369  0.00  0.00    +0.000 OA
BRANCH  22  25
ATOM     25  C   UNL     1      28.951   8.814  -6.812  0.00  0.00    +0.000 A 
ATOM     26  C   UNL     1      29.227   7.596  -7.425  0.00  0.00    +0.000 A 
ATOM     27  C   UNL     1      30.271   6.814  -6.940  0.00  0.00    +0.000 A 
ATOM     28  C   UNL     1      31.014   7.263  -5.852  0.00  0.00    +0.000 A 
ATOM     29  F   UNL     1      32.019   6.509  -5.386  0.00  0.00    +0.000 F 
ATOM     30  C   UNL     1      30.730   8.479  -5.237  0.00  0.00    +0.000 A 
ATOM     31  C   UNL     1      29.687   9.262  -5.720  0.00  0.00    +0.000 A 
ENDBRANCH  22  25
ENDBRANCH  21  22
ENDBRANCH  17  21
ENDBRANCH   2  17
TORSDOF 8
ENDMDL
MODEL 8
REMARK VINA RESULT:      -5.3     35.723     37.922
REMARK  Name = Bicalutamide.pdbqt.pdb
REMARK  8 active torsions:
REMARK  status: ('A' for Active; 'I' for Inactive)
REMARK    1  A    between atoms: C_2  and  N_13
REMARK    2  A    between atoms: C_5  and  C_9
REMARK    3  A    between atoms: C_6  and  C_8
REMARK    4  A    between atoms: C_14  and  C_17
REMARK    5  A    between atoms: C_17  and  O_19
REMARK    6  A    between atoms: C_17  and  C_21
REMARK    7  A    between atoms: C_21  and  S_22
REMARK    8  A    between atoms: S_22  and  C_25
REMARK                            x       y       z     vdW  Elec       q    Type
REMARK                         _______ _______ _______ _____ _____    ______ ____
ROOT
ATOM      1  N   UNL     1      40.943  29.686  15.800  0.00  0.00    +0.000 N 
ATOM      2  C   UNL     1      40.980  30.709  16.743  0.00  0.00    +0.000 C 
ATOM      3  O   UNL     1      41.113  31.908  16.475  0.00  0.00    +0.000 OA
ATOM      4  H   UNL     1      40.727  28.751  16.151  0.00  0.00    +0.000 HD
ENDROOT
BRANCH   1   5
ATOM      5  C   UNL     1      41.094  29.837  14.412  0.00  0.00    +0.000 A 
ATOM      6  C   UNL     1      39.988  30.272  13.682  0.00  0.00    +0.000 A 
ATOM      7  C   UNL     1      42.282  29.560  13.745  0.00  0.00    +0.000 A 
ATOM      8  C   UNL     1      40.054  30.439  12.294  0.00  0.00    +0.000 A 
ATOM      9  C   UNL     1      41.259  30.159  11.634  0.00  0.00    +0.000 A 
ATOM     10  C   UNL     1      42.366  29.720  12.364  0.00  0.00    +0.000 A 
BRANCH   8  11
ATOM     11  C   UNL     1      38.834  30.911  11.558  0.00  0.00    +0.000 C 
ATOM     12  F   UNL     1      37.777  31.168  12.377  0.00  0.00    +0.000 F 
ATOM     13  F   UNL     1      39.058  32.062  10.871  0.00  0.00    +0.000 F 
ATOM     14  F   UNL     1      38.389  30.000  10.653  0.00  0.00    +0.000 F 
ENDBRANCH   8  11
BRANCH   9  16
ATOM     15  N   UNL     1      41.523  30.408   9.069  0.00  0.00    +0.000 NA
ATOM     16  C   UNL     1      41.407  30.304  10.218  0.00  0.00    +0.000 C 
ENDBRANCH   9  16
ENDBRANCH   1   5
BRANCH   2  17
ATOM     17  C   UNL     1      40.881  30.241  18.252  0.00  0.00    +0.000 C 
ATOM     18  C   UNL     1      41.740  31.143  19.182  0.00  0.00    +0.000 C 
BRANCH  17  19
ATOM     19  O   UNL     1      41.368  28.916  18.388  0.00  0.00    +0.000 OA
ATOM     20  H   UNL     1      42.129  28.993  18.995  0.00  0.00    +0.000 HD
ENDBRANCH  17  19
BRANCH  17  21
ATOM     21  C   UNL     1      39.503  30.271  18.637  0.00  0.00    +0.000 C 
BRANCH  21  22
ATOM     22  S   UNL     1      37.798  30.238  18.893  0.00  0.00    +0.000 S 
ATOM     23  O   UNL     1      37.729  31.265  19.901  0.00  0.00    +0.000 OA
ATOM     24  O   UNL     1      37.694  28.818  19.131  0.00  0.00    +0.000 OA
BRANCH  22  25
ATOM     25  C   UNL     1      36.992  30.708  17.435  0.00  0.00    +0.000 A 
ATOM     26  C   UNL     1      37.056  29.847  16.344  0.00  0.00    +0.000 A 
ATOM     27  C   UNL     1      36.435  30.214  15.153  0.00  0.00    +0.000 A 
ATOM     28  C   UNL     1      35.769  31.434  15.076  0.00  0.00    +0.000 A 
ATOM     29  F   UNL     1      35.172  31.786  13.929  0.00  0.00    +0.000 F 
ATOM     30  C   UNL     1      35.714  32.296  16.168  0.00  0.00    +0.000 A 
ATOM     31  C   UNL     1      36.334  31.931  17.359  0.00  0.00    +0.000 A 
ENDBRANCH  22  25
ENDBRANCH  21  22
ENDBRANCH  17  21
ENDBRANCH   2  17
TORSDOF 8
ENDMDL
MODEL 9
REMARK VINA RESULT:      -5.2     37.718     39.790
REMARK  Name = Bicalutamide.pdbqt.pdb
REMARK  8 active torsions:
REMARK  status: ('A' for Active; 'I' for Inactive)
REMARK    1  A    between atoms: C_2  and  N_13
REMARK    2  A    between atoms: C_5  and  C_9
REMARK    3  A    between atoms: C_6  and  C_8
REMARK    4  A    between atoms: C_14  and  C_17
REMARK    5  A    between atoms: C_17  and  O_19
REMARK    6  A    between atoms: C_17  and  C_21
REMARK    7  A    between atoms: C_21  and  S_22
REMARK    8  A    between atoms: S_22  and  C_25
REMARK                            x       y       z     vdW  Elec       q    Type
REMARK                         _______ _______ _______ _____ _____    ______ ____
ROOT
ATOM      1  N   UNL     1      29.639   7.690  -7.675  0.00  0.00    +0.000 N 
ATOM      2  C   UNL     1      29.353   6.449  -8.239  0.00  0.00    +0.000 C 
ATOM      3  O   UNL     1      28.521   6.258  -9.132  0.00  0.00    +0.000 OA
ATOM      4  H   UNL     1      30.420   7.722  -7.018  0.00  0.00    +0.000 HD
ENDROOT
BRANCH   1   5
ATOM      5  C   UNL     1      29.009   8.905  -7.991  0.00  0.00    +0.000 A 
ATOM      6  C   UNL     1      27.933   9.304  -7.199  0.00  0.00    +0.000 A 
ATOM      7  C   UNL     1      29.404   9.708  -9.056  0.00  0.00    +0.000 A 
ATOM      8  C   UNL     1      27.247  10.497  -7.454  0.00  0.00    +0.000 A 
ATOM      9  C   UNL     1      27.657  11.298  -8.530  0.00  0.00    +0.000 A 
ATOM     10  C   UNL     1      28.732  10.898  -9.325  0.00  0.00    +0.000 A 
BRANCH   8  11
ATOM     11  C   UNL     1      26.096  10.879  -6.570  0.00  0.00    +0.000 C 
ATOM     12  F   UNL     1      26.201  12.140  -6.066  0.00  0.00    +0.000 F 
ATOM     13  F   UNL     1      24.905  10.840  -7.224  0.00  0.00    +0.000 F 
ATOM     14  F   UNL     1      25.973  10.059  -5.493  0.00  0.00    +0.000 F 
ENDBRANCH   8  11
BRANCH   9  16
ATOM     15  N   UNL     1      26.468  13.524  -9.115  0.00  0.00    +0.000 NA
ATOM     16  C   UNL     1      27.007  12.531  -8.855  0.00  0.00    +0.000 C 
ENDBRANCH   9  16
ENDBRANCH   1   5
BRANCH   2  17
ATOM     17  C   UNL     1      30.150   5.228  -7.624  0.00  0.00    +0.000 C 
ATOM     18  C   UNL     1      30.337   4.091  -8.667  0.00  0.00    +0.000 C 
BRANCH  17  19
ATOM     19  O   UNL     1      29.438   4.678  -6.528  0.00  0.00    +0.000 OA
ATOM     20  H   UNL     1      28.504   4.688  -6.810  0.00  0.00    +0.000 HD
ENDBRANCH  17  19
BRANCH  17  21
ATOM     21  C   UNL     1      31.414   5.712  -7.160  0.00  0.00    +0.000 C 
BRANCH  21  22
ATOM     22  S   UNL     1      32.952   6.403  -6.796  0.00  0.00    +0.000 S 
ATOM     23  O   UNL     1      33.715   5.744  -7.825  0.00  0.00    +0.000 OA
ATOM     24  O   UNL     1      32.960   6.062  -5.394  0.00  0.00    +0.000 OA
BRANCH  22  25
ATOM     25  C   UNL     1      32.881   8.116  -7.042  0.00  0.00    +0.000 A 
ATOM     26  C   UNL     1      32.460   8.914  -5.983  0.00  0.00    +0.000 A 
ATOM     27  C   UNL     1      32.372  10.291  -6.164  0.00  0.00    +0.000 A 
ATOM     28  C   UNL     1      32.702  10.841  -7.400  0.00  0.00    +0.000 A 
ATOM     29  F   UNL     1      32.617  12.167  -7.573  0.00  0.00    +0.000 F 
ATOM     30  C   UNL     1      33.116  10.038  -8.459  0.00  0.00    +0.000 A 
ATOM     31  C   UNL     1      33.204   8.661  -8.281  0.00  0.00    +0.000 A 
ENDBRANCH  22  25
ENDBRANCH  21  22
ENDBRANCH  17  21
ENDBRANCH   2  17
TORSDOF 8
ENDMDL
