MODEL 1
REMARK VINA RESULT:      -6.7      0.000      0.000
REMARK  Name = Bisphenol_A.pdbqt.pdb
REMARK  4 active torsions:
REMARK  status: ('A' for Active; 'I' for Inactive)
REMARK    1  A    between atoms: C_1  and  C_4
REMARK    2  A    between atoms: C_1  and  C_12
REMARK    3  A    between atoms: C_7  and  O_10
REMARK    4  A    between atoms: C_15  and  O_18
REMARK                            x       y       z     vdW  Elec       q    Type
REMARK                         _______ _______ _______ _____ _____    ______ ____
ROOT
ATOM      1  C   UNL     1      42.608  -6.242  10.950  0.00  0.00    +0.000 C 
ATOM      2  C   UNL     1      42.004  -7.445  11.757  0.00  0.00    +0.000 C 
ATOM      3  C   UNL     1      41.583  -5.843   9.830  0.00  0.00    +0.000 C 
ENDROOT
BRANCH   1   4
ATOM      4  C   UNL     1      42.828  -5.099  11.953  0.00  0.00    +0.000 A 
ATOM      5  C   UNL     1      42.487  -5.277  13.306  0.00  0.00    +0.000 A 
ATOM      6  C   UNL     1      42.656  -4.256  14.239  0.00  0.00    +0.000 A 
ATOM      7  C   UNL     1      43.167  -3.033  13.822  0.00  0.00    +0.000 A 
ATOM      8  C   UNL     1      43.508  -2.820  12.492  0.00  0.00    +0.000 A 
ATOM      9  C   UNL     1      43.331  -3.848  11.568  0.00  0.00    +0.000 A 
BRANCH   7  10
ATOM     10  O   UNL     1      43.350  -2.014  14.709  0.00  0.00    +0.000 OA
ATOM     11  H   UNL     1      42.804  -2.186  15.495  0.00  0.00    +0.000 HD
ENDBRANCH   7  10
ENDBRANCH   1   4
BRANCH   1  12
ATOM     12  C   UNL     1      43.914  -6.629  10.240  0.00  0.00    +0.000 A 
ATOM     13  C   UNL     1      45.133  -6.595  10.942  0.00  0.00    +0.000 A 
ATOM     14  C   UNL     1      46.337  -6.923  10.325  0.00  0.00    +0.000 A 
ATOM     15  C   UNL     1      46.335  -7.288   8.984  0.00  0.00    +0.000 A 
ATOM     16  C   UNL     1      45.151  -7.326   8.258  0.00  0.00    +0.000 A 
ATOM     17  C   UNL     1      43.953  -6.993   8.886  0.00  0.00    +0.000 A 
BRANCH  15  18
ATOM     18  O   UNL     1      47.495  -7.621   8.349  0.00  0.00    +0.000 OA
ATOM     19  H   UNL     1      47.823  -6.838   7.872  0.00  0.00    +0.000 HD
ENDBRANCH  15  18
ENDBRANCH   1  12
TORSDOF 4
ENDMDL
MODEL 2
REMARK VINA RESULT:      -6.4      0.804      5.641
REMARK  Name = Bisphenol_A.pdbqt.pdb
REMARK  4 active torsions:
REMARK  status: ('A' for Active; 'I' for Inactive)
REMARK    1  A    between atoms: C_1  and  C_4
REMARK    2  A    between atoms: C_1  and  C_12
REMARK    3  A    between atoms: C_7  and  O_10
REMARK    4  A    between atoms: C_15  and  O_18
REMARK                            x       y       z     vdW  Elec       q    Type
REMARK                         _______ _______ _______ _____ _____    ______ ____
ROOT
ATOM      1  C   UNL     1      43.023  -5.922  11.663  0.00  0.00    +0.000 C 
ATOM      2  C   UNL     1      41.775  -5.988  10.712  0.00  0.00    +0.000 C 
ATOM      3  C   UNL     1      42.803  -6.953  12.827  0.00  0.00    +0.000 C 
ENDROOT
BRANCH   1   4
ATOM      4  C   UNL     1      44.250  -6.279  10.812  0.00  0.00    +0.000 A 
ATOM      5  C   UNL     1      44.086  -6.655   9.466  0.00  0.00    +0.000 A 
ATOM      6  C   UNL     1      45.176  -7.003   8.670  0.00  0.00    +0.000 A 
ATOM      7  C   UNL     1      46.452  -6.983   9.220  0.00  0.00    +0.000 A 
ATOM      8  C   UNL     1      46.650  -6.624  10.547  0.00  0.00    +0.000 A 
ATOM      9  C   UNL     1      45.552  -6.281  11.334  0.00  0.00    +0.000 A 
BRANCH   7  10
ATOM     10  O   UNL     1      47.541  -7.313   8.468  0.00  0.00    +0.000 OA
ATOM     11  H   UNL     1      47.670  -8.276   8.516  0.00  0.00    +0.000 HD
ENDBRANCH   7  10
ENDBRANCH   1   4
BRANCH   1  12
ATOM     12  C   UNL     1      43.171  -4.540  12.316  0.00  0.00    +0.000 A 
ATOM     13  C   UNL     1      43.019  -4.400  13.707  0.00  0.00    +0.000 A 
ATOM     14  C   UNL     1      43.129  -3.159  14.329  0.00  0.00    +0.000 A 
ATOM     15  C   UNL     1      43.391  -2.033  13.557  0.00  0.00    +0.000 A 
ATOM     16  C   UNL     1      43.540  -2.134  12.179  0.00  0.00    +0.000 A 
ATOM     17  C   UNL     1      43.424  -3.380  11.568  0.00  0.00    +0.000 A 
BRANCH  15  18
ATOM     18  O   UNL     1      43.511  -0.803  14.134  0.00  0.00    +0.000 OA
ATOM     19  H   UNL     1      43.139  -0.139  13.527  0.00  0.00    +0.000 HD
ENDBRANCH  15  18
ENDBRANCH   1  12
TORSDOF 4
ENDMDL
MODEL 3
REMARK VINA RESULT:      -6.2      2.312      3.186
REMARK  Name = Bisphenol_A.pdbqt.pdb
REMARK  4 active torsions:
REMARK  status: ('A' for Active; 'I' for Inactive)
REMARK    1  A    between atoms: C_1  and  C_4
REMARK    2  A    between atoms: C_1  and  C_12
REMARK    3  A    between atoms: C_7  and  O_10
REMARK    4  A    between atoms: C_15  and  O_18
REMARK                            x       y       z     vdW  Elec       q    Type
REMARK                         _______ _______ _______ _____ _____    ______ ____
ROOT
ATOM      1  C   UNL     1      44.595  -4.325  11.347  0.00  0.00    +0.000 C 
ATOM      2  C   UNL     1      43.487  -3.216  11.270  0.00  0.00    +0.000 C 
ATOM      3  C   UNL     1      45.974  -3.660  10.997  0.00  0.00    +0.000 C 
ENDROOT
BRANCH   1   4
ATOM      4  C   UNL     1      44.576  -4.874  12.781  0.00  0.00    +0.000 A 
ATOM      5  C   UNL     1      45.574  -4.488  13.694  0.00  0.00    +0.000 A 
ATOM      6  C   UNL     1      45.598  -4.981  14.997  0.00  0.00    +0.000 A 
ATOM      7  C   UNL     1      44.617  -5.878  15.401  0.00  0.00    +0.000 A 
ATOM      8  C   UNL     1      43.621  -6.288  14.523  0.00  0.00    +0.000 A 
ATOM      9  C   UNL     1      43.610  -5.790  13.222  0.00  0.00    +0.000 A 
BRANCH   7  10
ATOM     10  O   UNL     1      44.608  -6.377  16.670  0.00  0.00    +0.000 OA
ATOM     11  H   UNL     1      45.527  -6.492  16.965  0.00  0.00    +0.000 HD
ENDBRANCH   7  10
ENDBRANCH   1   4
BRANCH   1  12
ATOM     12  C   UNL     1      44.364  -5.436  10.313  0.00  0.00    +0.000 A 
ATOM     13  C   UNL     1      45.411  -6.313   9.976  0.00  0.00    +0.000 A 
ATOM     14  C   UNL     1      45.241  -7.320   9.030  0.00  0.00    +0.000 A 
ATOM     15  C   UNL     1      44.009  -7.460   8.402  0.00  0.00    +0.000 A 
ATOM     16  C   UNL     1      42.954  -6.608   8.705  0.00  0.00    +0.000 A 
ATOM     17  C   UNL     1      43.138  -5.602   9.650  0.00  0.00    +0.000 A 
BRANCH  15  18
ATOM     18  O   UNL     1      43.806  -8.440   7.475  0.00  0.00    +0.000 OA
ATOM     19  H   UNL     1      44.511  -8.386   6.807  0.00  0.00    +0.000 HD
ENDBRANCH  15  18
ENDBRANCH   1  12
TORSDOF 4
ENDMDL
MODEL 4
REMARK VINA RESULT:      -6.0     35.705     37.653
REMARK  Name = Bisphenol_A.pdbqt.pdb
REMARK  4 active torsions:
REMARK  status: ('A' for Active; 'I' for Inactive)
REMARK    1  A    between atoms: C_1  and  C_4
REMARK    2  A    between atoms: C_1  and  C_12
REMARK    3  A    between atoms: C_7  and  O_10
REMARK    4  A    between atoms: C_15  and  O_18
REMARK                            x       y       z     vdW  Elec       q    Type
REMARK                         _______ _______ _______ _____ _____    ______ ____
ROOT
ATOM      1  C   UNL     1      12.546   7.077  29.830  0.00  0.00    +0.000 C 
ATOM      2  C   UNL     1      11.981   5.617  29.721  0.00  0.00    +0.000 C 
ATOM      3  C   UNL     1      11.339   8.050  30.076  0.00  0.00    +0.000 C 
ENDROOT
BRANCH   1   4
ATOM      4  C   UNL     1      13.533   7.085  31.008  0.00  0.00    +0.000 A 
ATOM      5  C   UNL     1      14.387   5.986  31.216  0.00  0.00    +0.000 A 
ATOM      6  C   UNL     1      15.280   5.952  32.284  0.00  0.00    +0.000 A 
ATOM      7  C   UNL     1      15.325   7.025  33.167  0.00  0.00    +0.000 A 
ATOM      8  C   UNL     1      14.490   8.122  32.996  0.00  0.00    +0.000 A 
ATOM      9  C   UNL     1      13.599   8.143  31.926  0.00  0.00    +0.000 A 
BRANCH   7  10
ATOM     10  O   UNL     1      16.190   7.026  34.220  0.00  0.00    +0.000 OA
ATOM     11  H   UNL     1      15.747   7.431  34.985  0.00  0.00    +0.000 HD
ENDBRANCH   7  10
ENDBRANCH   1   4
BRANCH   1  12
ATOM     12  C   UNL     1      13.221   7.527  28.526  0.00  0.00    +0.000 A 
ATOM     13  C   UNL     1      13.490   6.588  27.513  0.00  0.00    +0.000 A 
ATOM     14  C   UNL     1      14.116   6.959  26.326  0.00  0.00    +0.000 A 
ATOM     15  C   UNL     1      14.486   8.286  26.139  0.00  0.00    +0.000 A 
ATOM     16  C   UNL     1      14.242   9.238  27.120  0.00  0.00    +0.000 A 
ATOM     17  C   UNL     1      13.618   8.854  28.305  0.00  0.00    +0.000 A 
BRANCH  15  18
ATOM     18  O   UNL     1      15.096   8.685  24.986  0.00  0.00    +0.000 OA
ATOM     19  H   UNL     1      15.220   9.649  25.020  0.00  0.00    +0.000 HD
ENDBRANCH  15  18
ENDBRANCH   1  12
TORSDOF 4
ENDMDL
MODEL 5
REMARK VINA RESULT:      -6.0      3.069      6.257
REMARK  Name = Bisphenol_A.pdbqt.pdb
REMARK  4 active torsions:
REMARK  status: ('A' for Active; 'I' for Inactive)
REMARK    1  A    between atoms: C_1  and  C_4
REMARK    2  A    between atoms: C_1  and  C_12
REMARK    3  A    between atoms: C_7  and  O_10
REMARK    4  A    between atoms: C_15  and  O_18
REMARK                            x       y       z     vdW  Elec       q    Type
REMARK                         _______ _______ _______ _____ _____    ______ ____
ROOT
ATOM      1  C   UNL     1      44.750  -3.453  12.305  0.00  0.00    +0.000 C 
ATOM      2  C   UNL     1      45.281  -4.205  13.577  0.00  0.00    +0.000 C 
ATOM      3  C   UNL     1      45.944  -3.298  11.297  0.00  0.00    +0.000 C 
ENDROOT
BRANCH   1   4
ATOM      4  C   UNL     1      43.619  -4.312  11.720  0.00  0.00    +0.000 A 
ATOM      5  C   UNL     1      43.125  -4.039  10.431  0.00  0.00    +0.000 A 
ATOM      6  C   UNL     1      42.088  -4.786   9.877  0.00  0.00    +0.000 A 
ATOM      7  C   UNL     1      41.526  -5.820  10.615  0.00  0.00    +0.000 A 
ATOM      8  C   UNL     1      41.984  -6.113  11.894  0.00  0.00    +0.000 A 
ATOM      9  C   UNL     1      43.020  -5.356  12.439  0.00  0.00    +0.000 A 
BRANCH   7  10
ATOM     10  O   UNL     1      40.513  -6.574  10.102  0.00  0.00    +0.000 OA
ATOM     11  H   UNL     1      40.737  -7.514  10.216  0.00  0.00    +0.000 HD
ENDBRANCH   7  10
ENDBRANCH   1   4
BRANCH   1  12
ATOM     12  C   UNL     1      44.266  -2.035  12.641  0.00  0.00    +0.000 A 
ATOM     13  C   UNL     1      44.759  -0.934  11.917  0.00  0.00    +0.000 A 
ATOM     14  C   UNL     1      44.355   0.367  12.208  0.00  0.00    +0.000 A 
ATOM     15  C   UNL     1      43.447   0.582  13.238  0.00  0.00    +0.000 A 
ATOM     16  C   UNL     1      42.945  -0.481  13.978  0.00  0.00    +0.000 A 
ATOM     17  C   UNL     1      43.359  -1.778  13.680  0.00  0.00    +0.000 A 
BRANCH  15  18
ATOM     18  O   UNL     1      43.026   1.842  13.545  0.00  0.00    +0.000 OA
ATOM     19  H   UNL     1      42.258   2.056  12.986  0.00  0.00    +0.000 HD
ENDBRANCH  15  18
ENDBRANCH   1  12
TORSDOF 4
ENDMDL
MODEL 6
REMARK VINA RESULT:      -5.9      2.796      5.146
REMARK  Name = Bisphenol_A.pdbqt.pdb
REMARK  4 active torsions:
REMARK  status: ('A' for Active; 'I' for Inactive)
REMARK    1  A    between atoms: C_1  and  C_4
REMARK    2  A    between atoms: C_1  and  C_12
REMARK    3  A    between atoms: C_7  and  O_10
REMARK    4  A    between atoms: C_15  and  O_18
REMARK                            x       y       z     vdW  Elec       q    Type
REMARK                         _______ _______ _______ _____ _____    ______ ____
ROOT
ATOM      1  C   UNL     1      45.784  -4.977  11.136  0.00  0.00    +0.000 C 
ATOM      2  C   UNL     1      46.826  -5.403  12.230  0.00  0.00    +0.000 C 
ATOM      3  C   UNL     1      46.395  -5.307   9.728  0.00  0.00    +0.000 C 
ENDROOT
BRANCH   1   4
ATOM      4  C   UNL     1      44.504  -5.782  11.404  0.00  0.00    +0.000 A 
ATOM      5  C   UNL     1      44.160  -6.135  12.721  0.00  0.00    +0.000 A 
ATOM      6  C   UNL     1      43.015  -6.880  12.998  0.00  0.00    +0.000 A 
ATOM      7  C   UNL     1      42.199  -7.288  11.950  0.00  0.00    +0.000 A 
ATOM      8  C   UNL     1      42.513  -6.963  10.636  0.00  0.00    +0.000 A 
ATOM      9  C   UNL     1      43.662  -6.220  10.372  0.00  0.00    +0.000 A 
BRANCH   7  10
ATOM     10  O   UNL     1      41.070  -8.014  12.186  0.00  0.00    +0.000 OA
ATOM     11  H   UNL     1      40.404  -7.778  11.517  0.00  0.00    +0.000 HD
ENDBRANCH   7  10
ENDBRANCH   1   4
BRANCH   1  12
ATOM     12  C   UNL     1      45.516  -3.465  11.160  0.00  0.00    +0.000 A 
ATOM     13  C   UNL     1      46.288  -2.602  10.362  0.00  0.00    +0.000 A 
ATOM     14  C   UNL     1      46.084  -1.224  10.373  0.00  0.00    +0.000 A 
ATOM     15  C   UNL     1      45.098  -0.691  11.194  0.00  0.00    +0.000 A 
ATOM     16  C   UNL     1      44.321  -1.513  12.001  0.00  0.00    +0.000 A 
ATOM     17  C   UNL     1      44.537  -2.889  11.984  0.00  0.00    +0.000 A 
BRANCH  15  18
ATOM     18  O   UNL     1      44.867   0.653  11.225  0.00  0.00    +0.000 OA
ATOM     19  H   UNL     1      45.643   1.092  11.615  0.00  0.00    +0.000 HD
ENDBRANCH  15  18
ENDBRANCH   1  12
TORSDOF 4
ENDMDL
MODEL 7
REMARK VINA RESULT:      -5.9     35.584     37.375
REMARK  Name = Bisphenol_A.pdbqt.pdb
REMARK  4 active torsions:
REMARK  status: ('A' for Active; 'I' for Inactive)
REMARK    1  A    between atoms: C_1  and  C_4
REMARK    2  A    between atoms: C_1  and  C_12
REMARK    3  A    between atoms: C_7  and  O_10
REMARK    4  A    between atoms: C_15  and  O_18
REMARK                            x       y       z     vdW  Elec       q    Type
REMARK                         _______ _______ _______ _____ _____    ______ ____
ROOT
ATOM      1  C   UNL     1      21.870  17.603  32.534  0.00  0.00    +0.000 C 
ATOM      2  C   UNL     1      20.386  18.074  32.741  0.00  0.00    +0.000 C 
ATOM      3  C   UNL     1      22.677  17.951  33.836  0.00  0.00    +0.000 C 
ENDROOT
BRANCH   1   4
ATOM      4  C   UNL     1      21.825  16.089  32.280  0.00  0.00    +0.000 A 
ATOM      5  C   UNL     1      21.838  15.195  33.366  0.00  0.00    +0.000 A 
ATOM      6  C   UNL     1      21.817  13.815  33.171  0.00  0.00    +0.000 A 
ATOM      7  C   UNL     1      21.788  13.312  31.876  0.00  0.00    +0.000 A 
ATOM      8  C   UNL     1      21.782  14.166  30.781  0.00  0.00    +0.000 A 
ATOM      9  C   UNL     1      21.807  15.544  30.988  0.00  0.00    +0.000 A 
BRANCH   7  10
ATOM     10  O   UNL     1      21.762  11.968  31.650  0.00  0.00    +0.000 OA
ATOM     11  H   UNL     1      22.598  11.584  31.968  0.00  0.00    +0.000 HD
ENDBRANCH   7  10
ENDBRANCH   1   4
BRANCH   1  12
ATOM     12  C   UNL     1      22.550  18.350  31.378  0.00  0.00    +0.000 A 
ATOM     13  C   UNL     1      23.944  18.266  31.210  0.00  0.00    +0.000 A 
ATOM     14  C   UNL     1      24.594  18.945  30.182  0.00  0.00    +0.000 A 
ATOM     15  C   UNL     1      23.850  19.725  29.306  0.00  0.00    +0.000 A 
ATOM     16  C   UNL     1      22.472  19.836  29.445  0.00  0.00    +0.000 A 
ATOM     17  C   UNL     1      21.833  19.155  30.479  0.00  0.00    +0.000 A 
BRANCH  15  18
ATOM     18  O   UNL     1      24.454  20.398  28.285  0.00  0.00    +0.000 OA
ATOM     19  H   UNL     1      24.414  19.847  27.484  0.00  0.00    +0.000 HD
ENDBRANCH  15  18
ENDBRANCH   1  12
TORSDOF 4
ENDMDL
MODEL 8
REMARK VINA RESULT:      -5.7     32.597     35.659
REMARK  Name = Bisphenol_A.pdbqt.pdb
REMARK  4 active torsions:
REMARK  status: ('A' for Active; 'I' for Inactive)
REMARK    1  A    between atoms: C_1  and  C_4
REMARK    2  A    between atoms: C_1  and  C_12
REMARK    3  A    between atoms: C_7  and  O_10
REMARK    4  A    between atoms: C_15  and  O_18
REMARK                            x       y       z     vdW  Elec       q    Type
REMARK                         _______ _______ _______ _____ _____    ______ ____
ROOT
ATOM      1  C   UNL     1      13.473   4.655  28.109  0.00  0.00    +0.000 C 
ATOM      2  C   UNL     1      12.448   4.205  27.009  0.00  0.00    +0.000 C 
ATOM      3  C   UNL     1      12.845   4.350  29.515  0.00  0.00    +0.000 C 
ENDROOT
BRANCH   1   4
ATOM      4  C   UNL     1      14.760   3.850  27.874  0.00  0.00    +0.000 A 
ATOM      5  C   UNL     1      15.350   3.828  26.598  0.00  0.00    +0.000 A 
ATOM      6  C   UNL     1      16.507   3.093  26.345  0.00  0.00    +0.000 A 
ATOM      7  C   UNL     1      17.087   2.363  27.375  0.00  0.00    +0.000 A 
ATOM      8  C   UNL     1      16.526   2.356  28.646  0.00  0.00    +0.000 A 
ATOM      9  C   UNL     1      15.367   3.092  28.885  0.00  0.00    +0.000 A 
BRANCH   7  10
ATOM     10  O   UNL     1      18.221   1.637  27.163  0.00  0.00    +0.000 OA
ATOM     11  H   UNL     1      17.975   0.702  27.052  0.00  0.00    +0.000 HD
ENDBRANCH   7  10
ENDBRANCH   1   4
BRANCH   1  12
ATOM     12  C   UNL     1      13.736   6.167  28.059  0.00  0.00    +0.000 A 
ATOM     13  C   UNL     1      13.884   6.895  29.255  0.00  0.00    +0.000 A 
ATOM     14  C   UNL     1      14.106   8.270  29.246  0.00  0.00    +0.000 A 
ATOM     15  C   UNL     1      14.179   8.938  28.030  0.00  0.00    +0.000 A 
ATOM     16  C   UNL     1      14.031   8.253  26.830  0.00  0.00    +0.000 A 
ATOM     17  C   UNL     1      13.806   6.878  26.852  0.00  0.00    +0.000 A 
BRANCH  15  18
ATOM     18  O   UNL     1      14.401  10.283  27.985  0.00  0.00    +0.000 OA
ATOM     19  H   UNL     1      13.613  10.714  27.609  0.00  0.00    +0.000 HD
ENDBRANCH  15  18
ENDBRANCH   1  12
TORSDOF 4
ENDMDL
MODEL 9
REMARK VINA RESULT:      -5.4      3.210      5.175
REMARK  Name = Bisphenol_A.pdbqt.pdb
REMARK  4 active torsions:
REMARK  status: ('A' for Active; 'I' for Inactive)
REMARK    1  A    between atoms: C_1  and  C_4
REMARK    2  A    between atoms: C_1  and  C_12
REMARK    3  A    between atoms: C_7  and  O_10
REMARK    4  A    between atoms: C_15  and  O_18
REMARK                            x       y       z     vdW  Elec       q    Type
REMARK                         _______ _______ _______ _____ _____    ______ ____
ROOT
ATOM      1  C   UNL     1      46.353  -5.434  10.972  0.00  0.00    +0.000 C 
ATOM      2  C   UNL     1      47.068  -6.742  10.482  0.00  0.00    +0.000 C 
ATOM      3  C   UNL     1      46.888  -4.235  10.110  0.00  0.00    +0.000 C 
ENDROOT
BRANCH   1   4
ATOM      4  C   UNL     1      44.845  -5.649  10.772  0.00  0.00    +0.000 A 
ATOM      5  C   UNL     1      44.013  -4.555  10.471  0.00  0.00    +0.000 A 
ATOM      6  C   UNL     1      42.639  -4.712  10.302  0.00  0.00    +0.000 A 
ATOM      7  C   UNL     1      42.078  -5.975  10.438  0.00  0.00    +0.000 A 
ATOM      8  C   UNL     1      42.868  -7.077  10.742  0.00  0.00    +0.000 A 
ATOM      9  C   UNL     1      44.241  -6.907  10.912  0.00  0.00    +0.000 A 
BRANCH   7  10
ATOM     10  O   UNL     1      40.738  -6.165  10.274  0.00  0.00    +0.000 OA
ATOM     11  H   UNL     1      40.334  -6.302  11.149  0.00  0.00    +0.000 HD
ENDBRANCH   7  10
ENDBRANCH   1   4
BRANCH   1  12
ATOM     12  C   UNL     1      46.688  -5.113  12.435  0.00  0.00    +0.000 A 
ATOM     13  C   UNL     1      48.030  -4.967  12.833  0.00  0.00    +0.000 A 
ATOM     14  C   UNL     1      48.370  -4.694  14.156  0.00  0.00    +0.000 A 
ATOM     15  C   UNL     1      47.362  -4.567  15.104  0.00  0.00    +0.000 A 
ATOM     16  C   UNL     1      46.027  -4.712  14.748  0.00  0.00    +0.000 A 
ATOM     17  C   UNL     1      45.699  -4.988  13.423  0.00  0.00    +0.000 A 
BRANCH  15  18
ATOM     18  O   UNL     1      47.660  -4.294  16.407  0.00  0.00    +0.000 OA
ATOM     19  H   UNL     1      48.129  -5.059  16.784  0.00  0.00    +0.000 HD
ENDBRANCH  15  18
ENDBRANCH   1  12
TORSDOF 4
ENDMDL
