MODEL 1
REMARK VINA RESULT:      -5.6      0.000      0.000
REMARK  Name = BX795.pdbqt.pdb
REMARK  7 active torsions:
REMARK  status: ('A' for Active; 'I' for Inactive)
REMARK    1  A    between atoms: C_4  and  N_25
REMARK    2  A    between atoms: N_8  and  C_10
REMARK    3  A    between atoms: C_12  and  N_16
REMARK    4  A    between atoms: N_25  and  C_27
REMARK    5  A    between atoms: C_27  and  C_28
REMARK    6  A    between atoms: C_29  and  N_30
REMARK    7  A    between atoms: C_31  and  C_34
REMARK                            x       y       z     vdW  Elec       q    Type
REMARK                         _______ _______ _______ _____ _____    ______ ____
ROOT
ATOM      1  I   UNL     1      24.540  26.742  34.803  0.00  0.00    +0.000 I 
ATOM      2  N   UNL     1      24.487  22.856  32.905  0.00  0.00    +0.000 NA
ATOM      3  N   UNL     1      24.393  24.460  31.185  0.00  0.00    +0.000 NA
ATOM      4  C   UNL     1      24.491  23.821  33.850  0.00  0.00    +0.000 A 
ATOM      5  C   UNL     1      24.436  23.195  31.609  0.00  0.00    +0.000 A 
ATOM      6  C   UNL     1      24.498  25.154  33.490  0.00  0.00    +0.000 A 
ATOM      7  C   UNL     1      24.442  25.406  32.141  0.00  0.00    +0.000 A 
ATOM      8  N   UNL     1      24.378  22.210  30.628  0.00  0.00    +0.000 N 
ATOM      9  H   UNL     1      24.268  22.611  29.708  0.00  0.00    +0.000 HD
ENDROOT
BRANCH   8  10
ATOM     10  C   UNL     1      24.636  20.837  30.711  0.00  0.00    +0.000 A 
ATOM     11  C   UNL     1      23.616  19.888  30.829  0.00  0.00    +0.000 A 
ATOM     12  C   UNL     1      23.875  18.518  30.812  0.00  0.00    +0.000 A 
ATOM     13  C   UNL     1      25.183  18.078  30.645  0.00  0.00    +0.000 A 
ATOM     14  C   UNL     1      26.217  19.001  30.513  0.00  0.00    +0.000 A 
ATOM     15  C   UNL     1      25.942  20.369  30.544  0.00  0.00    +0.000 A 
BRANCH  12  16
ATOM     16  N   UNL     1      22.787  17.650  31.013  0.00  0.00    +0.000 N 
ATOM     17  C   UNL     1      22.341  17.170  32.232  0.00  0.00    +0.000 C 
ATOM     18  O   UNL     1      22.933  17.336  33.298  0.00  0.00    +0.000 OA
ATOM     19  N   UNL     1      21.154  16.443  32.146  0.00  0.00    +0.000 N 
ATOM     20  C   UNL     1      20.352  16.112  31.096  0.00  0.00    +0.000 A 
ATOM     21  C   UNL     1      20.457  15.832  33.144  0.00  0.00    +0.000 A 
ATOM     22  C   UNL     1      19.095  15.264  31.315  0.00  0.00    +0.000 A 
ATOM     23  C   UNL     1      19.171  15.056  32.835  0.00  0.00    +0.000 A 
ATOM     24  H   UNL     1      22.338  17.289  30.180  0.00  0.00    +0.000 HD
ENDBRANCH  12  16
ENDBRANCH   8  10
BRANCH   4  25
ATOM     25  N   UNL     1      24.557  23.437  35.214  0.00  0.00    +0.000 N 
ATOM     26  H   UNL     1      23.618  23.275  35.571  0.00  0.00    +0.000 HD
BRANCH  25  27
ATOM     27  C   UNL     1      25.513  22.381  35.534  0.00  0.00    +0.000 C 
BRANCH  27  28
ATOM     28  C   UNL     1      26.511  21.304  35.973  0.00  0.00    +0.000 C 
ATOM     29  C   UNL     1      27.449  20.163  36.378  0.00  0.00    +0.000 C 
BRANCH  29  30
ATOM     30  N   UNL     1      28.257  19.126  36.693  0.00  0.00    +0.000 N 
ATOM     31  C   UNL     1      28.600  18.024  35.922  0.00  0.00    +0.000 C 
ATOM     32  O   UNL     1      28.182  17.899  34.772  0.00  0.00    +0.000 OA
ATOM     33  H   UNL     1      28.594  19.153  37.648  0.00  0.00    +0.000 HD
BRANCH  31  34
ATOM     34  C   UNL     1      29.453  17.054  36.587  0.00  0.00    +0.000 A 
ATOM     35  S   UNL     1      28.836  16.121  37.896  0.00  0.00    +0.000 S 
ATOM     36  C   UNL     1      30.320  15.329  38.102  0.00  0.00    +0.000 A 
ATOM     37  C   UNL     1      31.276  15.738  37.215  0.00  0.00    +0.000 A 
ATOM     38  C   UNL     1      30.772  16.731  36.345  0.00  0.00    +0.000 A 
ENDBRANCH  31  34
ENDBRANCH  29  30
ENDBRANCH  27  28
ENDBRANCH  25  27
ENDBRANCH   4  25
TORSDOF 7
ENDMDL
MODEL 2
REMARK VINA RESULT:      -5.2      9.604     13.148
REMARK  Name = BX795.pdbqt.pdb
REMARK  7 active torsions:
REMARK  status: ('A' for Active; 'I' for Inactive)
REMARK    1  A    between atoms: C_4  and  N_25
REMARK    2  A    between atoms: N_8  and  C_10
REMARK    3  A    between atoms: C_12  and  N_16
REMARK    4  A    between atoms: N_25  and  C_27
REMARK    5  A    between atoms: C_27  and  C_28
REMARK    6  A    between atoms: C_29  and  N_30
REMARK    7  A    between atoms: C_31  and  C_34
REMARK                            x       y       z     vdW  Elec       q    Type
REMARK                         _______ _______ _______ _____ _____    ______ ____
ROOT
ATOM      1  I   UNL     1      29.059   9.993  42.172  0.00  0.00    +0.000 I 
ATOM      2  N   UNL     1      26.625   8.088  39.147  0.00  0.00    +0.000 NA
ATOM      3  N   UNL     1      26.298   6.888  41.145  0.00  0.00    +0.000 NA
ATOM      4  C   UNL     1      27.505   8.916  39.749  0.00  0.00    +0.000 A 
ATOM      5  C   UNL     1      26.051   7.101  39.850  0.00  0.00    +0.000 A 
ATOM      6  C   UNL     1      27.775   8.791  41.097  0.00  0.00    +0.000 A 
ATOM      7  C   UNL     1      27.144   7.752  41.736  0.00  0.00    +0.000 A 
ATOM      8  N   UNL     1      25.184   6.208  39.229  0.00  0.00    +0.000 N 
ATOM      9  H   UNL     1      24.889   5.479  39.862  0.00  0.00    +0.000 HD
ENDROOT
BRANCH   8  10
ATOM     10  C   UNL     1      24.546   6.287  37.986  0.00  0.00    +0.000 A 
ATOM     11  C   UNL     1      23.891   7.443  37.551  0.00  0.00    +0.000 A 
ATOM     12  C   UNL     1      23.344   7.546  36.273  0.00  0.00    +0.000 A 
ATOM     13  C   UNL     1      23.475   6.478  35.391  0.00  0.00    +0.000 A 
ATOM     14  C   UNL     1      24.132   5.319  35.795  0.00  0.00    +0.000 A 
ATOM     15  C   UNL     1      24.664   5.228  37.081  0.00  0.00    +0.000 A 
BRANCH  12  16
ATOM     16  N   UNL     1      22.642   8.724  35.960  0.00  0.00    +0.000 N 
ATOM     17  C   UNL     1      23.160   9.835  35.320  0.00  0.00    +0.000 C 
ATOM     18  O   UNL     1      24.353   9.990  35.062  0.00  0.00    +0.000 OA
ATOM     19  N   UNL     1      22.201  10.800  35.010  0.00  0.00    +0.000 N 
ATOM     20  C   UNL     1      20.855  10.859  35.218  0.00  0.00    +0.000 A 
ATOM     21  C   UNL     1      22.372  12.003  34.395  0.00  0.00    +0.000 A 
ATOM     22  C   UNL     1      20.054  12.087  34.775  0.00  0.00    +0.000 A 
ATOM     23  C   UNL     1      21.178  12.937  34.163  0.00  0.00    +0.000 A 
ATOM     24  H   UNL     1      21.690   8.787  36.302  0.00  0.00    +0.000 HD
ENDBRANCH  12  16
ENDBRANCH   8  10
BRANCH   4  25
ATOM     25  N   UNL     1      28.090   9.959  38.985  0.00  0.00    +0.000 N 
ATOM     26  H   UNL     1      28.227  10.779  39.572  0.00  0.00    +0.000 HD
BRANCH  25  27
ATOM     27  C   UNL     1      29.255   9.588  38.186  0.00  0.00    +0.000 C 
BRANCH  27  28
ATOM     28  C   UNL     1      30.510   9.303  37.354  0.00  0.00    +0.000 C 
ATOM     29  C   UNL     1      31.708   8.974  36.460  0.00  0.00    +0.000 C 
BRANCH  29  30
ATOM     30  N   UNL     1      32.733   8.685  35.626  0.00  0.00    +0.000 N 
ATOM     31  C   UNL     1      33.513   9.550  34.873  0.00  0.00    +0.000 C 
ATOM     32  O   UNL     1      33.343  10.767  34.924  0.00  0.00    +0.000 OA
ATOM     33  H   UNL     1      32.889   7.690  35.510  0.00  0.00    +0.000 HD
BRANCH  31  34
ATOM     34  C   UNL     1      34.504   8.903  34.029  0.00  0.00    +0.000 A 
ATOM     35  S   UNL     1      35.662   9.853  33.180  0.00  0.00    +0.000 S 
ATOM     36  C   UNL     1      36.361   8.475  32.484  0.00  0.00    +0.000 A 
ATOM     37  C   UNL     1      35.757   7.311  32.869  0.00  0.00    +0.000 A 
ATOM     38  C   UNL     1      34.688   7.563  33.758  0.00  0.00    +0.000 A 
ENDBRANCH  31  34
ENDBRANCH  29  30
ENDBRANCH  27  28
ENDBRANCH  25  27
ENDBRANCH   4  25
TORSDOF 7
ENDMDL
MODEL 3
REMARK VINA RESULT:      -5.1     42.674     45.727
REMARK  Name = BX795.pdbqt.pdb
REMARK  7 active torsions:
REMARK  status: ('A' for Active; 'I' for Inactive)
REMARK    1  A    between atoms: C_4  and  N_25
REMARK    2  A    between atoms: N_8  and  C_10
REMARK    3  A    between atoms: C_12  and  N_16
REMARK    4  A    between atoms: N_25  and  C_27
REMARK    5  A    between atoms: C_27  and  C_28
REMARK    6  A    between atoms: C_29  and  N_30
REMARK    7  A    between atoms: C_31  and  C_34
REMARK                            x       y       z     vdW  Elec       q    Type
REMARK                         _______ _______ _______ _____ _____    ______ ____
ROOT
ATOM      1  I   UNL     1      31.304   2.435 -15.597  0.00  0.00    +0.000 I 
ATOM      2  N   UNL     1      30.576   3.307 -11.424  0.00  0.00    +0.000 NA
ATOM      3  N   UNL     1      32.472   1.915 -11.513  0.00  0.00    +0.000 NA
ATOM      4  C   UNL     1      30.437   3.259 -12.766  0.00  0.00    +0.000 A 
ATOM      5  C   UNL     1      31.578   2.638 -10.834  0.00  0.00    +0.000 A 
ATOM      6  C   UNL     1      31.351   2.573 -13.541  0.00  0.00    +0.000 A 
ATOM      7  C   UNL     1      32.342   1.917 -12.852  0.00  0.00    +0.000 A 
ATOM      8  N   UNL     1      31.700   2.635  -9.449  0.00  0.00    +0.000 N 
ATOM      9  H   UNL     1      32.451   2.032  -9.146  0.00  0.00    +0.000 HD
ENDROOT
BRANCH   8  10
ATOM     10  C   UNL     1      31.097   3.453  -8.487  0.00  0.00    +0.000 A 
ATOM     11  C   UNL     1      31.604   4.711  -8.149  0.00  0.00    +0.000 A 
ATOM     12  C   UNL     1      30.943   5.561  -7.264  0.00  0.00    +0.000 A 
ATOM     13  C   UNL     1      29.727   5.161  -6.719  0.00  0.00    +0.000 A 
ATOM     14  C   UNL     1      29.194   3.917  -7.048  0.00  0.00    +0.000 A 
ATOM     15  C   UNL     1      29.874   3.074  -7.927  0.00  0.00    +0.000 A 
BRANCH  12  16
ATOM     16  N   UNL     1      31.575   6.774  -6.933  0.00  0.00    +0.000 N 
ATOM     17  C   UNL     1      32.585   6.938  -6.002  0.00  0.00    +0.000 C 
ATOM     18  O   UNL     1      32.968   6.056  -5.235  0.00  0.00    +0.000 OA
ATOM     19  N   UNL     1      33.124   8.225  -5.984  0.00  0.00    +0.000 N 
ATOM     20  C   UNL     1      32.847   9.348  -6.704  0.00  0.00    +0.000 A 
ATOM     21  C   UNL     1      34.115   8.721  -5.192  0.00  0.00    +0.000 A 
ATOM     22  C   UNL     1      33.611  10.649  -6.437  0.00  0.00    +0.000 A 
ATOM     23  C   UNL     1      34.552  10.185  -5.316  0.00  0.00    +0.000 A 
ATOM     24  H   UNL     1      31.203   7.610  -7.367  0.00  0.00    +0.000 HD
ENDBRANCH  12  16
ENDBRANCH   8  10
BRANCH   4  25
ATOM     25  N   UNL     1      29.376   3.985 -13.366  0.00  0.00    +0.000 N 
ATOM     26  H   UNL     1      28.713   3.337 -13.786  0.00  0.00    +0.000 HD
BRANCH  25  27
ATOM     27  C   UNL     1      28.764   5.022 -12.540  0.00  0.00    +0.000 C 
BRANCH  27  28
ATOM     28  C   UNL     1      28.186   6.077 -11.591  0.00  0.00    +0.000 C 
ATOM     29  C   UNL     1      27.686   7.122 -10.590  0.00  0.00    +0.000 C 
BRANCH  29  30
ATOM     30  N   UNL     1      27.298   8.058  -9.694  0.00  0.00    +0.000 N 
ATOM     31  C   UNL     1      27.740   9.365  -9.553  0.00  0.00    +0.000 C 
ATOM     32  O   UNL     1      28.581   9.837 -10.318  0.00  0.00    +0.000 OA
ATOM     33  H   UNL     1      26.638   7.710  -9.008  0.00  0.00    +0.000 HD
BRANCH  31  34
ATOM     34  C   UNL     1      27.153  10.094  -8.441  0.00  0.00    +0.000 A 
ATOM     35  S   UNL     1      27.800  11.620  -7.977  0.00  0.00    +0.000 S 
ATOM     36  C   UNL     1      26.677  11.772  -6.717  0.00  0.00    +0.000 A 
ATOM     37  C   UNL     1      25.819  10.712  -6.628  0.00  0.00    +0.000 A 
ATOM     38  C   UNL     1      26.097   9.748  -7.623  0.00  0.00    +0.000 A 
ENDBRANCH  31  34
ENDBRANCH  29  30
ENDBRANCH  27  28
ENDBRANCH  25  27
ENDBRANCH   4  25
TORSDOF 7
ENDMDL
MODEL 4
REMARK VINA RESULT:      -4.9      4.323      8.306
REMARK  Name = BX795.pdbqt.pdb
REMARK  7 active torsions:
REMARK  status: ('A' for Active; 'I' for Inactive)
REMARK    1  A    between atoms: C_4  and  N_25
REMARK    2  A    between atoms: N_8  and  C_10
REMARK    3  A    between atoms: C_12  and  N_16
REMARK    4  A    between atoms: N_25  and  C_27
REMARK    5  A    between atoms: C_27  and  C_28
REMARK    6  A    between atoms: C_29  and  N_30
REMARK    7  A    between atoms: C_31  and  C_34
REMARK                            x       y       z     vdW  Elec       q    Type
REMARK                         _______ _______ _______ _____ _____    ______ ____
ROOT
ATOM      1  I   UNL     1      30.909  25.864  36.734  0.00  0.00    +0.000 I 
ATOM      2  N   UNL     1      28.749  22.356  35.418  0.00  0.00    +0.000 NA
ATOM      3  N   UNL     1      31.041  21.881  35.175  0.00  0.00    +0.000 NA
ATOM      4  C   UNL     1      29.020  23.601  35.863  0.00  0.00    +0.000 A 
ATOM      5  C   UNL     1      29.755  21.534  35.084  0.00  0.00    +0.000 A 
ATOM      6  C   UNL     1      30.326  24.016  36.031  0.00  0.00    +0.000 A 
ATOM      7  C   UNL     1      31.291  23.110  35.663  0.00  0.00    +0.000 A 
ATOM      8  N   UNL     1      29.488  20.268  34.574  0.00  0.00    +0.000 N 
ATOM      9  H   UNL     1      30.336  19.795  34.299  0.00  0.00    +0.000 HD
ENDROOT
BRANCH   8  10
ATOM     10  C   UNL     1      28.301  19.527  34.574  0.00  0.00    +0.000 A 
ATOM     11  C   UNL     1      27.227  19.832  33.731  0.00  0.00    +0.000 A 
ATOM     12  C   UNL     1      26.088  19.031  33.667  0.00  0.00    +0.000 A 
ATOM     13  C   UNL     1      26.025  17.878  34.442  0.00  0.00    +0.000 A 
ATOM     14  C   UNL     1      27.085  17.545  35.281  0.00  0.00    +0.000 A 
ATOM     15  C   UNL     1      28.213  18.363  35.342  0.00  0.00    +0.000 A 
BRANCH  12  16
ATOM     16  N   UNL     1      25.034  19.466  32.843  0.00  0.00    +0.000 N 
ATOM     17  C   UNL     1      24.858  19.145  31.509  0.00  0.00    +0.000 C 
ATOM     18  O   UNL     1      25.686  18.541  30.828  0.00  0.00    +0.000 OA
ATOM     19  N   UNL     1      23.649  19.598  30.981  0.00  0.00    +0.000 N 
ATOM     20  C   UNL     1      22.611  20.295  31.523  0.00  0.00    +0.000 A 
ATOM     21  C   UNL     1      23.169  19.460  29.713  0.00  0.00    +0.000 A 
ATOM     22  C   UNL     1      21.398  20.674  30.668  0.00  0.00    +0.000 A 
ATOM     23  C   UNL     1      21.811  20.056  29.324  0.00  0.00    +0.000 A 
ATOM     24  H   UNL     1      24.389  20.132  33.249  0.00  0.00    +0.000 HD
ENDBRANCH  12  16
ENDBRANCH   8  10
BRANCH   4  25
ATOM     25  N   UNL     1      27.938  24.447  36.220  0.00  0.00    +0.000 N 
ATOM     26  H   UNL     1      28.264  25.168  36.861  0.00  0.00    +0.000 HD
BRANCH  25  27
ATOM     27  C   UNL     1      27.126  24.945  35.114  0.00  0.00    +0.000 C 
BRANCH  27  28
ATOM     28  C   UNL     1      26.185  25.440  34.011  0.00  0.00    +0.000 C 
ATOM     29  C   UNL     1      25.217  26.003  32.967  0.00  0.00    +0.000 C 
BRANCH  29  30
ATOM     30  N   UNL     1      24.367  26.551  32.068  0.00  0.00    +0.000 N 
ATOM     31  C   UNL     1      23.823  25.982  30.926  0.00  0.00    +0.000 C 
ATOM     32  O   UNL     1      24.067  24.816  30.619  0.00  0.00    +0.000 OA
ATOM     33  H   UNL     1      24.167  27.528  32.247  0.00  0.00    +0.000 HD
BRANCH  31  34
ATOM     34  C   UNL     1      22.983  26.871  30.140  0.00  0.00    +0.000 A 
ATOM     35  S   UNL     1      21.271  26.697  30.185  0.00  0.00    +0.000 S 
ATOM     36  C   UNL     1      21.060  27.972  29.088  0.00  0.00    +0.000 A 
ATOM     37  C   UNL     1      22.238  28.536  28.684  0.00  0.00    +0.000 A 
ATOM     38  C   UNL     1      23.342  27.899  29.293  0.00  0.00    +0.000 A 
ENDBRANCH  31  34
ENDBRANCH  29  30
ENDBRANCH  27  28
ENDBRANCH  25  27
ENDBRANCH   4  25
TORSDOF 7
ENDMDL
MODEL 5
REMARK VINA RESULT:      -4.8     30.388     34.362
REMARK  Name = BX795.pdbqt.pdb
REMARK  7 active torsions:
REMARK  status: ('A' for Active; 'I' for Inactive)
REMARK    1  A    between atoms: C_4  and  N_25
REMARK    2  A    between atoms: N_8  and  C_10
REMARK    3  A    between atoms: C_12  and  N_16
REMARK    4  A    between atoms: N_25  and  C_27
REMARK    5  A    between atoms: C_27  and  C_28
REMARK    6  A    between atoms: C_29  and  N_30
REMARK    7  A    between atoms: C_31  and  C_34
REMARK                            x       y       z     vdW  Elec       q    Type
REMARK                         _______ _______ _______ _____ _____    ______ ____
ROOT
ATOM      1  I   UNL     1      15.949  -4.187  10.377  0.00  0.00    +0.000 I 
ATOM      2  N   UNL     1      19.740  -4.114  12.456  0.00  0.00    +0.000 NA
ATOM      3  N   UNL     1      19.063  -1.876  12.189  0.00  0.00    +0.000 NA
ATOM      4  C   UNL     1      18.647  -4.558  11.801  0.00  0.00    +0.000 A 
ATOM      5  C   UNL     1      19.923  -2.797  12.630  0.00  0.00    +0.000 A 
ATOM      6  C   UNL     1      17.687  -3.671  11.357  0.00  0.00    +0.000 A 
ATOM      7  C   UNL     1      17.958  -2.342  11.577  0.00  0.00    +0.000 A 
ATOM      8  N   UNL     1      21.071  -2.323  13.256  0.00  0.00    +0.000 N 
ATOM      9  H   UNL     1      21.106  -1.315  13.250  0.00  0.00    +0.000 HD
ENDROOT
BRANCH   8  10
ATOM     10  C   UNL     1      22.026  -3.001  14.023  0.00  0.00    +0.000 A 
ATOM     11  C   UNL     1      23.312  -3.273  13.549  0.00  0.00    +0.000 A 
ATOM     12  C   UNL     1      24.288  -3.861  14.353  0.00  0.00    +0.000 A 
ATOM     13  C   UNL     1      23.984  -4.161  15.677  0.00  0.00    +0.000 A 
ATOM     14  C   UNL     1      22.714  -3.890  16.178  0.00  0.00    +0.000 A 
ATOM     15  C   UNL     1      21.746  -3.312  15.356  0.00  0.00    +0.000 A 
BRANCH  12  16
ATOM     16  N   UNL     1      25.526  -4.160  13.758  0.00  0.00    +0.000 N 
ATOM     17  C   UNL     1      26.739  -3.567  14.059  0.00  0.00    +0.000 C 
ATOM     18  O   UNL     1      26.867  -2.592  14.798  0.00  0.00    +0.000 OA
ATOM     19  N   UNL     1      27.826  -4.161  13.417  0.00  0.00    +0.000 N 
ATOM     20  C   UNL     1      27.923  -5.209  12.551  0.00  0.00    +0.000 A 
ATOM     21  C   UNL     1      29.144  -3.822  13.486  0.00  0.00    +0.000 A 
ATOM     22  C   UNL     1      29.285  -5.625  11.985  0.00  0.00    +0.000 A 
ATOM     23  C   UNL     1      30.191  -4.596  12.677  0.00  0.00    +0.000 A 
ATOM     24  H   UNL     1      25.510  -4.820  12.989  0.00  0.00    +0.000 HD
ENDBRANCH  12  16
ENDBRANCH   8  10
BRANCH   4  25
ATOM     25  N   UNL     1      18.472  -5.957  11.640  0.00  0.00    +0.000 N 
ATOM     26  H   UNL     1      17.486  -6.165  11.495  0.00  0.00    +0.000 HD
BRANCH  25  27
ATOM     27  C   UNL     1      19.371  -6.607  10.690  0.00  0.00    +0.000 C 
BRANCH  27  28
ATOM     28  C   UNL     1      20.295  -7.207   9.625  0.00  0.00    +0.000 C 
ATOM     29  C   UNL     1      21.281  -7.741   8.583  0.00  0.00    +0.000 C 
BRANCH  29  30
ATOM     30  N   UNL     1      22.195  -8.193   7.694  0.00  0.00    +0.000 N 
ATOM     31  C   UNL     1      23.323  -7.551   7.202  0.00  0.00    +0.000 C 
ATOM     32  O   UNL     1      23.631  -6.424   7.587  0.00  0.00    +0.000 OA
ATOM     33  H   UNL     1      21.966  -9.102   7.308  0.00  0.00    +0.000 HD
BRANCH  31  34
ATOM     34  C   UNL     1      24.068  -8.302   6.206  0.00  0.00    +0.000 A 
ATOM     35  S   UNL     1      25.365  -7.553   5.358  0.00  0.00    +0.000 S 
ATOM     36  C   UNL     1      25.660  -8.958   4.458  0.00  0.00    +0.000 A 
ATOM     37  C   UNL     1      24.816  -9.986   4.772  0.00  0.00    +0.000 A 
ATOM     38  C   UNL     1      23.901  -9.604   5.779  0.00  0.00    +0.000 A 
ENDBRANCH  31  34
ENDBRANCH  29  30
ENDBRANCH  27  28
ENDBRANCH  25  27
ENDBRANCH   4  25
TORSDOF 7
ENDMDL
MODEL 6
REMARK VINA RESULT:      -4.7     32.737     35.967
REMARK  Name = BX795.pdbqt.pdb
REMARK  7 active torsions:
REMARK  status: ('A' for Active; 'I' for Inactive)
REMARK    1  A    between atoms: C_4  and  N_25
REMARK    2  A    between atoms: N_8  and  C_10
REMARK    3  A    between atoms: C_12  and  N_16
REMARK    4  A    between atoms: N_25  and  C_27
REMARK    5  A    between atoms: C_27  and  C_28
REMARK    6  A    between atoms: C_29  and  N_30
REMARK    7  A    between atoms: C_31  and  C_34
REMARK                            x       y       z     vdW  Elec       q    Type
REMARK                         _______ _______ _______ _____ _____    ______ ____
ROOT
ATOM      1  I   UNL     1      24.321 -14.901  11.874  0.00  0.00    +0.000 I 
ATOM      2  N   UNL     1      25.964 -11.235  10.272  0.00  0.00    +0.000 NA
ATOM      3  N   UNL     1      26.867 -13.002   9.006  0.00  0.00    +0.000 NA
ATOM      4  C   UNL     1      25.283 -12.100  11.054  0.00  0.00    +0.000 A 
ATOM      5  C   UNL     1      26.735 -11.701   9.279  0.00  0.00    +0.000 A 
ATOM      6  C   UNL     1      25.329 -13.457  10.803  0.00  0.00    +0.000 A 
ATOM      7  C   UNL     1      26.145 -13.843   9.768  0.00  0.00    +0.000 A 
ATOM      8  N   UNL     1      27.484 -10.825   8.501  0.00  0.00    +0.000 N 
ATOM      9  H   UNL     1      28.070 -11.321   7.846  0.00  0.00    +0.000 HD
ENDROOT
BRANCH   8  10
ATOM     10  C   UNL     1      27.397  -9.434   8.370  0.00  0.00    +0.000 A 
ATOM     11  C   UNL     1      27.937  -8.557   9.315  0.00  0.00    +0.000 A 
ATOM     12  C   UNL     1      27.933  -7.175   9.129  0.00  0.00    +0.000 A 
ATOM     13  C   UNL     1      27.400  -6.651   7.956  0.00  0.00    +0.000 A 
ATOM     14  C   UNL     1      26.866  -7.503   6.993  0.00  0.00    +0.000 A 
ATOM     15  C   UNL     1      26.868  -8.883   7.200  0.00  0.00    +0.000 A 
BRANCH  12  16
ATOM     16  N   UNL     1      28.434  -6.378  10.173  0.00  0.00    +0.000 N 
ATOM     17  C   UNL     1      27.740  -5.988  11.305  0.00  0.00    +0.000 C 
ATOM     18  O   UNL     1      26.537  -6.178  11.478  0.00  0.00    +0.000 OA
ATOM     19  N   UNL     1      28.530  -5.321  12.242  0.00  0.00    +0.000 N 
ATOM     20  C   UNL     1      29.849  -4.979  12.257  0.00  0.00    +0.000 A 
ATOM     21  C   UNL     1      28.164  -4.802  13.448  0.00  0.00    +0.000 A 
ATOM     22  C   UNL     1      30.439  -4.212  13.445  0.00  0.00    +0.000 A 
ATOM     23  C   UNL     1      29.190  -4.080  14.329  0.00  0.00    +0.000 A 
ATOM     24  H   UNL     1      29.364  -5.997  10.045  0.00  0.00    +0.000 HD
ENDBRANCH  12  16
ENDBRANCH   8  10
BRANCH   4  25
ATOM     25  N   UNL     1      24.466 -11.581  12.091  0.00  0.00    +0.000 N 
ATOM     26  H   UNL     1      23.767 -12.272  12.355  0.00  0.00    +0.000 HD
BRANCH  25  27
ATOM     27  C   UNL     1      25.171 -10.975  13.217  0.00  0.00    +0.000 C 
BRANCH  27  28
ATOM     28  C   UNL     1      25.883 -10.427  14.458  0.00  0.00    +0.000 C 
ATOM     29  C   UNL     1      26.648  -9.827  15.641  0.00  0.00    +0.000 C 
BRANCH  29  30
ATOM     30  N   UNL     1      27.334  -9.252  16.654  0.00  0.00    +0.000 N 
ATOM     31  C   UNL     1      27.973  -8.021  16.685  0.00  0.00    +0.000 C 
ATOM     32  O   UNL     1      27.945  -7.266  15.714  0.00  0.00    +0.000 OA
ATOM     33  H   UNL     1      27.429  -9.850  17.467  0.00  0.00    +0.000 HD
BRANCH  31  34
ATOM     34  C   UNL     1      28.674  -7.725  17.923  0.00  0.00    +0.000 A 
ATOM     35  S   UNL     1      28.808  -8.932  19.143  0.00  0.00    +0.000 S 
ATOM     36  C   UNL     1      29.661  -7.882  20.164  0.00  0.00    +0.000 A 
ATOM     37  C   UNL     1      29.857  -6.643  19.620  0.00  0.00    +0.000 A 
ATOM     38  C   UNL     1      29.287  -6.558  18.330  0.00  0.00    +0.000 A 
ENDBRANCH  31  34
ENDBRANCH  29  30
ENDBRANCH  27  28
ENDBRANCH  25  27
ENDBRANCH   4  25
TORSDOF 7
ENDMDL
MODEL 7
REMARK VINA RESULT:      -4.7     12.084     15.531
REMARK  Name = BX795.pdbqt.pdb
REMARK  7 active torsions:
REMARK  status: ('A' for Active; 'I' for Inactive)
REMARK    1  A    between atoms: C_4  and  N_25
REMARK    2  A    between atoms: N_8  and  C_10
REMARK    3  A    between atoms: C_12  and  N_16
REMARK    4  A    between atoms: N_25  and  C_27
REMARK    5  A    between atoms: C_27  and  C_28
REMARK    6  A    between atoms: C_29  and  N_30
REMARK    7  A    between atoms: C_31  and  C_34
REMARK                            x       y       z     vdW  Elec       q    Type
REMARK                         _______ _______ _______ _____ _____    ______ ____
ROOT
ATOM      1  I   UNL     1      33.393  33.803  22.928  0.00  0.00    +0.000 I 
ATOM      2  N   UNL     1      29.077  33.993  22.731  0.00  0.00    +0.000 NA
ATOM      3  N   UNL     1      29.802  32.865  20.797  0.00  0.00    +0.000 NA
ATOM      4  C   UNL     1      30.350  34.172  23.145  0.00  0.00    +0.000 A 
ATOM      5  C   UNL     1      28.835  33.353  21.578  0.00  0.00    +0.000 A 
ATOM      6  C   UNL     1      31.402  33.652  22.417  0.00  0.00    +0.000 A 
ATOM      7  C   UNL     1      31.061  33.014  21.250  0.00  0.00    +0.000 A 
ATOM      8  N   UNL     1      27.532  33.210  21.114  0.00  0.00    +0.000 N 
ATOM      9  H   UNL     1      27.510  32.776  20.203  0.00  0.00    +0.000 HD
ENDROOT
BRANCH   8  10
ATOM     10  C   UNL     1      26.313  33.388  21.778  0.00  0.00    +0.000 A 
ATOM     11  C   UNL     1      25.950  32.630  22.896  0.00  0.00    +0.000 A 
ATOM     12  C   UNL     1      24.780  32.880  23.610  0.00  0.00    +0.000 A 
ATOM     13  C   UNL     1      23.958  33.932  23.220  0.00  0.00    +0.000 A 
ATOM     14  C   UNL     1      24.301  34.710  22.117  0.00  0.00    +0.000 A 
ATOM     15  C   UNL     1      25.471  34.439  21.406  0.00  0.00    +0.000 A 
BRANCH  12  16
ATOM     16  N   UNL     1      24.470  32.012  24.673  0.00  0.00    +0.000 N 
ATOM     17  C   UNL     1      23.448  31.080  24.693  0.00  0.00    +0.000 C 
ATOM     18  O   UNL     1      22.583  30.985  23.823  0.00  0.00    +0.000 OA
ATOM     19  N   UNL     1      23.465  30.257  25.819  0.00  0.00    +0.000 N 
ATOM     20  C   UNL     1      24.289  30.196  26.902  0.00  0.00    +0.000 A 
ATOM     21  C   UNL     1      22.607  29.252  26.151  0.00  0.00    +0.000 A 
ATOM     22  C   UNL     1      24.035  29.173  28.015  0.00  0.00    +0.000 A 
ATOM     23  C   UNL     1      22.787  28.472  27.458  0.00  0.00    +0.000 A 
ATOM     24  H   UNL     1      25.002  32.136  25.527  0.00  0.00    +0.000 HD
ENDBRANCH  12  16
ENDBRANCH   8  10
BRANCH   4  25
ATOM     25  N   UNL     1      30.578  34.842  24.374  0.00  0.00    +0.000 N 
ATOM     26  H   UNL     1      29.785  35.442  24.590  0.00  0.00    +0.000 HD
BRANCH  25  27
ATOM     27  C   UNL     1      31.019  34.004  25.486  0.00  0.00    +0.000 C 
BRANCH  27  28
ATOM     28  C   UNL     1      31.498  33.215  26.709  0.00  0.00    +0.000 C 
ATOM     29  C   UNL     1      31.964  32.348  27.882  0.00  0.00    +0.000 C 
BRANCH  29  30
ATOM     30  N   UNL     1      32.391  31.544  28.881  0.00  0.00    +0.000 N 
ATOM     31  C   UNL     1      31.667  30.629  29.633  0.00  0.00    +0.000 C 
ATOM     32  O   UNL     1      30.472  30.434  29.417  0.00  0.00    +0.000 OA
ATOM     33  H   UNL     1      33.361  31.695  29.133  0.00  0.00    +0.000 HD
BRANCH  31  34
ATOM     34  C   UNL     1      32.424  29.961  30.678  0.00  0.00    +0.000 A 
ATOM     35  S   UNL     1      31.625  29.414  32.101  0.00  0.00    +0.000 S 
ATOM     36  C   UNL     1      33.074  28.827  32.754  0.00  0.00    +0.000 A 
ATOM     37  C   UNL     1      34.152  29.023  31.937  0.00  0.00    +0.000 A 
ATOM     38  C   UNL     1      33.772  29.676  30.742  0.00  0.00    +0.000 A 
ENDBRANCH  31  34
ENDBRANCH  29  30
ENDBRANCH  27  28
ENDBRANCH  25  27
ENDBRANCH   4  25
TORSDOF 7
ENDMDL
MODEL 8
REMARK VINA RESULT:      -4.7     18.157     20.432
REMARK  Name = BX795.pdbqt.pdb
REMARK  7 active torsions:
REMARK  status: ('A' for Active; 'I' for Inactive)
REMARK    1  A    between atoms: C_4  and  N_25
REMARK    2  A    between atoms: N_8  and  C_10
REMARK    3  A    between atoms: C_12  and  N_16
REMARK    4  A    between atoms: N_25  and  C_27
REMARK    5  A    between atoms: C_27  and  C_28
REMARK    6  A    between atoms: C_29  and  N_30
REMARK    7  A    between atoms: C_31  and  C_34
REMARK                            x       y       z     vdW  Elec       q    Type
REMARK                         _______ _______ _______ _____ _____    ______ ____
ROOT
ATOM      1  I   UNL     1      41.381  29.789  18.557  0.00  0.00    +0.000 I 
ATOM      2  N   UNL     1      37.791  31.157  20.542  0.00  0.00    +0.000 NA
ATOM      3  N   UNL     1      37.111  30.067  18.570  0.00  0.00    +0.000 NA
ATOM      4  C   UNL     1      39.092  30.944  20.251  0.00  0.00    +0.000 A 
ATOM      5  C   UNL     1      36.841  30.721  19.702  0.00  0.00    +0.000 A 
ATOM      6  C   UNL     1      39.450  30.232  19.123  0.00  0.00    +0.000 A 
ATOM      7  C   UNL     1      38.411  29.827  18.321  0.00  0.00    +0.000 A 
ATOM      8  N   UNL     1      35.499  30.981  19.963  0.00  0.00    +0.000 N 
ATOM      9  H   UNL     1      34.908  30.660  19.211  0.00  0.00    +0.000 HD
ENDROOT
BRANCH   8  10
ATOM     10  C   UNL     1      34.877  31.417  21.139  0.00  0.00    +0.000 A 
ATOM     11  C   UNL     1      35.597  31.739  22.293  0.00  0.00    +0.000 A 
ATOM     12  C   UNL     1      34.979  32.266  23.426  0.00  0.00    +0.000 A 
ATOM     13  C   UNL     1      33.609  32.505  23.403  0.00  0.00    +0.000 A 
ATOM     14  C   UNL     1      32.869  32.203  22.262  0.00  0.00    +0.000 A 
ATOM     15  C   UNL     1      33.502  31.666  21.140  0.00  0.00    +0.000 A 
BRANCH  12  16
ATOM     16  N   UNL     1      35.781  32.487  24.560  0.00  0.00    +0.000 N 
ATOM     17  C   UNL     1      36.821  33.395  24.658  0.00  0.00    +0.000 C 
ATOM     18  O   UNL     1      37.270  34.035  23.709  0.00  0.00    +0.000 OA
ATOM     19  N   UNL     1      37.348  33.504  25.945  0.00  0.00    +0.000 N 
ATOM     20  C   UNL     1      37.039  32.889  27.121  0.00  0.00    +0.000 A 
ATOM     21  C   UNL     1      38.371  34.290  26.381  0.00  0.00    +0.000 A 
ATOM     22  C   UNL     1      37.828  33.208  28.395  0.00  0.00    +0.000 A 
ATOM     23  C   UNL     1      38.817  34.247  27.847  0.00  0.00    +0.000 A 
ATOM     24  H   UNL     1      35.626  31.872  25.350  0.00  0.00    +0.000 HD
ENDBRANCH  12  16
ENDBRANCH   8  10
BRANCH   4  25
ATOM     25  N   UNL     1      40.077  31.405  21.162  0.00  0.00    +0.000 N 
ATOM     26  H   UNL     1      39.974  32.408  21.299  0.00  0.00    +0.000 HD
BRANCH  25  27
ATOM     27  C   UNL     1      40.214  30.638  22.397  0.00  0.00    +0.000 C 
BRANCH  27  28
ATOM     28  C   UNL     1      40.258  29.868  23.721  0.00  0.00    +0.000 C 
ATOM     29  C   UNL     1      40.353  29.033  25.000  0.00  0.00    +0.000 C 
BRANCH  29  30
ATOM     30  N   UNL     1      40.485  28.274  26.112  0.00  0.00    +0.000 N 
ATOM     31  C   UNL     1      40.382  26.897  26.243  0.00  0.00    +0.000 C 
ATOM     32  O   UNL     1      40.170  26.180  25.266  0.00  0.00    +0.000 OA
ATOM     33  H   UNL     1      40.616  28.817  26.958  0.00  0.00    +0.000 HD
BRANCH  31  34
ATOM     34  C   UNL     1      40.523  26.399  27.601  0.00  0.00    +0.000 A 
ATOM     35  S   UNL     1      40.900  27.487  28.880  0.00  0.00    +0.000 S 
ATOM     36  C   UNL     1      40.908  26.231  30.018  0.00  0.00    +0.000 A 
ATOM     37  C   UNL     1      40.632  25.008  29.473  0.00  0.00    +0.000 A 
ATOM     38  C   UNL     1      40.411  25.110  28.081  0.00  0.00    +0.000 A 
ENDBRANCH  31  34
ENDBRANCH  29  30
ENDBRANCH  27  28
ENDBRANCH  25  27
ENDBRANCH   4  25
TORSDOF 7
ENDMDL
MODEL 9
REMARK VINA RESULT:      -4.7      5.162      8.950
REMARK  Name = BX795.pdbqt.pdb
REMARK  7 active torsions:
REMARK  status: ('A' for Active; 'I' for Inactive)
REMARK    1  A    between atoms: C_4  and  N_25
REMARK    2  A    between atoms: N_8  and  C_10
REMARK    3  A    between atoms: C_12  and  N_16
REMARK    4  A    between atoms: N_25  and  C_27
REMARK    5  A    between atoms: C_27  and  C_28
REMARK    6  A    between atoms: C_29  and  N_30
REMARK    7  A    between atoms: C_31  and  C_34
REMARK                            x       y       z     vdW  Elec       q    Type
REMARK                         _______ _______ _______ _____ _____    ______ ____
ROOT
ATOM      1  I   UNL     1      23.423  25.288  39.167  0.00  0.00    +0.000 I 
ATOM      2  N   UNL     1      21.824  24.898  35.168  0.00  0.00    +0.000 NA
ATOM      3  N   UNL     1      20.797  26.781  36.136  0.00  0.00    +0.000 NA
ATOM      4  C   UNL     1      22.516  24.652  36.301  0.00  0.00    +0.000 A 
ATOM      5  C   UNL     1      20.986  25.945  35.114  0.00  0.00    +0.000 A 
ATOM      6  C   UNL     1      22.411  25.500  37.384  0.00  0.00    +0.000 A 
ATOM      7  C   UNL     1      21.529  26.544  37.240  0.00  0.00    +0.000 A 
ATOM      8  N   UNL     1      20.228  26.178  33.972  0.00  0.00    +0.000 N 
ATOM      9  H   UNL     1      19.592  26.952  34.103  0.00  0.00    +0.000 HD
ENDROOT
BRANCH   8  10
ATOM     10  C   UNL     1      20.355  25.654  32.680  0.00  0.00    +0.000 A 
ATOM     11  C   UNL     1      20.761  26.432  31.592  0.00  0.00    +0.000 A 
ATOM     12  C   UNL     1      20.980  25.881  30.330  0.00  0.00    +0.000 A 
ATOM     13  C   UNL     1      20.818  24.511  30.151  0.00  0.00    +0.000 A 
ATOM     14  C   UNL     1      20.426  23.711  31.221  0.00  0.00    +0.000 A 
ATOM     15  C   UNL     1      20.200  24.281  32.474  0.00  0.00    +0.000 A 
BRANCH  12  16
ATOM     16  N   UNL     1      21.315  26.762  29.286  0.00  0.00    +0.000 N 
ATOM     17  C   UNL     1      22.554  27.340  29.073  0.00  0.00    +0.000 C 
ATOM     18  O   UNL     1      23.496  27.263  29.860  0.00  0.00    +0.000 OA
ATOM     19  N   UNL     1      22.638  28.056  27.879  0.00  0.00    +0.000 N 
ATOM     20  C   UNL     1      21.737  28.298  26.886  0.00  0.00    +0.000 A 
ATOM     21  C   UNL     1      23.698  28.746  27.374  0.00  0.00    +0.000 A 
ATOM     22  C   UNL     1      22.124  29.160  25.679  0.00  0.00    +0.000 A 
ATOM     23  C   UNL     1      23.579  29.493  26.041  0.00  0.00    +0.000 A 
ATOM     24  H   UNL     1      20.557  27.053  28.681  0.00  0.00    +0.000 HD
ENDBRANCH  12  16
ENDBRANCH   8  10
BRANCH   4  25
ATOM     25  N   UNL     1      23.403  23.545  36.328  0.00  0.00    +0.000 N 
ATOM     26  H   UNL     1      23.501  23.208  37.284  0.00  0.00    +0.000 HD
BRANCH  25  27
ATOM     27  C   UNL     1      23.149  22.498  35.343  0.00  0.00    +0.000 C 
BRANCH  27  28
ATOM     28  C   UNL     1      22.872  21.329  34.391  0.00  0.00    +0.000 C 
ATOM     29  C   UNL     1      22.656  20.109  33.492  0.00  0.00    +0.000 C 
BRANCH  29  30
ATOM     30  N   UNL     1      22.477  18.999  32.741  0.00  0.00    +0.000 N 
ATOM     31  C   UNL     1      21.873  18.878  31.497  0.00  0.00    +0.000 C 
ATOM     32  O   UNL     1      21.433  19.862  30.906  0.00  0.00    +0.000 OA
ATOM     33  H   UNL     1      22.780  18.148  33.200  0.00  0.00    +0.000 HD
BRANCH  31  34
ATOM     34  C   UNL     1      21.792  17.520  30.986  0.00  0.00    +0.000 A 
ATOM     35  S   UNL     1      20.630  16.426  31.632  0.00  0.00    +0.000 S 
ATOM     36  C   UNL     1      21.158  15.179  30.613  0.00  0.00    +0.000 A 
ATOM     37  C   UNL     1      22.184  15.553  29.791  0.00  0.00    +0.000 A 
ATOM     38  C   UNL     1      22.546  16.901  30.010  0.00  0.00    +0.000 A 
ENDBRANCH  31  34
ENDBRANCH  29  30
ENDBRANCH  27  28
ENDBRANCH  25  27
ENDBRANCH   4  25
TORSDOF 7
ENDMDL
