MODEL 1
REMARK VINA RESULT:      -3.5      0.000      0.000
REMARK  Name = CadmiumAcetate.pdbqt.pdb
REMARK  1 active torsions:
REMARK  status: ('A' for Active; 'I' for Inactive)
REMARK    1  A    between atoms: C_3  and  O_4
REMARK                            x       y       z     vdW  Elec       q    Type
REMARK                         _______ _______ _______ _____ _____    ______ ____
ROOT
ATOM      1  O   UNL     1      32.773   8.755  17.877  0.00  0.00    +0.000 OA
ATOM      2  C   UNL     1      32.651  10.636  19.194  0.00  0.00    +0.000 C 
ATOM      3  C   UNL     1      33.070   9.243  18.948  0.00  0.00    +0.000 C 
ENDROOT
BRANCH   3   4
ATOM      4  O   UNL     1      33.740   8.649  19.934  0.00  0.00    +0.000 OA
ATOM      5  H   UNL     1      34.059   9.406  20.460  0.00  0.00    +0.000 HD
ENDBRANCH   3   4
TORSDOF 1
ENDMDL
MODEL 2
REMARK VINA RESULT:      -3.3     21.858     22.427
REMARK  Name = CadmiumAcetate.pdbqt.pdb
REMARK  1 active torsions:
REMARK  status: ('A' for Active; 'I' for Inactive)
REMARK    1  A    between atoms: C_3  and  O_4
REMARK                            x       y       z     vdW  Elec       q    Type
REMARK                         _______ _______ _______ _____ _____    ______ ____
ROOT
ATOM      1  O   UNL     1      19.688  28.233  15.090  0.00  0.00    +0.000 OA
ATOM      2  C   UNL     1      20.747  26.205  15.321  0.00  0.00    +0.000 C 
ATOM      3  C   UNL     1      20.750  27.650  15.022  0.00  0.00    +0.000 C 
ENDROOT
BRANCH   3   4
ATOM      4  O   UNL     1      21.930  28.181  14.706  0.00  0.00    +0.000 OA
ATOM      5  H   UNL     1      21.857  28.301  13.741  0.00  0.00    +0.000 HD
ENDBRANCH   3   4
TORSDOF 1
ENDMDL
MODEL 3
REMARK VINA RESULT:      -3.1     13.599     14.076
REMARK  Name = CadmiumAcetate.pdbqt.pdb
REMARK  1 active torsions:
REMARK  status: ('A' for Active; 'I' for Inactive)
REMARK    1  A    between atoms: C_3  and  O_4
REMARK                            x       y       z     vdW  Elec       q    Type
REMARK                         _______ _______ _______ _____ _____    ______ ____
ROOT
ATOM      1  O   UNL     1      30.616  -1.979  24.455  0.00  0.00    +0.000 OA
ATOM      2  C   UNL     1      29.563  -3.911  25.123  0.00  0.00    +0.000 C 
ATOM      3  C   UNL     1      30.489  -2.786  25.352  0.00  0.00    +0.000 C 
ENDROOT
BRANCH   3   4
ATOM      4  O   UNL     1      31.103  -2.762  26.535  0.00  0.00    +0.000 OA
ATOM      5  H   UNL     1      31.519  -3.643  26.576  0.00  0.00    +0.000 HD
ENDBRANCH   3   4
TORSDOF 1
ENDMDL
MODEL 4
REMARK VINA RESULT:      -3.0      2.029      2.617
REMARK  Name = CadmiumAcetate.pdbqt.pdb
REMARK  1 active torsions:
REMARK  status: ('A' for Active; 'I' for Inactive)
REMARK    1  A    between atoms: C_3  and  O_4
REMARK                            x       y       z     vdW  Elec       q    Type
REMARK                         _______ _______ _______ _____ _____    ______ ____
ROOT
ATOM      1  O   UNL     1      35.340   7.701  20.348  0.00  0.00    +0.000 OA
ATOM      2  C   UNL     1      35.579   9.708  19.253  0.00  0.00    +0.000 C 
ATOM      3  C   UNL     1      34.758   8.603  19.782  0.00  0.00    +0.000 C 
ENDROOT
BRANCH   3   4
ATOM      4  O   UNL     1      33.444   8.702  19.588  0.00  0.00    +0.000 OA
ATOM      5  H   UNL     1      33.390   9.116  18.707  0.00  0.00    +0.000 HD
ENDBRANCH   3   4
TORSDOF 1
ENDMDL
MODEL 5
REMARK VINA RESULT:      -2.9      2.159      2.478
REMARK  Name = CadmiumAcetate.pdbqt.pdb
REMARK  1 active torsions:
REMARK  status: ('A' for Active; 'I' for Inactive)
REMARK    1  A    between atoms: C_3  and  O_4
REMARK                            x       y       z     vdW  Elec       q    Type
REMARK                         _______ _______ _______ _____ _____    ______ ____
ROOT
ATOM      1  O   UNL     1      33.070   8.393  17.823  0.00  0.00    +0.000 OA
ATOM      2  C   UNL     1      34.773   8.309  19.365  0.00  0.00    +0.000 C 
ATOM      3  C   UNL     1      34.242   8.132  18.001  0.00  0.00    +0.000 C 
ENDROOT
BRANCH   3   4
ATOM      4  O   UNL     1      35.108   7.701  17.085  0.00  0.00    +0.000 OA
ATOM      5  H   UNL     1      35.957   8.046  17.417  0.00  0.00    +0.000 HD
ENDBRANCH   3   4
TORSDOF 1
ENDMDL
MODEL 6
REMARK VINA RESULT:      -2.8     19.974     20.139
REMARK  Name = CadmiumAcetate.pdbqt.pdb
REMARK  1 active torsions:
REMARK  status: ('A' for Active; 'I' for Inactive)
REMARK    1  A    between atoms: C_3  and  O_4
REMARK                            x       y       z     vdW  Elec       q    Type
REMARK                         _______ _______ _______ _____ _____    ______ ____
ROOT
ATOM      1  O   UNL     1      14.128   9.668  26.899  0.00  0.00    +0.000 OA
ATOM      2  C   UNL     1      14.006   7.399  26.544  0.00  0.00    +0.000 C 
ATOM      3  C   UNL     1      14.368   8.766  26.124  0.00  0.00    +0.000 C 
ENDROOT
BRANCH   3   4
ATOM      4  O   UNL     1      14.930   8.880  24.921  0.00  0.00    +0.000 OA
ATOM      5  H   UNL     1      14.414   9.600  24.513  0.00  0.00    +0.000 HD
ENDBRANCH   3   4
TORSDOF 1
ENDMDL
MODEL 7
REMARK VINA RESULT:      -2.7     13.504     13.830
REMARK  Name = CadmiumAcetate.pdbqt.pdb
REMARK  1 active torsions:
REMARK  status: ('A' for Active; 'I' for Inactive)
REMARK    1  A    between atoms: C_3  and  O_4
REMARK                            x       y       z     vdW  Elec       q    Type
REMARK                         _______ _______ _______ _____ _____    ______ ____
ROOT
ATOM      1  O   UNL     1      42.241  -0.532  13.297  0.00  0.00    +0.000 OA
ATOM      2  C   UNL     1      41.197   0.594  15.009  0.00  0.00    +0.000 C 
ATOM      3  C   UNL     1      41.476  -0.630  14.234  0.00  0.00    +0.000 C 
ENDROOT
BRANCH   3   4
ATOM      4  O   UNL     1      40.856  -1.736  14.642  0.00  0.00    +0.000 OA
ATOM      5  H   UNL     1      41.598  -2.339  14.831  0.00  0.00    +0.000 HD
ENDBRANCH   3   4
TORSDOF 1
ENDMDL
MODEL 8
REMARK VINA RESULT:      -2.7     15.233     15.577
REMARK  Name = CadmiumAcetate.pdbqt.pdb
REMARK  1 active torsions:
REMARK  status: ('A' for Active; 'I' for Inactive)
REMARK    1  A    between atoms: C_3  and  O_4
REMARK                            x       y       z     vdW  Elec       q    Type
REMARK                         _______ _______ _______ _____ _____    ______ ____
ROOT
ATOM      1  O   UNL     1      25.850   0.184  28.676  0.00  0.00    +0.000 OA
ATOM      2  C   UNL     1      25.292   0.299  30.904  0.00  0.00    +0.000 C 
ATOM      3  C   UNL     1      25.722   0.917  29.636  0.00  0.00    +0.000 C 
ENDROOT
BRANCH   3   4
ATOM      4  O   UNL     1      25.931   2.232  29.665  0.00  0.00    +0.000 OA
ATOM      5  H   UNL     1      25.205   2.550  30.233  0.00  0.00    +0.000 HD
ENDBRANCH   3   4
TORSDOF 1
ENDMDL
MODEL 9
REMARK VINA RESULT:      -2.6     21.653     22.329
REMARK  Name = CadmiumAcetate.pdbqt.pdb
REMARK  1 active torsions:
REMARK  status: ('A' for Active; 'I' for Inactive)
REMARK    1  A    between atoms: C_3  and  O_4
REMARK                            x       y       z     vdW  Elec       q    Type
REMARK                         _______ _______ _______ _____ _____    ______ ____
ROOT
ATOM      1  O   UNL     1      21.177  17.473   3.650  0.00  0.00    +0.000 OA
ATOM      2  C   UNL     1      19.865  18.980   2.513  0.00  0.00    +0.000 C 
ATOM      3  C   UNL     1      20.832  17.867   2.555  0.00  0.00    +0.000 C 
ENDROOT
BRANCH   3   4
ATOM      4  O   UNL     1      21.237  17.396   1.377  0.00  0.00    +0.000 OA
ATOM      5  H   UNL     1      20.396  17.169   0.939  0.00  0.00    +0.000 HD
ENDBRANCH   3   4
TORSDOF 1
ENDMDL
