MODEL 1
REMARK VINA RESULT:      -7.8      0.000      0.000
REMARK  Name = Calcitriol.pdbqt.pdb
REMARK  9 active torsions:
REMARK  status: ('A' for Active; 'I' for Inactive)
REMARK    1  A    between atoms: C_2  and  C_24
REMARK    2  A    between atoms: C_7  and  C_11
REMARK    3  A    between atoms: C_12  and  C_13
REMARK    4  A    between atoms: C_16  and  O_20
REMARK    5  A    between atoms: C_18  and  O_22
REMARK    6  A    between atoms: C_24  and  C_26
REMARK    7  A    between atoms: C_27  and  C_28
REMARK    8  A    between atoms: C_28  and  C_29
REMARK    9  A    between atoms: C_29  and  O_32
REMARK                            x       y       z     vdW  Elec       q    Type
REMARK                         _______ _______ _______ _____ _____    ______ ____
ROOT
ATOM      1  C   UNL     1      45.004  -5.436  11.581  0.00  0.00    +0.000 C 
ATOM      2  C   UNL     1      44.105  -5.843  12.744  0.00  0.00    +0.000 C 
ATOM      3  C   UNL     1      44.647  -6.537  10.442  0.00  0.00    +0.000 C 
ATOM      4  C   UNL     1      43.236  -6.896  12.333  0.00  0.00    +0.000 C 
ATOM      5  C   UNL     1      43.540  -7.308  10.919  0.00  0.00    +0.000 C 
ATOM      6  C   UNL     1      46.446  -5.564  11.851  0.00  0.00    +0.000 C 
ATOM      7  C   UNL     1      45.705  -7.155   9.634  0.00  0.00    +0.000 C 
ATOM      8  C   UNL     1      44.584  -4.052  11.010  0.00  0.00    +0.000 C 
ATOM      9  C   UNL     1      47.683  -6.221  11.264  0.00  0.00    +0.000 C 
ATOM     10  C   UNL     1      47.027  -6.960  10.116  0.00  0.00    +0.000 C 
ENDROOT
BRANCH   7  11
ATOM     11  C   UNL     1      45.493  -7.949   8.632  0.00  0.00    +0.000 C 
ATOM     12  C   UNL     1      45.239  -8.899   7.455  0.00  0.00    +0.000 C 
BRANCH  12  13
ATOM     13  C   UNL     1      45.019  -9.709   6.465  0.00  0.00    +0.000 A 
ATOM     14  C   UNL     1      43.719 -10.284   6.294  0.00  0.00    +0.000 A 
ATOM     15  C   UNL     1      46.021 -10.186   5.459  0.00  0.00    +0.000 A 
ATOM     16  C   UNL     1      43.181 -11.218   5.363  0.00  0.00    +0.000 A 
ATOM     17  C   UNL     1      44.234 -11.589   4.480  0.00  0.00    +0.000 A 
ATOM     18  C   UNL     1      45.597 -11.177   4.420  0.00  0.00    +0.000 A 
ATOM     19  C   UNL     1      47.292  -9.746   5.451  0.00  0.00    +0.000 C 
BRANCH  16  20
ATOM     20  O   UNL     1      41.883 -11.138   4.948  0.00  0.00    +0.000 OA
ATOM     21  H   UNL     1      41.775 -10.464   4.256  0.00  0.00    +0.000 HD
ENDBRANCH  16  20
BRANCH  18  22
ATOM     22  O   UNL     1      46.469 -11.645   3.466  0.00  0.00    +0.000 OA
ATOM     23  H   UNL     1      46.855 -12.496   3.750  0.00  0.00    +0.000 HD
ENDBRANCH  18  22
ENDBRANCH  12  13
ENDBRANCH   7  11
BRANCH   2  24
ATOM     24  C   UNL     1      44.026  -5.166  14.000  0.00  0.00    +0.000 C 
ATOM     25  C   UNL     1      44.364  -5.826  15.312  0.00  0.00    +0.000 C 
BRANCH  24  26
ATOM     26  C   UNL     1      43.439  -3.875  14.102  0.00  0.00    +0.000 C 
ATOM     27  C   UNL     1      42.790  -2.489  14.208  0.00  0.00    +0.000 C 
BRANCH  27  28
ATOM     28  C   UNL     1      42.131  -1.108  14.309  0.00  0.00    +0.000 C 
BRANCH  28  29
ATOM     29  C   UNL     1      41.505   0.211  14.405  0.00  0.00    +0.000 C 
ATOM     30  C   UNL     1      39.983   0.162  14.233  0.00  0.00    +0.000 C 
ATOM     31  C   UNL     1      41.880   0.964  15.686  0.00  0.00    +0.000 C 
BRANCH  29  32
ATOM     32  O   UNL     1      41.976   1.020  13.350  0.00  0.00    +0.000 OA
ATOM     33  H   UNL     1      41.694   0.464  12.608  0.00  0.00    +0.000 HD
ENDBRANCH  29  32
ENDBRANCH  28  29
ENDBRANCH  27  28
ENDBRANCH  24  26
ENDBRANCH   2  24
TORSDOF 9
ENDMDL
MODEL 2
REMARK VINA RESULT:      -7.2     35.753     39.512
REMARK  Name = Calcitriol.pdbqt.pdb
REMARK  9 active torsions:
REMARK  status: ('A' for Active; 'I' for Inactive)
REMARK    1  A    between atoms: C_2  and  C_24
REMARK    2  A    between atoms: C_7  and  C_11
REMARK    3  A    between atoms: C_12  and  C_13
REMARK    4  A    between atoms: C_16  and  O_20
REMARK    5  A    between atoms: C_18  and  O_22
REMARK    6  A    between atoms: C_24  and  C_26
REMARK    7  A    between atoms: C_27  and  C_28
REMARK    8  A    between atoms: C_28  and  C_29
REMARK    9  A    between atoms: C_29  and  O_32
REMARK                            x       y       z     vdW  Elec       q    Type
REMARK                         _______ _______ _______ _____ _____    ______ ____
ROOT
ATOM      1  C   UNL     1      23.395  27.635   5.067  0.00  0.00    +0.000 C 
ATOM      2  C   UNL     1      22.239  28.610   4.860  0.00  0.00    +0.000 C 
ATOM      3  C   UNL     1      22.985  26.380   4.121  0.00  0.00    +0.000 C 
ATOM      4  C   UNL     1      21.368  28.114   3.845  0.00  0.00    +0.000 C 
ATOM      5  C   UNL     1      21.832  26.765   3.368  0.00  0.00    +0.000 C 
ATOM      6  C   UNL     1      23.510  27.109   6.436  0.00  0.00    +0.000 C 
ATOM      7  C   UNL     1      23.156  24.999   4.588  0.00  0.00    +0.000 C 
ATOM      8  C   UNL     1      24.719  28.213   4.493  0.00  0.00    +0.000 C 
ATOM      9  C   UNL     1      23.580  25.780   7.167  0.00  0.00    +0.000 C 
ATOM     10  C   UNL     1      23.398  24.856   5.980  0.00  0.00    +0.000 C 
ENDROOT
BRANCH   7  11
ATOM     11  C   UNL     1      22.966  23.948   3.853  0.00  0.00    +0.000 C 
ATOM     12  C   UNL     1      22.752  22.709   2.975  0.00  0.00    +0.000 C 
BRANCH  12  13
ATOM     13  C   UNL     1      22.580  21.660   2.230  0.00  0.00    +0.000 A 
ATOM     14  C   UNL     1      23.308  21.535   1.003  0.00  0.00    +0.000 A 
ATOM     15  C   UNL     1      21.626  20.532   2.477  0.00  0.00    +0.000 A 
ATOM     16  C   UNL     1      23.311  20.557  -0.033  0.00  0.00    +0.000 A 
ATOM     17  C   UNL     1      22.362  19.559   0.326  0.00  0.00    +0.000 A 
ATOM     18  C   UNL     1      21.518  19.433   1.467  0.00  0.00    +0.000 A 
ATOM     19  C   UNL     1      20.865  20.468   3.585  0.00  0.00    +0.000 C 
BRANCH  16  20
ATOM     20  O   UNL     1      24.451  20.259  -0.722  0.00  0.00    +0.000 OA
ATOM     21  H   UNL     1      25.209  20.763  -0.383  0.00  0.00    +0.000 HD
ENDBRANCH  16  20
BRANCH  18  22
ATOM     22  O   UNL     1      20.667  18.369   1.642  0.00  0.00    +0.000 OA
ATOM     23  H   UNL     1      20.723  17.762   0.879  0.00  0.00    +0.000 HD
ENDBRANCH  18  22
ENDBRANCH  12  13
ENDBRANCH   7  11
BRANCH   2  24
ATOM     24  C   UNL     1      22.130  29.900   5.465  0.00  0.00    +0.000 C 
ATOM     25  C   UNL     1      22.779  31.133   4.891  0.00  0.00    +0.000 C 
BRANCH  24  26
ATOM     26  C   UNL     1      21.555  30.060   6.755  0.00  0.00    +0.000 C 
ATOM     27  C   UNL     1      20.942  30.247   8.149  0.00  0.00    +0.000 C 
BRANCH  27  28
ATOM     28  C   UNL     1      20.338  30.445   9.544  0.00  0.00    +0.000 C 
BRANCH  28  29
ATOM     29  C   UNL     1      19.762  30.638  10.875  0.00  0.00    +0.000 C 
ATOM     30  C   UNL     1      20.754  31.252  11.870  0.00  0.00    +0.000 C 
ATOM     31  C   UNL     1      18.453  31.435  10.856  0.00  0.00    +0.000 C 
BRANCH  29  32
ATOM     32  O   UNL     1      19.421  29.380  11.414  0.00  0.00    +0.000 OA
ATOM     33  H   UNL     1      20.049  29.365  12.151  0.00  0.00    +0.000 HD
ENDBRANCH  29  32
ENDBRANCH  28  29
ENDBRANCH  27  28
ENDBRANCH  24  26
ENDBRANCH   2  24
TORSDOF 9
ENDMDL
MODEL 3
REMARK VINA RESULT:      -7.1     14.378     18.892
REMARK  Name = Calcitriol.pdbqt.pdb
REMARK  9 active torsions:
REMARK  status: ('A' for Active; 'I' for Inactive)
REMARK    1  A    between atoms: C_2  and  C_24
REMARK    2  A    between atoms: C_7  and  C_11
REMARK    3  A    between atoms: C_12  and  C_13
REMARK    4  A    between atoms: C_16  and  O_20
REMARK    5  A    between atoms: C_18  and  O_22
REMARK    6  A    between atoms: C_24  and  C_26
REMARK    7  A    between atoms: C_27  and  C_28
REMARK    8  A    between atoms: C_28  and  C_29
REMARK    9  A    between atoms: C_29  and  O_32
REMARK                            x       y       z     vdW  Elec       q    Type
REMARK                         _______ _______ _______ _____ _____    ______ ____
ROOT
ATOM      1  C   UNL     1      28.727  -8.837  19.311  0.00  0.00    +0.000 C 
ATOM      2  C   UNL     1      28.905 -10.168  18.586  0.00  0.00    +0.000 C 
ATOM      3  C   UNL     1      28.177  -7.856  18.140  0.00  0.00    +0.000 C 
ATOM      4  C   UNL     1      28.397 -10.063  17.258  0.00  0.00    +0.000 C 
ATOM      5  C   UNL     1      27.924  -8.661  16.985  0.00  0.00    +0.000 C 
ATOM      6  C   UNL     1      29.978  -8.240  19.805  0.00  0.00    +0.000 C 
ATOM      7  C   UNL     1      28.681  -6.484  18.008  0.00  0.00    +0.000 C 
ATOM      8  C   UNL     1      27.601  -8.932  20.380  0.00  0.00    +0.000 C 
ATOM      9  C   UNL     1      30.758  -6.940  19.718  0.00  0.00    +0.000 C 
ATOM     10  C   UNL     1      29.859  -6.199  18.749  0.00  0.00    +0.000 C 
ENDROOT
BRANCH   7  11
ATOM     11  C   UNL     1      28.210  -5.606  17.180  0.00  0.00    +0.000 C 
ATOM     12  C   UNL     1      27.658  -4.575  16.188  0.00  0.00    +0.000 C 
BRANCH  12  13
ATOM     13  C   UNL     1      27.192  -3.707  15.342  0.00  0.00    +0.000 A 
ATOM     14  C   UNL     1      25.977  -3.009  15.640  0.00  0.00    +0.000 A 
ATOM     15  C   UNL     1      27.764  -3.367  14.001  0.00  0.00    +0.000 A 
ATOM     16  C   UNL     1      25.199  -2.057  14.920  0.00  0.00    +0.000 A 
ATOM     17  C   UNL     1      25.850  -1.836  13.673  0.00  0.00    +0.000 A 
ATOM     18  C   UNL     1      27.048  -2.383  13.130  0.00  0.00    +0.000 A 
ATOM     19  C   UNL     1      28.909  -3.913  13.553  0.00  0.00    +0.000 C 
BRANCH  16  20
ATOM     20  O   UNL     1      24.516  -1.067  15.566  0.00  0.00    +0.000 OA
ATOM     21  H   UNL     1      25.111  -0.526  16.112  0.00  0.00    +0.000 HD
ENDBRANCH  16  20
BRANCH  18  22
ATOM     22  O   UNL     1      27.528  -2.026  11.893  0.00  0.00    +0.000 OA
ATOM     23  H   UNL     1      26.801  -1.693  11.332  0.00  0.00    +0.000 HD
ENDBRANCH  18  22
ENDBRANCH  12  13
ENDBRANCH   7  11
BRANCH   2  24
ATOM     24  C   UNL     1      29.355 -11.382  19.191  0.00  0.00    +0.000 C 
ATOM     25  C   UNL     1      28.486 -12.223  20.090  0.00  0.00    +0.000 C 
BRANCH  24  26
ATOM     26  C   UNL     1      30.721 -11.772  19.127  0.00  0.00    +0.000 C 
ATOM     27  C   UNL     1      32.199 -12.177  19.064  0.00  0.00    +0.000 C 
BRANCH  27  28
ATOM     28  C   UNL     1      33.680 -12.570  19.002  0.00  0.00    +0.000 C 
BRANCH  28  29
ATOM     29  C   UNL     1      35.093 -12.944  18.940  0.00  0.00    +0.000 C 
ATOM     30  C   UNL     1      35.307 -14.462  18.932  0.00  0.00    +0.000 C 
ATOM     31  C   UNL     1      35.840 -12.287  17.774  0.00  0.00    +0.000 C 
BRANCH  29  32
ATOM     32  O   UNL     1      35.742 -12.480  20.103  0.00  0.00    +0.000 OA
ATOM     33  H   UNL     1      35.125 -11.771  20.337  0.00  0.00    +0.000 HD
ENDBRANCH  29  32
ENDBRANCH  28  29
ENDBRANCH  27  28
ENDBRANCH  24  26
ENDBRANCH   2  24
TORSDOF 9
ENDMDL
MODEL 4
REMARK VINA RESULT:      -7.1      2.102     11.060
REMARK  Name = Calcitriol.pdbqt.pdb
REMARK  9 active torsions:
REMARK  status: ('A' for Active; 'I' for Inactive)
REMARK    1  A    between atoms: C_2  and  C_24
REMARK    2  A    between atoms: C_7  and  C_11
REMARK    3  A    between atoms: C_12  and  C_13
REMARK    4  A    between atoms: C_16  and  O_20
REMARK    5  A    between atoms: C_18  and  O_22
REMARK    6  A    between atoms: C_24  and  C_26
REMARK    7  A    between atoms: C_27  and  C_28
REMARK    8  A    between atoms: C_28  and  C_29
REMARK    9  A    between atoms: C_29  and  O_32
REMARK                            x       y       z     vdW  Elec       q    Type
REMARK                         _______ _______ _______ _____ _____    ______ ____
ROOT
ATOM      1  C   UNL     1      47.037  -9.074   8.258  0.00  0.00    +0.000 C 
ATOM      2  C   UNL     1      46.654  -8.951   6.786  0.00  0.00    +0.000 C 
ATOM      3  C   UNL     1      46.097  -7.959   8.972  0.00  0.00    +0.000 C 
ATOM      4  C   UNL     1      45.560  -8.046   6.648  0.00  0.00    +0.000 C 
ATOM      5  C   UNL     1      45.194  -7.456   7.983  0.00  0.00    +0.000 C 
ATOM      6  C   UNL     1      48.429  -8.704   8.559  0.00  0.00    +0.000 C 
ATOM      7  C   UNL     1      46.632  -7.082  10.021  0.00  0.00    +0.000 C 
ATOM      8  C   UNL     1      46.607 -10.454   8.832  0.00  0.00    +0.000 C 
ATOM      9  C   UNL     1      49.213  -7.776   9.470  0.00  0.00    +0.000 C 
ATOM     10  C   UNL     1      48.048  -7.070  10.134  0.00  0.00    +0.000 C 
ENDROOT
BRANCH   7  11
ATOM     11  C   UNL     1      45.920  -6.254  10.718  0.00  0.00    +0.000 C 
ATOM     12  C   UNL     1      45.074  -5.284  11.551  0.00  0.00    +0.000 C 
BRANCH  12  13
ATOM     13  C   UNL     1      44.359  -4.468  12.265  0.00  0.00    +0.000 A 
ATOM     14  C   UNL     1      44.015  -3.182  11.739  0.00  0.00    +0.000 A 
ATOM     15  C   UNL     1      43.869  -4.694  13.662  0.00  0.00    +0.000 A 
ATOM     16  C   UNL     1      43.301  -2.070  12.272  0.00  0.00    +0.000 A 
ATOM     17  C   UNL     1      42.906  -2.417  13.595  0.00  0.00    +0.000 A 
ATOM     18  C   UNL     1      43.108  -3.606  14.352  0.00  0.00    +0.000 A 
ATOM     19  C   UNL     1      44.083  -5.849  14.317  0.00  0.00    +0.000 C 
BRANCH  16  20
ATOM     20  O   UNL     1      42.537  -1.270  11.473  0.00  0.00    +0.000 OA
ATOM     21  H   UNL     1      42.918  -0.380  11.397  0.00  0.00    +0.000 HD
ENDBRANCH  16  20
BRANCH  18  22
ATOM     22  O   UNL     1      42.626  -3.758  15.631  0.00  0.00    +0.000 OA
ATOM     23  H   UNL     1      41.929  -3.097  15.810  0.00  0.00    +0.000 HD
ENDBRANCH  18  22
ENDBRANCH  12  13
ENDBRANCH   7  11
BRANCH   2  24
ATOM     24  C   UNL     1      47.192  -9.744   5.726  0.00  0.00    +0.000 C 
ATOM     25  C   UNL     1      48.629  -9.651   5.278  0.00  0.00    +0.000 C 
BRANCH  24  26
ATOM     26  C   UNL     1      46.349 -10.538   4.902  0.00  0.00    +0.000 C 
ATOM     27  C   UNL     1      45.445 -11.388   4.000  0.00  0.00    +0.000 C 
BRANCH  27  28
ATOM     28  C   UNL     1      44.545 -12.229   3.087  0.00  0.00    +0.000 C 
BRANCH  28  29
ATOM     29  C   UNL     1      43.683 -13.031   2.218  0.00  0.00    +0.000 C 
ATOM     30  C   UNL     1      42.763 -12.176   1.339  0.00  0.00    +0.000 C 
ATOM     31  C   UNL     1      44.458 -14.043   1.367  0.00  0.00    +0.000 C 
BRANCH  29  32
ATOM     32  O   UNL     1      42.819 -13.807   3.019  0.00  0.00    +0.000 OA
ATOM     33  H   UNL     1      42.686 -13.174   3.740  0.00  0.00    +0.000 HD
ENDBRANCH  29  32
ENDBRANCH  28  29
ENDBRANCH  27  28
ENDBRANCH  24  26
ENDBRANCH   2  24
TORSDOF 9
ENDMDL
MODEL 5
REMARK VINA RESULT:      -7.1      6.705      9.251
REMARK  Name = Calcitriol.pdbqt.pdb
REMARK  9 active torsions:
REMARK  status: ('A' for Active; 'I' for Inactive)
REMARK    1  A    between atoms: C_2  and  C_24
REMARK    2  A    between atoms: C_7  and  C_11
REMARK    3  A    between atoms: C_12  and  C_13
REMARK    4  A    between atoms: C_16  and  O_20
REMARK    5  A    between atoms: C_18  and  O_22
REMARK    6  A    between atoms: C_24  and  C_26
REMARK    7  A    between atoms: C_27  and  C_28
REMARK    8  A    between atoms: C_28  and  C_29
REMARK    9  A    between atoms: C_29  and  O_32
REMARK                            x       y       z     vdW  Elec       q    Type
REMARK                         _______ _______ _______ _____ _____    ______ ____
ROOT
ATOM      1  C   UNL     1      48.205  -0.278  11.219  0.00  0.00    +0.000 C 
ATOM      2  C   UNL     1      49.078  -0.153   9.974  0.00  0.00    +0.000 C 
ATOM      3  C   UNL     1      47.269  -1.561  10.878  0.00  0.00    +0.000 C 
ATOM      4  C   UNL     1      48.837  -1.258   9.105  0.00  0.00    +0.000 C 
ATOM      5  C   UNL     1      47.753  -2.139   9.662  0.00  0.00    +0.000 C 
ATOM      6  C   UNL     1      47.296   0.857  11.442  0.00  0.00    +0.000 C 
ATOM      7  C   UNL     1      45.835  -1.551  11.191  0.00  0.00    +0.000 C 
ATOM      8  C   UNL     1      49.058  -0.665  12.460  0.00  0.00    +0.000 C 
ATOM      9  C   UNL     1      45.820   1.136  11.662  0.00  0.00    +0.000 C 
ATOM     10  C   UNL     1      45.294  -0.276  11.508  0.00  0.00    +0.000 C 
ENDROOT
BRANCH   7  11
ATOM     11  C   UNL     1      45.049  -2.573  11.060  0.00  0.00    +0.000 C 
ATOM     12  C   UNL     1      44.127  -3.787  10.894  0.00  0.00    +0.000 C 
BRANCH  12  13
ATOM     13  C   UNL     1      43.353  -4.819  10.749  0.00  0.00    +0.000 A 
ATOM     14  C   UNL     1      43.161  -5.384   9.447  0.00  0.00    +0.000 A 
ATOM     15  C   UNL     1      42.551  -5.495  11.818  0.00  0.00    +0.000 A 
ATOM     16  C   UNL     1      42.363  -6.458   8.958  0.00  0.00    +0.000 A 
ATOM     17  C   UNL     1      41.655  -6.997  10.070  0.00  0.00    +0.000 A 
ATOM     18  C   UNL     1      41.659  -6.638  11.448  0.00  0.00    +0.000 A 
ATOM     19  C   UNL     1      42.612  -5.113  13.107  0.00  0.00    +0.000 C 
BRANCH  16  20
ATOM     20  O   UNL     1      42.782  -7.236   7.919  0.00  0.00    +0.000 OA
ATOM     21  H   UNL     1      43.238  -6.707   7.244  0.00  0.00    +0.000 HD
ENDBRANCH  16  20
BRANCH  18  22
ATOM     22  O   UNL     1      40.906  -7.303  12.387  0.00  0.00    +0.000 OA
ATOM     23  H   UNL     1      41.429  -8.020  12.794  0.00  0.00    +0.000 HD
ENDBRANCH  18  22
ENDBRANCH  12  13
ENDBRANCH   7  11
BRANCH   2  24
ATOM     24  C   UNL     1      50.101   0.825   9.780  0.00  0.00    +0.000 C 
ATOM     25  C   UNL     1      50.944   1.367  10.907  0.00  0.00    +0.000 C 
BRANCH  24  26
ATOM     26  C   UNL     1      50.259   1.486   8.531  0.00  0.00    +0.000 C 
ATOM     27  C   UNL     1      50.414   2.194   7.180  0.00  0.00    +0.000 C 
BRANCH  27  28
ATOM     28  C   UNL     1      50.558   2.897   5.824  0.00  0.00    +0.000 C 
BRANCH  28  29
ATOM     29  C   UNL     1      50.690   3.566   4.530  0.00  0.00    +0.000 C 
ATOM     30  C   UNL     1      51.786   4.638   4.523  0.00  0.00    +0.000 C 
ATOM     31  C   UNL     1      50.881   2.591   3.363  0.00  0.00    +0.000 C 
BRANCH  29  32
ATOM     32  O   UNL     1      49.492   4.253   4.245  0.00  0.00    +0.000 OA
ATOM     33  H   UNL     1      49.343   4.649   5.116  0.00  0.00    +0.000 HD
ENDBRANCH  29  32
ENDBRANCH  28  29
ENDBRANCH  27  28
ENDBRANCH  24  26
ENDBRANCH   2  24
TORSDOF 9
ENDMDL
MODEL 6
REMARK VINA RESULT:      -7.0      2.121      2.676
REMARK  Name = Calcitriol.pdbqt.pdb
REMARK  9 active torsions:
REMARK  status: ('A' for Active; 'I' for Inactive)
REMARK    1  A    between atoms: C_2  and  C_24
REMARK    2  A    between atoms: C_7  and  C_11
REMARK    3  A    between atoms: C_12  and  C_13
REMARK    4  A    between atoms: C_16  and  O_20
REMARK    5  A    between atoms: C_18  and  O_22
REMARK    6  A    between atoms: C_24  and  C_26
REMARK    7  A    between atoms: C_27  and  C_28
REMARK    8  A    between atoms: C_28  and  C_29
REMARK    9  A    between atoms: C_29  and  O_32
REMARK                            x       y       z     vdW  Elec       q    Type
REMARK                         _______ _______ _______ _____ _____    ______ ____
ROOT
ATOM      1  C   UNL     1      45.272  -4.759  11.827  0.00  0.00    +0.000 C 
ATOM      2  C   UNL     1      44.157  -5.087  12.816  0.00  0.00    +0.000 C 
ATOM      3  C   UNL     1      45.234  -6.021  10.805  0.00  0.00    +0.000 C 
ATOM      4  C   UNL     1      43.456  -6.250  12.380  0.00  0.00    +0.000 C 
ATOM      5  C   UNL     1      44.090  -6.812  11.137  0.00  0.00    +0.000 C 
ATOM      6  C   UNL     1      46.621  -4.736  12.415  0.00  0.00    +0.000 C 
ATOM      7  C   UNL     1      46.476  -6.649  10.338  0.00  0.00    +0.000 C 
ATOM      8  C   UNL     1      44.920  -3.497  10.990  0.00  0.00    +0.000 C 
ATOM      9  C   UNL     1      47.989  -5.359  12.206  0.00  0.00    +0.000 C 
ATOM     10  C   UNL     1      47.645  -6.289  11.060  0.00  0.00    +0.000 C 
ENDROOT
BRANCH   7  11
ATOM     11  C   UNL     1      46.534  -7.578   9.436  0.00  0.00    +0.000 C 
ATOM     12  C   UNL     1      46.596  -8.686   8.378  0.00  0.00    +0.000 C 
BRANCH  12  13
ATOM     13  C   UNL     1      46.643  -9.630   7.488  0.00  0.00    +0.000 A 
ATOM     14  C   UNL     1      46.674  -9.290   6.097  0.00  0.00    +0.000 A 
ATOM     15  C   UNL     1      46.612 -11.105   7.743  0.00  0.00    +0.000 A 
ATOM     16  C   UNL     1      46.680 -10.069   4.904  0.00  0.00    +0.000 A 
ATOM     17  C   UNL     1      46.641 -11.438   5.292  0.00  0.00    +0.000 A 
ATOM     18  C   UNL     1      46.609 -12.047   6.580  0.00  0.00    +0.000 A 
ATOM     19  C   UNL     1      46.596 -11.615   8.988  0.00  0.00    +0.000 C 
BRANCH  16  20
ATOM     20  O   UNL     1      47.348  -9.651   3.789  0.00  0.00    +0.000 OA
ATOM     21  H   UNL     1      48.210  -9.266   4.018  0.00  0.00    +0.000 HD
ENDBRANCH  16  20
BRANCH  18  22
ATOM     22  O   UNL     1      46.589 -13.410   6.751  0.00  0.00    +0.000 OA
ATOM     23  H   UNL     1      45.742 -13.778   6.433  0.00  0.00    +0.000 HD
ENDBRANCH  18  22
ENDBRANCH  12  13
ENDBRANCH   7  11
BRANCH   2  24
ATOM     24  C   UNL     1      43.765  -4.265  13.916  0.00  0.00    +0.000 C 
ATOM     25  C   UNL     1      42.938  -4.775  15.069  0.00  0.00    +0.000 C 
BRANCH  24  26
ATOM     26  C   UNL     1      43.976  -2.859  13.896  0.00  0.00    +0.000 C 
ATOM     27  C   UNL     1      44.213  -1.344  13.859  0.00  0.00    +0.000 C 
BRANCH  27  28
ATOM     28  C   UNL     1      44.457   0.169  13.811  0.00  0.00    +0.000 C 
BRANCH  28  29
ATOM     29  C   UNL     1      44.692   1.612  13.762  0.00  0.00    +0.000 C 
ATOM     30  C   UNL     1      45.417   2.140  15.005  0.00  0.00    +0.000 C 
ATOM     31  C   UNL     1      45.411   2.063  12.485  0.00  0.00    +0.000 C 
BRANCH  29  32
ATOM     32  O   UNL     1      43.449   2.278  13.741  0.00  0.00    +0.000 OA
ATOM     33  H   UNL     1      43.760   3.166  13.972  0.00  0.00    +0.000 HD
ENDBRANCH  29  32
ENDBRANCH  28  29
ENDBRANCH  27  28
ENDBRANCH  24  26
ENDBRANCH   2  24
TORSDOF 9
ENDMDL
MODEL 7
REMARK VINA RESULT:      -6.9      7.695     10.355
REMARK  Name = Calcitriol.pdbqt.pdb
REMARK  9 active torsions:
REMARK  status: ('A' for Active; 'I' for Inactive)
REMARK    1  A    between atoms: C_2  and  C_24
REMARK    2  A    between atoms: C_7  and  C_11
REMARK    3  A    between atoms: C_12  and  C_13
REMARK    4  A    between atoms: C_16  and  O_20
REMARK    5  A    between atoms: C_18  and  O_22
REMARK    6  A    between atoms: C_24  and  C_26
REMARK    7  A    between atoms: C_27  and  C_28
REMARK    8  A    between atoms: C_28  and  C_29
REMARK    9  A    between atoms: C_29  and  O_32
REMARK                            x       y       z     vdW  Elec       q    Type
REMARK                         _______ _______ _______ _____ _____    ______ ____
ROOT
ATOM      1  C   UNL     1      47.372   0.150  11.951  0.00  0.00    +0.000 C 
ATOM      2  C   UNL     1      46.536   1.218  12.650  0.00  0.00    +0.000 C 
ATOM      3  C   UNL     1      48.191   1.001  10.836  0.00  0.00    +0.000 C 
ATOM      4  C   UNL     1      46.903   2.508  12.166  0.00  0.00    +0.000 C 
ATOM      5  C   UNL     1      47.934   2.388  11.077  0.00  0.00    +0.000 C 
ATOM      6  C   UNL     1      46.586  -0.855  11.217  0.00  0.00    +0.000 C 
ATOM      7  C   UNL     1      48.357   0.489   9.471  0.00  0.00    +0.000 C 
ATOM      8  C   UNL     1      48.430  -0.452  12.919  0.00  0.00    +0.000 C 
ATOM      9  C   UNL     1      46.480  -1.458   9.828  0.00  0.00    +0.000 C 
ATOM     10  C   UNL     1      47.518  -0.604   9.128  0.00  0.00    +0.000 C 
ENDROOT
BRANCH   7  11
ATOM     11  C   UNL     1      49.093   1.050   8.563  0.00  0.00    +0.000 C 
ATOM     12  C   UNL     1      49.966   1.699   7.482  0.00  0.00    +0.000 C 
BRANCH  12  13
ATOM     13  C   UNL     1      50.704   2.242   6.562  0.00  0.00    +0.000 A 
ATOM     14  C   UNL     1      50.118   2.608   5.308  0.00  0.00    +0.000 A 
ATOM     15  C   UNL     1      52.178   2.496   6.630  0.00  0.00    +0.000 A 
ATOM     16  C   UNL     1      50.650   3.165   4.109  0.00  0.00    +0.000 A 
ATOM     17  C   UNL     1      52.047   3.344   4.311  0.00  0.00    +0.000 A 
ATOM     18  C   UNL     1      52.875   3.074   5.439  0.00  0.00    +0.000 A 
ATOM     19  C   UNL     1      52.900   2.229   7.734  0.00  0.00    +0.000 C 
BRANCH  16  20
ATOM     20  O   UNL     1      49.914   4.015   3.336  0.00  0.00    +0.000 OA
ATOM     21  H   UNL     1      50.000   4.934   3.642  0.00  0.00    +0.000 HD
ENDBRANCH  16  20
BRANCH  18  22
ATOM     22  O   UNL     1      54.224   3.336   5.444  0.00  0.00    +0.000 OA
ATOM     23  H   UNL     1      54.597   3.204   4.552  0.00  0.00    +0.000 HD
ENDBRANCH  18  22
ENDBRANCH  12  13
ENDBRANCH   7  11
BRANCH   2  24
ATOM     24  C   UNL     1      45.645   0.983  13.741  0.00  0.00    +0.000 C 
ATOM     25  C   UNL     1      45.369   2.006  14.813  0.00  0.00    +0.000 C 
BRANCH  24  26
ATOM     26  C   UNL     1      45.104  -0.310  13.983  0.00  0.00    +0.000 C 
ATOM     27  C   UNL     1      44.511  -1.698  14.255  0.00  0.00    +0.000 C 
BRANCH  27  28
ATOM     28  C   UNL     1      43.911  -3.081  14.538  0.00  0.00    +0.000 C 
BRANCH  28  29
ATOM     29  C   UNL     1      43.341  -4.400  14.812  0.00  0.00    +0.000 C 
ATOM     30  C   UNL     1      42.402  -4.885  13.700  0.00  0.00    +0.000 C 
ATOM     31  C   UNL     1      44.400  -5.462  15.126  0.00  0.00    +0.000 C 
BRANCH  29  32
ATOM     32  O   UNL     1      42.541  -4.322  15.970  0.00  0.00    +0.000 OA
ATOM     33  H   UNL     1      42.087  -5.174  15.888  0.00  0.00    +0.000 HD
ENDBRANCH  29  32
ENDBRANCH  28  29
ENDBRANCH  27  28
ENDBRANCH  24  26
ENDBRANCH   2  24
TORSDOF 9
ENDMDL
MODEL 8
REMARK VINA RESULT:      -6.8     34.204     37.715
REMARK  Name = Calcitriol.pdbqt.pdb
REMARK  9 active torsions:
REMARK  status: ('A' for Active; 'I' for Inactive)
REMARK    1  A    between atoms: C_2  and  C_24
REMARK    2  A    between atoms: C_7  and  C_11
REMARK    3  A    between atoms: C_12  and  C_13
REMARK    4  A    between atoms: C_16  and  O_20
REMARK    5  A    between atoms: C_18  and  O_22
REMARK    6  A    between atoms: C_24  and  C_26
REMARK    7  A    between atoms: C_27  and  C_28
REMARK    8  A    between atoms: C_28  and  C_29
REMARK    9  A    between atoms: C_29  and  O_32
REMARK                            x       y       z     vdW  Elec       q    Type
REMARK                         _______ _______ _______ _____ _____    ______ ____
ROOT
ATOM      1  C   UNL     1      24.095  23.312   1.409  0.00  0.00    +0.000 C 
ATOM      2  C   UNL     1      23.853  24.085   0.116  0.00  0.00    +0.000 C 
ATOM      3  C   UNL     1      22.707  22.493   1.608  0.00  0.00    +0.000 C 
ATOM      4  C   UNL     1      22.612  23.681  -0.460  0.00  0.00    +0.000 C 
ATOM      5  C   UNL     1      21.918  22.688   0.431  0.00  0.00    +0.000 C 
ATOM      6  C   UNL     1      24.257  24.158   2.602  0.00  0.00    +0.000 C 
ATOM      7  C   UNL     1      22.079  22.386   2.930  0.00  0.00    +0.000 C 
ATOM      8  C   UNL     1      25.217  22.252   1.223  0.00  0.00    +0.000 C 
ATOM      9  C   UNL     1      23.673  24.327   3.994  0.00  0.00    +0.000 C 
ATOM     10  C   UNL     1      22.584  23.277   3.914  0.00  0.00    +0.000 C 
ENDROOT
BRANCH   7  11
ATOM     11  C   UNL     1      21.041  21.655   3.191  0.00  0.00    +0.000 C 
ATOM     12  C   UNL     1      19.808  20.800   3.509  0.00  0.00    +0.000 C 
BRANCH  12  13
ATOM     13  C   UNL     1      18.759  20.085   3.780  0.00  0.00    +0.000 A 
ATOM     14  C   UNL     1      17.459  20.572   3.428  0.00  0.00    +0.000 A 
ATOM     15  C   UNL     1      18.732  18.772   4.499  0.00  0.00    +0.000 A 
ATOM     16  C   UNL     1      16.142  20.063   3.624  0.00  0.00    +0.000 A 
ATOM     17  C   UNL     1      16.266  18.828   4.320  0.00  0.00    +0.000 A 
ATOM     18  C   UNL     1      17.414  18.121   4.780  0.00  0.00    +0.000 A 
ATOM     19  C   UNL     1      19.857  18.151   4.897  0.00  0.00    +0.000 C 
BRANCH  16  20
ATOM     20  O   UNL     1      15.155  20.283   2.707  0.00  0.00    +0.000 OA
ATOM     21  H   UNL     1      14.744  19.449   2.425  0.00  0.00    +0.000 HD
ENDBRANCH  16  20
BRANCH  18  22
ATOM     22  O   UNL     1      17.326  16.913   5.430  0.00  0.00    +0.000 OA
ATOM     23  H   UNL     1      17.747  16.971   6.309  0.00  0.00    +0.000 HD
ENDBRANCH  18  22
ENDBRANCH  12  13
ENDBRANCH   7  11
BRANCH   2  24
ATOM     24  C   UNL     1      24.796  24.953  -0.514  0.00  0.00    +0.000 C 
ATOM     25  C   UNL     1      24.472  26.372  -0.908  0.00  0.00    +0.000 C 
BRANCH  24  26
ATOM     26  C   UNL     1      26.049  24.466  -0.977  0.00  0.00    +0.000 C 
ATOM     27  C   UNL     1      27.402  23.953  -1.486  0.00  0.00    +0.000 C 
BRANCH  27  28
ATOM     28  C   UNL     1      28.756  23.451  -2.004  0.00  0.00    +0.000 C 
BRANCH  28  29
ATOM     29  C   UNL     1      30.049  22.975  -2.495  0.00  0.00    +0.000 C 
ATOM     30  C   UNL     1      30.898  24.091  -3.114  0.00  0.00    +0.000 C 
ATOM     31  C   UNL     1      30.851  22.209  -1.438  0.00  0.00    +0.000 C 
BRANCH  29  32
ATOM     32  O   UNL     1      29.831  22.049  -3.537  0.00  0.00    +0.000 OA
ATOM     33  H   UNL     1      30.635  22.219  -4.049  0.00  0.00    +0.000 HD
ENDBRANCH  29  32
ENDBRANCH  28  29
ENDBRANCH  27  28
ENDBRANCH  24  26
ENDBRANCH   2  24
TORSDOF 9
ENDMDL
MODEL 9
REMARK VINA RESULT:      -6.7      7.176     10.218
REMARK  Name = Calcitriol.pdbqt.pdb
REMARK  9 active torsions:
REMARK  status: ('A' for Active; 'I' for Inactive)
REMARK    1  A    between atoms: C_2  and  C_24
REMARK    2  A    between atoms: C_7  and  C_11
REMARK    3  A    between atoms: C_12  and  C_13
REMARK    4  A    between atoms: C_16  and  O_20
REMARK    5  A    between atoms: C_18  and  O_22
REMARK    6  A    between atoms: C_24  and  C_26
REMARK    7  A    between atoms: C_27  and  C_28
REMARK    8  A    between atoms: C_28  and  C_29
REMARK    9  A    between atoms: C_29  and  O_32
REMARK                            x       y       z     vdW  Elec       q    Type
REMARK                         _______ _______ _______ _____ _____    ______ ____
ROOT
ATOM      1  C   UNL     1      47.259  -1.625  11.665  0.00  0.00    +0.000 C 
ATOM      2  C   UNL     1      45.912  -1.019  12.051  0.00  0.00    +0.000 C 
ATOM      3  C   UNL     1      47.942  -0.452  10.774  0.00  0.00    +0.000 C 
ATOM      4  C   UNL     1      45.855   0.339  11.618  0.00  0.00    +0.000 C 
ATOM      5  C   UNL     1      47.103   0.702  10.861  0.00  0.00    +0.000 C 
ATOM      6  C   UNL     1      47.166  -2.811  10.798  0.00  0.00    +0.000 C 
ATOM      7  C   UNL     1      48.662  -0.771   9.535  0.00  0.00    +0.000 C 
ATOM      8  C   UNL     1      48.161  -1.819  12.916  0.00  0.00    +0.000 C 
ATOM      9  C   UNL     1      47.690  -3.319   9.467  0.00  0.00    +0.000 C 
ATOM     10  C   UNL     1      48.453  -2.083   9.034  0.00  0.00    +0.000 C 
ENDROOT
BRANCH   7  11
ATOM     11  C   UNL     1      49.333   0.089   8.834  0.00  0.00    +0.000 C 
ATOM     12  C   UNL     1      50.137   1.106   8.016  0.00  0.00    +0.000 C 
BRANCH  12  13
ATOM     13  C   UNL     1      50.826   1.964   7.326  0.00  0.00    +0.000 A 
ATOM     14  C   UNL     1      50.249   2.561   6.159  0.00  0.00    +0.000 A 
ATOM     15  C   UNL     1      52.240   2.388   7.579  0.00  0.00    +0.000 A 
ATOM     16  C   UNL     1      50.745   3.477   5.187  0.00  0.00    +0.000 A 
ATOM     17  C   UNL     1      52.089   3.785   5.544  0.00  0.00    +0.000 A 
ATOM     18  C   UNL     1      52.895   3.344   6.632  0.00  0.00    +0.000 A 
ATOM     19  C   UNL     1      52.942   1.942   8.636  0.00  0.00    +0.000 C 
BRANCH  16  20
ATOM     20  O   UNL     1      49.925   4.393   4.593  0.00  0.00    +0.000 OA
ATOM     21  H   UNL     1      50.252   4.639   3.712  0.00  0.00    +0.000 HD
ENDBRANCH  16  20
BRANCH  18  22
ATOM     22  O   UNL     1      54.187   3.776   6.816  0.00  0.00    +0.000 OA
ATOM     23  H   UNL     1      54.191   4.672   7.203  0.00  0.00    +0.000 HD
ENDBRANCH  18  22
ENDBRANCH  12  13
ENDBRANCH   7  11
BRANCH   2  24
ATOM     24  C   UNL     1      44.927  -1.654  12.867  0.00  0.00    +0.000 C 
ATOM     25  C   UNL     1      44.672  -1.266  14.301  0.00  0.00    +0.000 C 
BRANCH  24  26
ATOM     26  C   UNL     1      44.252  -2.825  12.426  0.00  0.00    +0.000 C 
ATOM     27  C   UNL     1      43.526  -4.084  11.934  0.00  0.00    +0.000 C 
BRANCH  27  28
ATOM     28  C   UNL     1      42.802  -5.339  11.430  0.00  0.00    +0.000 C 
BRANCH  28  29
ATOM     29  C   UNL     1      42.111  -6.536  10.952  0.00  0.00    +0.000 C 
ATOM     30  C   UNL     1      41.581  -7.412  12.094  0.00  0.00    +0.000 C 
ATOM     31  C   UNL     1      40.997  -6.229   9.946  0.00  0.00    +0.000 C 
BRANCH  29  32
ATOM     32  O   UNL     1      43.028  -7.347  10.253  0.00  0.00    +0.000 OA
ATOM     33  H   UNL     1      43.311  -7.910  10.988  0.00  0.00    +0.000 HD
ENDBRANCH  29  32
ENDBRANCH  28  29
ENDBRANCH  27  28
ENDBRANCH  24  26
ENDBRANCH   2  24
TORSDOF 9
ENDMDL
