MODEL 1
REMARK VINA RESULT:     -10.1      0.000      0.000
REMARK  Name = 
REMARK  17 active torsions:
REMARK  status: ('A' for Active; 'I' for Inactive)
REMARK    1  A    between atoms: O_1  and  C_14
REMARK    2  A    between atoms: O_2  and  C_32
REMARK    3  A    between atoms: O_2  and  C_36
REMARK    4  A    between atoms: O_6  and  C_39
REMARK    5  A    between atoms: O_7  and  C_41
REMARK    6  A    between atoms: O_7  and  C_43
REMARK    7  A    between atoms: O_9  and  C_47
REMARK    8  A    between atoms: O_9  and  C_49
REMARK    9  A    between atoms: O_10  and  C_45
REMARK   10  A    between atoms: O_12  and  C_51
REMARK   11  A    between atoms: O_13  and  C_53
REMARK   12  A    between atoms: C_17  and  C_29
REMARK   13  A    between atoms: C_18  and  C_30
REMARK   14  A    between atoms: C_22  and  C_33
REMARK   15  A    between atoms: C_40  and  C_42
REMARK   16  A    between atoms: C_46  and  C_48
REMARK   17  A    between atoms: C_52  and  C_54
REMARK                            x       y       z     vdW  Elec       q    Type
REMARK                         _______ _______ _______ _____ _____    ______ ____
ROOT
ATOM      1  O   UNL     1      46.966   5.189  15.097  0.00  0.00    +0.000 OA
ATOM      2  C   UNL     1      46.267   4.312  14.217  0.00  0.00    +0.000 C 
ATOM      3  C   UNL     1      45.053   3.663  14.886  0.00  0.00    +0.000 C 
ATOM      4  C   UNL     1      44.756   4.297  16.236  0.00  0.00    +0.000 C 
ATOM      5  C   UNL     1      46.161   6.297  15.520  0.00  0.00    +0.000 C 
ATOM      6  C   UNL     1      44.874   5.835  16.243  0.00  0.00    +0.000 C 
ATOM      7  C   UNL     1      47.036   7.149  16.440  0.00  0.00    +0.000 C 
ENDROOT
BRANCH   4   8
ATOM      8  O   UNL     1      43.529   3.823  16.780  0.00  0.00    +0.000 OA
ATOM      9  H   UNL     1      43.643   3.818  17.754  0.00  0.00    +0.000 HD
ENDBRANCH   4   8
BRANCH   2  10
ATOM     10  O   UNL     1      47.128   3.327  13.646  0.00  0.00    +0.000 OA
BRANCH  10  29
ATOM     11  C   UNL     1      44.191  -3.793  12.537  0.00  0.00    +0.000 C 
ATOM     12  C   UNL     1      44.824  -2.398  12.794  0.00  0.00    +0.000 C 
ATOM     13  C   UNL     1      46.143  -2.164  12.013  0.00  0.00    +0.000 C 
ATOM     14  C   UNL     1      44.071  -4.173  11.034  0.00  0.00    +0.000 C 
ATOM     15  C   UNL     1      46.781  -0.738  12.273  0.00  0.00    +0.000 C 
ATOM     16  C   UNL     1      46.869  -0.463  13.811  0.00  0.00    +0.000 C 
ATOM     17  C   UNL     1      45.931  -2.484  10.519  0.00  0.00    +0.000 C 
ATOM     18  C   UNL     1      45.409  -3.904  10.303  0.00  0.00    +0.000 C 
ATOM     19  C   UNL     1      43.749  -5.699  11.131  0.00  0.00    +0.000 C 
ATOM     20  C   UNL     1      45.035  -2.146  14.294  0.00  0.00    +0.000 C 
ATOM     21  C   UNL     1      44.963  -4.974  13.153  0.00  0.00    +0.000 C 
ATOM     22  C   UNL     1      45.544  -0.736  14.546  0.00  0.00    +0.000 C 
ATOM     23  C   UNL     1      44.645  -6.196  12.283  0.00  0.00    +0.000 C 
ATOM     24  C   UNL     1      45.975   0.398  11.583  0.00  0.00    +0.000 C 
ATOM     25  C   UNL     1      47.345   0.968  14.135  0.00  0.00    +0.000 C 
ATOM     26  C   UNL     1      42.933  -3.410  10.326  0.00  0.00    +0.000 C 
ATOM     27  C   UNL     1      48.222  -0.748  11.689  0.00  0.00    +0.000 C 
ATOM     28  C   UNL     1      46.473   1.801  11.928  0.00  0.00    +0.000 C 
ATOM     29  C   UNL     1      46.517   2.050  13.435  0.00  0.00    +0.000 C 
BRANCH  19  32
ATOM     30  O   UNL     1      43.094  -7.482   7.906  0.00  0.00    +0.000 OA
ATOM     31  O   UNL     1      45.056  -8.581   7.440  0.00  0.00    +0.000 OA
ATOM     32  C   UNL     1      43.829  -6.498   9.858  0.00  0.00    +0.000 C 
ATOM     33  C   UNL     1      42.658  -6.617   8.953  0.00  0.00    +0.000 C 
ATOM     34  C   UNL     1      44.835  -7.237   9.387  0.00  0.00    +0.000 C 
ATOM     35  C   UNL     1      44.379  -7.853   8.143  0.00  0.00    +0.000 C 
ENDBRANCH  19  32
BRANCH  11  36
ATOM     36  O   UNL     1      42.887  -3.822  13.141  0.00  0.00    +0.000 OA
ATOM     37  H   UNL     1      42.261  -4.215  12.508  0.00  0.00    +0.000 HD
ENDBRANCH  11  36
ENDBRANCH  10  29
ENDBRANCH   2  10
BRANCH   6  38
ATOM     38  O   UNL     1      43.744   6.648  15.912  0.00  0.00    +0.000 OA
BRANCH  38  40
ATOM     39  O   UNL     1      42.120   8.360  16.164  0.00  0.00    +0.000 OA
ATOM     40  C   UNL     1      43.069   7.519  16.807  0.00  0.00    +0.000 C 
ATOM     41  C   UNL     1      43.958   8.307  17.764  0.00  0.00    +0.000 C 
ATOM     42  C   UNL     1      43.368   9.667  18.123  0.00  0.00    +0.000 C 
ATOM     43  C   UNL     1      41.157   8.871  17.106  0.00  0.00    +0.000 C 
ATOM     44  C   UNL     1      41.830   9.701  18.228  0.00  0.00    +0.000 C 
ATOM     45  C   UNL     1      40.172   9.721  16.307  0.00  0.00    +0.000 C 
BRANCH  42  46
ATOM     46  O   UNL     1      43.996  10.203  19.286  0.00  0.00    +0.000 OA
ATOM     47  H   UNL     1      43.666   9.717  20.062  0.00  0.00    +0.000 HD
ENDBRANCH  42  46
BRANCH  44  48
ATOM     48  O   UNL     1      41.240   9.440  19.508  0.00  0.00    +0.000 OA
BRANCH  48  50
ATOM     49  O   UNL     1      39.342  10.740  19.978  0.00  0.00    +0.000 OA
ATOM     50  C   UNL     1      39.822   9.448  19.625  0.00  0.00    +0.000 C 
ATOM     51  C   UNL     1      39.468   8.459  20.742  0.00  0.00    +0.000 C 
ATOM     52  C   UNL     1      38.171   8.833  21.455  0.00  0.00    +0.000 C 
ATOM     53  C   UNL     1      37.905  10.831  19.945  0.00  0.00    +0.000 C 
ATOM     54  C   UNL     1      37.219   9.577  20.516  0.00  0.00    +0.000 C 
ATOM     55  C   UNL     1      37.542  12.075  20.748  0.00  0.00    +0.000 C 
BRANCH  52  56
ATOM     56  O   UNL     1      37.536   7.633  21.914  0.00  0.00    +0.000 OA
ATOM     57  H   UNL     1      37.408   7.055  21.140  0.00  0.00    +0.000 HD
ENDBRANCH  52  56
BRANCH  54  58
ATOM     58  O   UNL     1      36.875   8.693  19.434  0.00  0.00    +0.000 OA
ATOM     59  H   UNL     1      36.516   7.885  19.855  0.00  0.00    +0.000 HD
ENDBRANCH  54  58
ENDBRANCH  48  50
ENDBRANCH  44  48
ENDBRANCH  38  40
ENDBRANCH   6  38
TORSDOF 12
ENDMDL
MODEL 2
REMARK VINA RESULT:      -9.8      4.925      6.398
REMARK  Name = 
REMARK  17 active torsions:
REMARK  status: ('A' for Active; 'I' for Inactive)
REMARK    1  A    between atoms: O_1  and  C_14
REMARK    2  A    between atoms: O_2  and  C_32
REMARK    3  A    between atoms: O_2  and  C_36
REMARK    4  A    between atoms: O_6  and  C_39
REMARK    5  A    between atoms: O_7  and  C_41
REMARK    6  A    between atoms: O_7  and  C_43
REMARK    7  A    between atoms: O_9  and  C_47
REMARK    8  A    between atoms: O_9  and  C_49
REMARK    9  A    between atoms: O_10  and  C_45
REMARK   10  A    between atoms: O_12  and  C_51
REMARK   11  A    between atoms: O_13  and  C_53
REMARK   12  A    between atoms: C_17  and  C_29
REMARK   13  A    between atoms: C_18  and  C_30
REMARK   14  A    between atoms: C_22  and  C_33
REMARK   15  A    between atoms: C_40  and  C_42
REMARK   16  A    between atoms: C_46  and  C_48
REMARK   17  A    between atoms: C_52  and  C_54
REMARK                            x       y       z     vdW  Elec       q    Type
REMARK                         _______ _______ _______ _____ _____    ______ ____
ROOT
ATOM      1  O   UNL     1      43.989   3.941  16.471  0.00  0.00    +0.000 OA
ATOM      2  C   UNL     1      45.187   3.381  15.937  0.00  0.00    +0.000 C 
ATOM      3  C   UNL     1      46.411   4.261  16.209  0.00  0.00    +0.000 C 
ATOM      4  C   UNL     1      46.085   5.383  17.183  0.00  0.00    +0.000 C 
ATOM      5  C   UNL     1      44.028   4.061  17.898  0.00  0.00    +0.000 C 
ATOM      6  C   UNL     1      45.209   4.941  18.372  0.00  0.00    +0.000 C 
ATOM      7  C   UNL     1      42.688   4.658  18.325  0.00  0.00    +0.000 C 
ENDROOT
BRANCH   4   8
ATOM      8  O   UNL     1      47.255   6.092  17.575  0.00  0.00    +0.000 OA
ATOM      9  H   UNL     1      47.248   6.113  18.555  0.00  0.00    +0.000 HD
ENDBRANCH   4   8
BRANCH   2  10
ATOM     10  O   UNL     1      45.067   3.081  14.547  0.00  0.00    +0.000 OA
BRANCH  10  29
ATOM     11  C   UNL     1      45.508  -4.451  12.646  0.00  0.00    +0.000 C 
ATOM     12  C   UNL     1      45.484  -2.945  13.025  0.00  0.00    +0.000 C 
ATOM     13  C   UNL     1      45.875  -2.006  11.855  0.00  0.00    +0.000 C 
ATOM     14  C   UNL     1      44.752  -4.791  11.330  0.00  0.00    +0.000 C 
ATOM     15  C   UNL     1      45.843  -0.472  12.244  0.00  0.00    +0.000 C 
ATOM     16  C   UNL     1      46.641  -0.239  13.570  0.00  0.00    +0.000 C 
ATOM     17  C   UNL     1      45.033  -2.346  10.608  0.00  0.00    +0.000 C 
ATOM     18  C   UNL     1      45.170  -3.814  10.203  0.00  0.00    +0.000 C 
ATOM     19  C   UNL     1      45.250  -6.247  11.060  0.00  0.00    +0.000 C 
ATOM     20  C   UNL     1      46.358  -2.663  14.256  0.00  0.00    +0.000 C 
ATOM     21  C   UNL     1      46.914  -5.037  12.423  0.00  0.00    +0.000 C 
ATOM     22  C   UNL     1      46.238  -1.212  14.692  0.00  0.00    +0.000 C 
ATOM     23  C   UNL     1      46.742  -6.209  11.448  0.00  0.00    +0.000 C 
ATOM     24  C   UNL     1      44.392   0.060  12.406  0.00  0.00    +0.000 C 
ATOM     25  C   UNL     1      46.528   1.210  14.087  0.00  0.00    +0.000 C 
ATOM     26  C   UNL     1      43.221  -4.752  11.506  0.00  0.00    +0.000 C 
ATOM     27  C   UNL     1      46.537   0.324  11.103  0.00  0.00    +0.000 C 
ATOM     28  C   UNL     1      44.318   1.497  12.923  0.00  0.00    +0.000 C 
ATOM     29  C   UNL     1      45.079   1.684  14.234  0.00  0.00    +0.000 C 
BRANCH  19  32
ATOM     30  O   UNL     1      43.677  -7.741   8.010  0.00  0.00    +0.000 OA
ATOM     31  O   UNL     1      45.440  -8.198   6.611  0.00  0.00    +0.000 OA
ATOM     32  C   UNL     1      44.948  -6.835   9.708  0.00  0.00    +0.000 C 
ATOM     33  C   UNL     1      43.556  -7.160   9.308  0.00  0.00    +0.000 C 
ATOM     34  C   UNL     1      45.790  -7.209   8.743  0.00  0.00    +0.000 C 
ATOM     35  C   UNL     1      44.989  -7.772   7.658  0.00  0.00    +0.000 C 
ENDBRANCH  19  32
BRANCH  11  36
ATOM     36  O   UNL     1      44.939  -5.206  13.729  0.00  0.00    +0.000 OA
ATOM     37  H   UNL     1      45.303  -6.107  13.704  0.00  0.00    +0.000 HD
ENDBRANCH  11  36
ENDBRANCH  10  29
ENDBRANCH   2  10
BRANCH   6  38
ATOM     38  O   UNL     1      45.813   4.439  19.568  0.00  0.00    +0.000 OA
BRANCH  38  40
ATOM     39  O   UNL     1      44.642   4.128  21.609  0.00  0.00    +0.000 OA
ATOM     40  C   UNL     1      45.217   3.512  20.464  0.00  0.00    +0.000 C 
ATOM     41  C   UNL     1      46.077   2.311  20.845  0.00  0.00    +0.000 C 
ATOM     42  C   UNL     1      45.782   1.808  22.255  0.00  0.00    +0.000 C 
ATOM     43  C   UNL     1      43.674   3.261  22.233  0.00  0.00    +0.000 C 
ATOM     44  C   UNL     1      44.308   1.924  22.692  0.00  0.00    +0.000 C 
ATOM     45  C   UNL     1      43.096   4.032  23.417  0.00  0.00    +0.000 C 
BRANCH  42  46
ATOM     46  O   UNL     1      46.293   0.489  22.441  0.00  0.00    +0.000 OA
ATOM     47  H   UNL     1      45.657  -0.142  22.061  0.00  0.00    +0.000 HD
ENDBRANCH  42  46
BRANCH  44  48
ATOM     48  O   UNL     1      43.443   0.811  22.434  0.00  0.00    +0.000 OA
BRANCH  48  50
ATOM     49  O   UNL     1      42.158  -1.032  23.118  0.00  0.00    +0.000 OA
ATOM     50  C   UNL     1      43.182  -0.114  23.483  0.00  0.00    +0.000 C 
ATOM     51  C   UNL     1      42.710   0.709  24.687  0.00  0.00    +0.000 C 
ATOM     52  C   UNL     1      41.767  -0.079  25.593  0.00  0.00    +0.000 C 
ATOM     53  C   UNL     1      41.979  -2.084  24.084  0.00  0.00    +0.000 C 
ATOM     54  C   UNL     1      42.070  -1.577  25.535  0.00  0.00    +0.000 C 
ATOM     55  C   UNL     1      40.612  -2.695  23.796  0.00  0.00    +0.000 C 
BRANCH  52  56
ATOM     56  O   UNL     1      41.931   0.382  26.940  0.00  0.00    +0.000 OA
ATOM     57  H   UNL     1      41.937   1.356  26.918  0.00  0.00    +0.000 HD
ENDBRANCH  52  56
BRANCH  54  58
ATOM     58  O   UNL     1      43.408  -1.784  26.023  0.00  0.00    +0.000 OA
ATOM     59  H   UNL     1      43.335  -1.796  27.000  0.00  0.00    +0.000 HD
ENDBRANCH  54  58
ENDBRANCH  48  50
ENDBRANCH  44  48
ENDBRANCH  38  40
ENDBRANCH   6  38
TORSDOF 12
ENDMDL
MODEL 3
REMARK VINA RESULT:      -9.8     18.106     23.390
REMARK  Name = 
REMARK  17 active torsions:
REMARK  status: ('A' for Active; 'I' for Inactive)
REMARK    1  A    between atoms: O_1  and  C_14
REMARK    2  A    between atoms: O_2  and  C_32
REMARK    3  A    between atoms: O_2  and  C_36
REMARK    4  A    between atoms: O_6  and  C_39
REMARK    5  A    between atoms: O_7  and  C_41
REMARK    6  A    between atoms: O_7  and  C_43
REMARK    7  A    between atoms: O_9  and  C_47
REMARK    8  A    between atoms: O_9  and  C_49
REMARK    9  A    between atoms: O_10  and  C_45
REMARK   10  A    between atoms: O_12  and  C_51
REMARK   11  A    between atoms: O_13  and  C_53
REMARK   12  A    between atoms: C_17  and  C_29
REMARK   13  A    between atoms: C_18  and  C_30
REMARK   14  A    between atoms: C_22  and  C_33
REMARK   15  A    between atoms: C_40  and  C_42
REMARK   16  A    between atoms: C_46  and  C_48
REMARK   17  A    between atoms: C_52  and  C_54
REMARK                            x       y       z     vdW  Elec       q    Type
REMARK                         _______ _______ _______ _____ _____    ______ ____
ROOT
ATOM      1  O   UNL     1      25.819  -7.223  19.756  0.00  0.00    +0.000 OA
ATOM      2  C   UNL     1      27.146  -7.353  20.260  0.00  0.00    +0.000 C 
ATOM      3  C   UNL     1      28.148  -7.738  19.168  0.00  0.00    +0.000 C 
ATOM      4  C   UNL     1      27.524  -7.648  17.783  0.00  0.00    +0.000 C 
ATOM      5  C   UNL     1      25.701  -6.176  18.784  0.00  0.00    +0.000 C 
ATOM      6  C   UNL     1      26.642  -6.400  17.576  0.00  0.00    +0.000 C 
ATOM      7  C   UNL     1      24.237  -6.146  18.346  0.00  0.00    +0.000 C 
ENDROOT
BRANCH   4   8
ATOM      8  O   UNL     1      28.494  -7.831  16.758  0.00  0.00    +0.000 OA
ATOM      9  H   UNL     1      28.948  -8.677  16.956  0.00  0.00    +0.000 HD
ENDBRANCH   4   8
BRANCH   2  10
ATOM     10  O   UNL     1      27.215  -8.256  21.363  0.00  0.00    +0.000 OA
BRANCH  10  29
ATOM     11  C   UNL     1      26.114  -4.831  28.263  0.00  0.00    +0.000 C 
ATOM     12  C   UNL     1      26.273  -5.532  26.886  0.00  0.00    +0.000 C 
ATOM     13  C   UNL     1      25.590  -4.770  25.721  0.00  0.00    +0.000 C 
ATOM     14  C   UNL     1      26.468  -3.317  28.253  0.00  0.00    +0.000 C 
ATOM     15  C   UNL     1      25.759  -5.486  24.319  0.00  0.00    +0.000 C 
ATOM     16  C   UNL     1      25.366  -6.996  24.437  0.00  0.00    +0.000 C 
ATOM     17  C   UNL     1      26.045  -3.296  25.723  0.00  0.00    +0.000 C 
ATOM     18  C   UNL     1      25.773  -2.611  27.062  0.00  0.00    +0.000 C 
ATOM     19  C   UNL     1      25.886  -2.858  29.628  0.00  0.00    +0.000 C 
ATOM     20  C   UNL     1      25.780  -6.987  26.939  0.00  0.00    +0.000 C 
ATOM     21  C   UNL     1      24.691  -4.871  28.847  0.00  0.00    +0.000 C 
ATOM     22  C   UNL     1      26.046  -7.701  25.624  0.00  0.00    +0.000 C 
ATOM     23  C   UNL     1      24.561  -3.639  29.751  0.00  0.00    +0.000 C 
ATOM     24  C   UNL     1      27.209  -5.364  23.771  0.00  0.00    +0.000 C 
ATOM     25  C   UNL     1      25.646  -7.788  23.144  0.00  0.00    +0.000 C 
ATOM     26  C   UNL     1      27.988  -3.070  28.183  0.00  0.00    +0.000 C 
ATOM     27  C   UNL     1      24.791  -4.799  23.314  0.00  0.00    +0.000 C 
ATOM     28  C   UNL     1      27.452  -6.163  22.492  0.00  0.00    +0.000 C 
ATOM     29  C   UNL     1      27.088  -7.639  22.649  0.00  0.00    +0.000 C 
BRANCH  19  32
ATOM     30  O   UNL     1      25.049   0.584  30.835  0.00  0.00    +0.000 OA
ATOM     31  O   UNL     1      26.209   1.988  29.437  0.00  0.00    +0.000 OA
ATOM     32  C   UNL     1      25.789  -1.376  29.872  0.00  0.00    +0.000 C 
ATOM     33  C   UNL     1      24.927  -0.833  30.952  0.00  0.00    +0.000 C 
ATOM     34  C   UNL     1      26.338  -0.372  29.189  0.00  0.00    +0.000 C 
ATOM     35  C   UNL     1      25.884   0.874  29.804  0.00  0.00    +0.000 C 
ENDBRANCH  19  32
BRANCH  11  36
ATOM     36  O   UNL     1      26.947  -5.507  29.220  0.00  0.00    +0.000 OA
ATOM     37  H   UNL     1      26.376  -5.924  29.888  0.00  0.00    +0.000 HD
ENDBRANCH  11  36
ENDBRANCH  10  29
ENDBRANCH   2  10
BRANCH   6  38
ATOM     38  O   UNL     1      27.217  -5.179  17.103  0.00  0.00    +0.000 OA
BRANCH  38  40
ATOM     39  O   UNL     1      27.174  -5.756  14.802  0.00  0.00    +0.000 OA
ATOM     40  C   UNL     1      27.165  -4.710  15.764  0.00  0.00    +0.000 C 
ATOM     41  C   UNL     1      28.162  -3.612  15.407  0.00  0.00    +0.000 C 
ATOM     42  C   UNL     1      28.599  -3.673  13.946  0.00  0.00    +0.000 C 
ATOM     43  C   UNL     1      26.664  -5.299  13.534  0.00  0.00    +0.000 C 
ATOM     44  C   UNL     1      27.506  -4.132  12.960  0.00  0.00    +0.000 C 
ATOM     45  C   UNL     1      26.680  -6.503  12.596  0.00  0.00    +0.000 C 
BRANCH  42  46
ATOM     46  O   UNL     1      29.202  -2.444  13.544  0.00  0.00    +0.000 OA
ATOM     47  H   UNL     1      28.534  -1.917  13.071  0.00  0.00    +0.000 HD
ENDBRANCH  42  46
BRANCH  44  48
ATOM     48  O   UNL     1      26.679  -3.126  12.361  0.00  0.00    +0.000 OA
BRANCH  48  50
ATOM     49  O   UNL     1      24.482  -3.229  13.183  0.00  0.00    +0.000 OA
ATOM     50  C   UNL     1      25.693  -2.483  13.159  0.00  0.00    +0.000 C 
ATOM     51  C   UNL     1      25.428  -1.118  12.515  0.00  0.00    +0.000 C 
ATOM     52  C   UNL     1      24.007  -0.622  12.773  0.00  0.00    +0.000 C 
ATOM     53  C   UNL     1      23.515  -2.700  14.109  0.00  0.00    +0.000 C 
ATOM     54  C   UNL     1      23.466  -1.161  14.099  0.00  0.00    +0.000 C 
ATOM     55  C   UNL     1      22.172  -3.300  13.709  0.00  0.00    +0.000 C 
BRANCH  52  56
ATOM     56  O   UNL     1      24.019   0.810  12.818  0.00  0.00    +0.000 OA
ATOM     57  H   UNL     1      24.447   1.073  13.652  0.00  0.00    +0.000 HD
ENDBRANCH  52  56
BRANCH  54  58
ATOM     58  O   UNL     1      24.296  -0.655  15.160  0.00  0.00    +0.000 OA
ATOM     59  H   UNL     1      23.691  -0.182  15.768  0.00  0.00    +0.000 HD
ENDBRANCH  54  58
ENDBRANCH  48  50
ENDBRANCH  44  48
ENDBRANCH  38  40
ENDBRANCH   6  38
TORSDOF 12
ENDMDL
MODEL 4
REMARK VINA RESULT:      -9.7      1.659      2.385
REMARK  Name = 
REMARK  17 active torsions:
REMARK  status: ('A' for Active; 'I' for Inactive)
REMARK    1  A    between atoms: O_1  and  C_14
REMARK    2  A    between atoms: O_2  and  C_32
REMARK    3  A    between atoms: O_2  and  C_36
REMARK    4  A    between atoms: O_6  and  C_39
REMARK    5  A    between atoms: O_7  and  C_41
REMARK    6  A    between atoms: O_7  and  C_43
REMARK    7  A    between atoms: O_9  and  C_47
REMARK    8  A    between atoms: O_9  and  C_49
REMARK    9  A    between atoms: O_10  and  C_45
REMARK   10  A    between atoms: O_12  and  C_51
REMARK   11  A    between atoms: O_13  and  C_53
REMARK   12  A    between atoms: C_17  and  C_29
REMARK   13  A    between atoms: C_18  and  C_30
REMARK   14  A    between atoms: C_22  and  C_33
REMARK   15  A    between atoms: C_40  and  C_42
REMARK   16  A    between atoms: C_46  and  C_48
REMARK   17  A    between atoms: C_52  and  C_54
REMARK                            x       y       z     vdW  Elec       q    Type
REMARK                         _______ _______ _______ _____ _____    ______ ____
ROOT
ATOM      1  O   UNL     1      44.734   3.698  15.421  0.00  0.00    +0.000 OA
ATOM      2  C   UNL     1      45.891   4.327  14.876  0.00  0.00    +0.000 C 
ATOM      3  C   UNL     1      45.705   5.837  14.703  0.00  0.00    +0.000 C 
ATOM      4  C   UNL     1      44.430   6.321  15.377  0.00  0.00    +0.000 C 
ATOM      5  C   UNL     1      44.422   4.168  16.738  0.00  0.00    +0.000 C 
ATOM      6  C   UNL     1      44.182   5.697  16.764  0.00  0.00    +0.000 C 
ATOM      7  C   UNL     1      43.179   3.406  17.195  0.00  0.00    +0.000 C 
ENDROOT
BRANCH   4   8
ATOM      8  O   UNL     1      44.343   7.742  15.373  0.00  0.00    +0.000 OA
ATOM      9  H   UNL     1      43.435   7.963  15.669  0.00  0.00    +0.000 HD
ENDBRANCH   4   8
BRANCH   2  10
ATOM     10  O   UNL     1      46.309   3.716  13.655  0.00  0.00    +0.000 OA
BRANCH  10  29
ATOM     11  C   UNL     1      44.026  -3.647  12.598  0.00  0.00    +0.000 C 
ATOM     12  C   UNL     1      44.529  -2.199  12.846  0.00  0.00    +0.000 C 
ATOM     13  C   UNL     1      45.835  -1.859  12.082  0.00  0.00    +0.000 C 
ATOM     14  C   UNL     1      43.963  -4.054  11.099  0.00  0.00    +0.000 C 
ATOM     15  C   UNL     1      46.342  -0.380  12.332  0.00  0.00    +0.000 C 
ATOM     16  C   UNL     1      46.380  -0.080  13.868  0.00  0.00    +0.000 C 
ATOM     17  C   UNL     1      45.676  -2.214  10.589  0.00  0.00    +0.000 C 
ATOM     18  C   UNL     1      45.284  -3.678  10.385  0.00  0.00    +0.000 C 
ATOM     19  C   UNL     1      43.775  -5.601  11.211  0.00  0.00    +0.000 C 
ATOM     20  C   UNL     1      44.693  -1.911  14.346  0.00  0.00    +0.000 C 
ATOM     21  C   UNL     1      44.888  -4.748  13.241  0.00  0.00    +0.000 C 
ATOM     22  C   UNL     1      45.073  -0.459  14.586  0.00  0.00    +0.000 C 
ATOM     23  C   UNL     1      44.692  -6.004  12.384  0.00  0.00    +0.000 C 
ATOM     24  C   UNL     1      45.451   0.672  11.615  0.00  0.00    +0.000 C 
ATOM     25  C   UNL     1      46.724   1.391  14.179  0.00  0.00    +0.000 C 
ATOM     26  C   UNL     1      42.775  -3.402  10.363  0.00  0.00    +0.000 C 
ATOM     27  C   UNL     1      47.787  -0.270  11.771  0.00  0.00    +0.000 C 
ATOM     28  C   UNL     1      45.818   2.118  11.948  0.00  0.00    +0.000 C 
ATOM     29  C   UNL     1      45.815   2.387  13.452  0.00  0.00    +0.000 C 
BRANCH  19  32
ATOM     30  O   UNL     1      43.336  -7.452   7.988  0.00  0.00    +0.000 OA
ATOM     31  O   UNL     1      45.375  -8.430   7.596  0.00  0.00    +0.000 OA
ATOM     32  C   UNL     1      43.945  -6.406   9.950  0.00  0.00    +0.000 C 
ATOM     33  C   UNL     1      42.813  -6.605   9.011  0.00  0.00    +0.000 C 
ATOM     34  C   UNL     1      45.009  -7.084   9.520  0.00  0.00    +0.000 C 
ATOM     35  C   UNL     1      44.633  -7.739   8.269  0.00  0.00    +0.000 C 
ENDBRANCH  19  32
BRANCH  11  36
ATOM     36  O   UNL     1      42.719  -3.784  13.183  0.00  0.00    +0.000 OA
ATOM     37  H   UNL     1      42.421  -2.909  13.484  0.00  0.00    +0.000 HD
ENDBRANCH  11  36
ENDBRANCH  10  29
ENDBRANCH   2  10
BRANCH   6  38
ATOM     38  O   UNL     1      44.719   6.310  17.940  0.00  0.00    +0.000 OA
BRANCH  38  40
ATOM     39  O   UNL     1      44.509   7.927  19.664  0.00  0.00    +0.000 OA
ATOM     40  C   UNL     1      43.958   6.771  19.047  0.00  0.00    +0.000 C 
ATOM     41  C   UNL     1      43.579   5.713  20.078  0.00  0.00    +0.000 C 
ATOM     42  C   UNL     1      43.474   6.284  21.489  0.00  0.00    +0.000 C 
ATOM     43  C   UNL     1      43.516   8.621  20.444  0.00  0.00    +0.000 C 
ATOM     44  C   UNL     1      42.934   7.727  21.568  0.00  0.00    +0.000 C 
ATOM     45  C   UNL     1      44.199   9.858  21.023  0.00  0.00    +0.000 C 
BRANCH  42  46
ATOM     46  O   UNL     1      42.756   5.396  22.345  0.00  0.00    +0.000 OA
ATOM     47  H   UNL     1      42.990   5.605  23.266  0.00  0.00    +0.000 HD
ENDBRANCH  42  46
BRANCH  44  48
ATOM     48  O   UNL     1      41.520   7.906  21.710  0.00  0.00    +0.000 OA
BRANCH  48  50
ATOM     49  O   UNL     1      40.215   9.856  21.628  0.00  0.00    +0.000 OA
ATOM     50  C   UNL     1      40.857   8.840  20.867  0.00  0.00    +0.000 C 
ATOM     51  C   UNL     1      39.799   8.053  20.087  0.00  0.00    +0.000 C 
ATOM     52  C   UNL     1      38.601   8.919  19.703  0.00  0.00    +0.000 C 
ATOM     53  C   UNL     1      39.674  10.910  20.810  0.00  0.00    +0.000 C 
ATOM     54  C   UNL     1      39.011  10.382  19.525  0.00  0.00    +0.000 C 
ATOM     55  C   UNL     1      38.671  11.653  21.686  0.00  0.00    +0.000 C 
BRANCH  52  56
ATOM     56  O   UNL     1      38.055   8.431  18.471  0.00  0.00    +0.000 OA
ATOM     57  H   UNL     1      37.085   8.492  18.536  0.00  0.00    +0.000 HD
ENDBRANCH  52  56
BRANCH  54  58
ATOM     58  O   UNL     1      39.957  10.455  18.443  0.00  0.00    +0.000 OA
ATOM     59  H   UNL     1      39.526  10.997  17.750  0.00  0.00    +0.000 HD
ENDBRANCH  54  58
ENDBRANCH  48  50
ENDBRANCH  44  48
ENDBRANCH  38  40
ENDBRANCH   6  38
TORSDOF 12
ENDMDL
MODEL 5
REMARK VINA RESULT:      -9.5      4.304      6.488
REMARK  Name = 
REMARK  17 active torsions:
REMARK  status: ('A' for Active; 'I' for Inactive)
REMARK    1  A    between atoms: O_1  and  C_14
REMARK    2  A    between atoms: O_2  and  C_32
REMARK    3  A    between atoms: O_2  and  C_36
REMARK    4  A    between atoms: O_6  and  C_39
REMARK    5  A    between atoms: O_7  and  C_41
REMARK    6  A    between atoms: O_7  and  C_43
REMARK    7  A    between atoms: O_9  and  C_47
REMARK    8  A    between atoms: O_9  and  C_49
REMARK    9  A    between atoms: O_10  and  C_45
REMARK   10  A    between atoms: O_12  and  C_51
REMARK   11  A    between atoms: O_13  and  C_53
REMARK   12  A    between atoms: C_17  and  C_29
REMARK   13  A    between atoms: C_18  and  C_30
REMARK   14  A    between atoms: C_22  and  C_33
REMARK   15  A    between atoms: C_40  and  C_42
REMARK   16  A    between atoms: C_46  and  C_48
REMARK   17  A    between atoms: C_52  and  C_54
REMARK                            x       y       z     vdW  Elec       q    Type
REMARK                         _______ _______ _______ _____ _____    ______ ____
ROOT
ATOM      1  O   UNL     1      44.537   3.624  15.494  0.00  0.00    +0.000 OA
ATOM      2  C   UNL     1      45.850   3.778  14.963  0.00  0.00    +0.000 C 
ATOM      3  C   UNL     1      46.385   5.202  15.138  0.00  0.00    +0.000 C 
ATOM      4  C   UNL     1      45.485   6.028  16.044  0.00  0.00    +0.000 C 
ATOM      5  C   UNL     1      44.486   3.849  16.908  0.00  0.00    +0.000 C 
ATOM      6  C   UNL     1      44.982   5.265  17.287  0.00  0.00    +0.000 C 
ATOM      7  C   UNL     1      43.034   3.641  17.335  0.00  0.00    +0.000 C 
ENDROOT
BRANCH   4   8
ATOM      8  O   UNL     1      46.067   7.289  16.353  0.00  0.00    +0.000 OA
ATOM      9  H   UNL     1      47.031   7.191  16.205  0.00  0.00    +0.000 HD
ENDBRANCH   4   8
BRANCH   2  10
ATOM     10  O   UNL     1      45.931   3.362  13.600  0.00  0.00    +0.000 OA
BRANCH  10  29
ATOM     11  C   UNL     1      43.789  -4.013  12.346  0.00  0.00    +0.000 C 
ATOM     12  C   UNL     1      44.261  -2.562  12.637  0.00  0.00    +0.000 C 
ATOM     13  C   UNL     1      45.632  -2.218  12.000  0.00  0.00    +0.000 C 
ATOM     14  C   UNL     1      43.870  -4.423  10.848  0.00  0.00    +0.000 C 
ATOM     15  C   UNL     1      46.106  -0.736  12.294  0.00  0.00    +0.000 C 
ATOM     16  C   UNL     1      45.998  -0.433  13.825  0.00  0.00    +0.000 C 
ATOM     17  C   UNL     1      45.616  -2.576  10.499  0.00  0.00    +0.000 C 
ATOM     18  C   UNL     1      45.252  -4.042  10.261  0.00  0.00    +0.000 C 
ATOM     19  C   UNL     1      43.679  -5.971  10.945  0.00  0.00    +0.000 C 
ATOM     20  C   UNL     1      44.281  -2.272  14.145  0.00  0.00    +0.000 C 
ATOM     21  C   UNL     1      44.591  -5.110  13.069  0.00  0.00    +0.000 C 
ATOM     22  C   UNL     1      44.630  -0.818  14.417  0.00  0.00    +0.000 C 
ATOM     23  C   UNL     1      44.483  -6.368  12.200  0.00  0.00    +0.000 C 
ATOM     24  C   UNL     1      45.283   0.311  11.493  0.00  0.00    +0.000 C 
ATOM     25  C   UNL     1      46.304   1.040  14.165  0.00  0.00    +0.000 C 
ATOM     26  C   UNL     1      42.754  -3.778  10.002  0.00  0.00    +0.000 C 
ATOM     27  C   UNL     1      47.598  -0.621  11.871  0.00  0.00    +0.000 C 
ATOM     28  C   UNL     1      45.610   1.759  11.857  0.00  0.00    +0.000 C 
ATOM     29  C   UNL     1      45.464   2.030  13.353  0.00  0.00    +0.000 C 
BRANCH  19  32
ATOM     30  O   UNL     1      43.559  -7.813   7.689  0.00  0.00    +0.000 OA
ATOM     31  O   UNL     1      45.617  -8.817   7.513  0.00  0.00    +0.000 OA
ATOM     32  C   UNL     1      43.971  -6.776   9.707  0.00  0.00    +0.000 C 
ATOM     33  C   UNL     1      42.942  -6.961   8.653  0.00  0.00    +0.000 C 
ATOM     34  C   UNL     1      45.066  -7.468   9.390  0.00  0.00    +0.000 C 
ATOM     35  C   UNL     1      44.816  -8.117   8.105  0.00  0.00    +0.000 C 
ENDBRANCH  19  32
BRANCH  11  36
ATOM     36  O   UNL     1      42.434  -4.155  12.804  0.00  0.00    +0.000 OA
ATOM     37  H   UNL     1      41.954  -4.727  12.181  0.00  0.00    +0.000 HD
ENDBRANCH  11  36
ENDBRANCH  10  29
ENDBRANCH   2  10
BRANCH   6  38
ATOM     38  O   UNL     1      45.749   5.266  18.495  0.00  0.00    +0.000 OA
BRANCH  38  40
ATOM     39  O   UNL     1      44.639   4.282  20.348  0.00  0.00    +0.000 OA
ATOM     40  C   UNL     1      45.753   4.230  19.466  0.00  0.00    +0.000 C 
ATOM     41  C   UNL     1      47.062   4.040  20.227  0.00  0.00    +0.000 C 
ATOM     42  C   UNL     1      46.841   3.533  21.650  0.00  0.00    +0.000 C 
ATOM     43  C   UNL     1      44.424   3.009  20.987  0.00  0.00    +0.000 C 
ATOM     44  C   UNL     1      45.654   2.564  21.817  0.00  0.00    +0.000 C 
ATOM     45  C   UNL     1      43.190   3.167  21.872  0.00  0.00    +0.000 C 
BRANCH  42  46
ATOM     46  O   UNL     1      48.048   3.001  22.193  0.00  0.00    +0.000 OA
ATOM     47  H   UNL     1      47.950   2.036  22.266  0.00  0.00    +0.000 HD
ENDBRANCH  42  46
BRANCH  44  48
ATOM     48  O   UNL     1      45.910   1.161  21.676  0.00  0.00    +0.000 OA
BRANCH  48  50
ATOM     49  O   UNL     1      46.416  -0.660  23.069  0.00  0.00    +0.000 OA
ATOM     50  C   UNL     1      45.416   0.269  22.667  0.00  0.00    +0.000 C 
ATOM     51  C   UNL     1      44.250  -0.495  22.030  0.00  0.00    +0.000 C 
ATOM     52  C   UNL     1      44.072  -1.887  22.631  0.00  0.00    +0.000 C 
ATOM     53  C   UNL     1      46.009  -1.472  24.186  0.00  0.00    +0.000 C 
ATOM     54  C   UNL     1      44.541  -1.924  24.087  0.00  0.00    +0.000 C 
ATOM     55  C   UNL     1      46.956  -2.667  24.208  0.00  0.00    +0.000 C 
BRANCH  52  56
ATOM     56  O   UNL     1      42.685  -2.240  22.574  0.00  0.00    +0.000 OA
ATOM     57  H   UNL     1      42.398  -2.155  21.647  0.00  0.00    +0.000 HD
ENDBRANCH  52  56
BRANCH  54  58
ATOM     58  O   UNL     1      43.717  -1.021  24.846  0.00  0.00    +0.000 OA
ATOM     59  H   UNL     1      42.839  -1.450  24.908  0.00  0.00    +0.000 HD
ENDBRANCH  54  58
ENDBRANCH  48  50
ENDBRANCH  44  48
ENDBRANCH  38  40
ENDBRANCH   6  38
TORSDOF 12
ENDMDL
MODEL 6
REMARK VINA RESULT:      -9.3      1.865      2.585
REMARK  Name = 
REMARK  17 active torsions:
REMARK  status: ('A' for Active; 'I' for Inactive)
REMARK    1  A    between atoms: O_1  and  C_14
REMARK    2  A    between atoms: O_2  and  C_32
REMARK    3  A    between atoms: O_2  and  C_36
REMARK    4  A    between atoms: O_6  and  C_39
REMARK    5  A    between atoms: O_7  and  C_41
REMARK    6  A    between atoms: O_7  and  C_43
REMARK    7  A    between atoms: O_9  and  C_47
REMARK    8  A    between atoms: O_9  and  C_49
REMARK    9  A    between atoms: O_10  and  C_45
REMARK   10  A    between atoms: O_12  and  C_51
REMARK   11  A    between atoms: O_13  and  C_53
REMARK   12  A    between atoms: C_17  and  C_29
REMARK   13  A    between atoms: C_18  and  C_30
REMARK   14  A    between atoms: C_22  and  C_33
REMARK   15  A    between atoms: C_40  and  C_42
REMARK   16  A    between atoms: C_46  and  C_48
REMARK   17  A    between atoms: C_52  and  C_54
REMARK                            x       y       z     vdW  Elec       q    Type
REMARK                         _______ _______ _______ _____ _____    ______ ____
ROOT
ATOM      1  O   UNL     1      46.535   4.948  15.650  0.00  0.00    +0.000 OA
ATOM      2  C   UNL     1      45.781   4.300  14.629  0.00  0.00    +0.000 C 
ATOM      3  C   UNL     1      44.591   3.518  15.193  0.00  0.00    +0.000 C 
ATOM      4  C   UNL     1      44.371   3.825  16.666  0.00  0.00    +0.000 C 
ATOM      5  C   UNL     1      45.770   5.932  16.357  0.00  0.00    +0.000 C 
ATOM      6  C   UNL     1      44.513   5.320  17.019  0.00  0.00    +0.000 C 
ATOM      7  C   UNL     1      46.701   6.546  17.401  0.00  0.00    +0.000 C 
ENDROOT
BRANCH   4   8
ATOM      8  O   UNL     1      43.165   3.243  17.148  0.00  0.00    +0.000 OA
ATOM      9  H   UNL     1      42.495   3.374  16.445  0.00  0.00    +0.000 HD
ENDBRANCH   4   8
BRANCH   2  10
ATOM     10  O   UNL     1      46.598   3.470  13.803  0.00  0.00    +0.000 OA
BRANCH  10  29
ATOM     11  C   UNL     1      44.172  -3.822  12.581  0.00  0.00    +0.000 C 
ATOM     12  C   UNL     1      44.707  -2.390  12.855  0.00  0.00    +0.000 C 
ATOM     13  C   UNL     1      45.937  -2.013  11.990  0.00  0.00    +0.000 C 
ATOM     14  C   UNL     1      43.964  -4.149  11.075  0.00  0.00    +0.000 C 
ATOM     15  C   UNL     1      46.475  -0.550  12.269  0.00  0.00    +0.000 C 
ATOM     16  C   UNL     1      46.662  -0.332  13.807  0.00  0.00    +0.000 C 
ATOM     17  C   UNL     1      45.634  -2.288  10.503  0.00  0.00    +0.000 C 
ATOM     18  C   UNL     1      45.214  -3.738  10.259  0.00  0.00    +0.000 C 
ATOM     19  C   UNL     1      43.777  -5.699  11.123  0.00  0.00    +0.000 C 
ATOM     20  C   UNL     1      45.015  -2.183  14.346  0.00  0.00    +0.000 C 
ATOM     21  C   UNL     1      45.083  -4.958  13.080  0.00  0.00    +0.000 C 
ATOM     22  C   UNL     1      45.426  -0.747  14.625  0.00  0.00    +0.000 C 
ATOM     23  C   UNL     1      44.798  -6.166  12.180  0.00  0.00    +0.000 C 
ATOM     24  C   UNL     1      45.528   0.541  11.696  0.00  0.00    +0.000 C 
ATOM     25  C   UNL     1      47.044   1.119  14.161  0.00  0.00    +0.000 C 
ATOM     26  C   UNL     1      42.716  -3.457  10.491  0.00  0.00    +0.000 C 
ATOM     27  C   UNL     1      47.862  -0.414  11.578  0.00  0.00    +0.000 C 
ATOM     28  C   UNL     1      45.935   1.966  12.069  0.00  0.00    +0.000 C 
ATOM     29  C   UNL     1      46.078   2.155  13.578  0.00  0.00    +0.000 C 
BRANCH  19  32
ATOM     30  O   UNL     1      43.020  -7.375   7.863  0.00  0.00    +0.000 OA
ATOM     31  O   UNL     1      45.007  -8.335   7.227  0.00  0.00    +0.000 OA
ATOM     32  C   UNL     1      43.821  -6.436   9.811  0.00  0.00    +0.000 C 
ATOM     33  C   UNL     1      42.603  -6.583   8.974  0.00  0.00    +0.000 C 
ATOM     34  C   UNL     1      44.834  -7.093   9.246  0.00  0.00    +0.000 C 
ATOM     35  C   UNL     1      44.336  -7.679   8.003  0.00  0.00    +0.000 C 
ENDBRANCH  19  32
BRANCH  11  36
ATOM     36  O   UNL     1      42.926  -3.987  13.280  0.00  0.00    +0.000 OA
ATOM     37  H   UNL     1      43.114  -4.100  14.227  0.00  0.00    +0.000 HD
ENDBRANCH  11  36
ENDBRANCH  10  29
ENDBRANCH   2  10
BRANCH   6  38
ATOM     38  O   UNL     1      43.380   6.191  16.943  0.00  0.00    +0.000 OA
BRANCH  38  40
ATOM     39  O   UNL     1      43.747   7.127  19.092  0.00  0.00    +0.000 OA
ATOM     40  C   UNL     1      42.826   6.916  18.031  0.00  0.00    +0.000 C 
ATOM     41  C   UNL     1      41.482   6.412  18.547  0.00  0.00    +0.000 C 
ATOM     42  C   UNL     1      41.302   6.659  20.042  0.00  0.00    +0.000 C 
ATOM     43  C   UNL     1      43.329   8.220  19.933  0.00  0.00    +0.000 C 
ATOM     44  C   UNL     1      41.939   7.961  20.568  0.00  0.00    +0.000 C 
ATOM     45  C   UNL     1      44.402   8.384  21.007  0.00  0.00    +0.000 C 
BRANCH  42  46
ATOM     46  O   UNL     1      39.929   6.546  20.414  0.00  0.00    +0.000 OA
ATOM     47  H   UNL     1      39.461   7.338  20.098  0.00  0.00    +0.000 HD
ENDBRANCH  42  46
BRANCH  44  48
ATOM     48  O   UNL     1      41.131   9.145  20.577  0.00  0.00    +0.000 OA
BRANCH  48  50
ATOM     49  O   UNL     1      40.890   9.266  22.910  0.00  0.00    +0.000 OA
ATOM     50  C   UNL     1      41.169   9.993  21.719  0.00  0.00    +0.000 C 
ATOM     51  C   UNL     1      40.082  11.054  21.514  0.00  0.00    +0.000 C 
ATOM     52  C   UNL     1      39.520  11.569  22.837  0.00  0.00    +0.000 C 
ATOM     53  C   UNL     1      41.080  10.050  24.102  0.00  0.00    +0.000 C 
ATOM     54  C   UNL     1      40.568  11.494  23.949  0.00  0.00    +0.000 C 
ATOM     55  C   UNL     1      40.342   9.315  25.215  0.00  0.00    +0.000 C 
BRANCH  52  56
ATOM     56  O   UNL     1      39.114  12.932  22.666  0.00  0.00    +0.000 OA
ATOM     57  H   UNL     1      39.397  13.213  21.777  0.00  0.00    +0.000 HD
ENDBRANCH  52  56
BRANCH  54  58
ATOM     58  O   UNL     1      41.667  12.349  23.588  0.00  0.00    +0.000 OA
ATOM     59  H   UNL     1      41.262  13.160  23.219  0.00  0.00    +0.000 HD
ENDBRANCH  54  58
ENDBRANCH  48  50
ENDBRANCH  44  48
ENDBRANCH  38  40
ENDBRANCH   6  38
TORSDOF 12
ENDMDL
MODEL 7
REMARK VINA RESULT:      -8.9      1.636      2.551
REMARK  Name = 
REMARK  17 active torsions:
REMARK  status: ('A' for Active; 'I' for Inactive)
REMARK    1  A    between atoms: O_1  and  C_14
REMARK    2  A    between atoms: O_2  and  C_32
REMARK    3  A    between atoms: O_2  and  C_36
REMARK    4  A    between atoms: O_6  and  C_39
REMARK    5  A    between atoms: O_7  and  C_41
REMARK    6  A    between atoms: O_7  and  C_43
REMARK    7  A    between atoms: O_9  and  C_47
REMARK    8  A    between atoms: O_9  and  C_49
REMARK    9  A    between atoms: O_10  and  C_45
REMARK   10  A    between atoms: O_12  and  C_51
REMARK   11  A    between atoms: O_13  and  C_53
REMARK   12  A    between atoms: C_17  and  C_29
REMARK   13  A    between atoms: C_18  and  C_30
REMARK   14  A    between atoms: C_22  and  C_33
REMARK   15  A    between atoms: C_40  and  C_42
REMARK   16  A    between atoms: C_46  and  C_48
REMARK   17  A    between atoms: C_52  and  C_54
REMARK                            x       y       z     vdW  Elec       q    Type
REMARK                         _______ _______ _______ _____ _____    ______ ____
ROOT
ATOM      1  O   UNL     1      45.638   3.906  14.925  0.00  0.00    +0.000 OA
ATOM      2  C   UNL     1      46.832   4.549  14.488  0.00  0.00    +0.000 C 
ATOM      3  C   UNL     1      46.614   6.032  14.177  0.00  0.00    +0.000 C 
ATOM      4  C   UNL     1      45.244   6.503  14.640  0.00  0.00    +0.000 C 
ATOM      5  C   UNL     1      45.137   4.454  16.151  0.00  0.00    +0.000 C 
ATOM      6  C   UNL     1      44.837   5.967  16.028  0.00  0.00    +0.000 C 
ATOM      7  C   UNL     1      43.874   3.668  16.500  0.00  0.00    +0.000 C 
ENDROOT
BRANCH   4   8
ATOM      8  O   UNL     1      45.104   7.914  14.517  0.00  0.00    +0.000 OA
ATOM      9  H   UNL     1      45.917   8.305  14.901  0.00  0.00    +0.000 HD
ENDBRANCH   4   8
BRANCH   2  10
ATOM     10  O   UNL     1      47.431   3.874  13.382  0.00  0.00    +0.000 OA
BRANCH  10  29
ATOM     11  C   UNL     1      46.157  -3.773  12.714  0.00  0.00    +0.000 C 
ATOM     12  C   UNL     1      46.474  -2.258  12.842  0.00  0.00    +0.000 C 
ATOM     13  C   UNL     1      46.921  -1.605  11.509  0.00  0.00    +0.000 C 
ATOM     14  C   UNL     1      45.216  -4.131  11.529  0.00  0.00    +0.000 C 
ATOM     15  C   UNL     1      47.237  -0.059  11.643  0.00  0.00    +0.000 C 
ATOM     16  C   UNL     1      48.200   0.188  12.852  0.00  0.00    +0.000 C 
ATOM     17  C   UNL     1      45.903  -1.935  10.398  0.00  0.00    +0.000 C 
ATOM     18  C   UNL     1      45.700  -3.441  10.231  0.00  0.00    +0.000 C 
ATOM     19  C   UNL     1      45.381  -5.684  11.466  0.00  0.00    +0.000 C 
ATOM     20  C   UNL     1      47.510  -1.994  13.945  0.00  0.00    +0.000 C 
ATOM     21  C   UNL     1      47.386  -4.673  12.490  0.00  0.00    +0.000 C 
ATOM     22  C   UNL     1      47.729  -0.503  14.144  0.00  0.00    +0.000 C 
ATOM     23  C   UNL     1      46.883  -5.909  11.736  0.00  0.00    +0.000 C 
ATOM     24  C   UNL     1      45.947   0.788  11.819  0.00  0.00    +0.000 C 
ATOM     25  C   UNL     1      48.433   1.686  13.132  0.00  0.00    +0.000 C 
ATOM     26  C   UNL     1      43.750  -3.740  11.806  0.00  0.00    +0.000 C 
ATOM     27  C   UNL     1      47.954   0.394  10.340  0.00  0.00    +0.000 C 
ATOM     28  C   UNL     1      46.215   2.267  12.098  0.00  0.00    +0.000 C 
ATOM     29  C   UNL     1      47.132   2.476  13.302  0.00  0.00    +0.000 C 
BRANCH  19  32
ATOM     30  O   UNL     1      43.249  -7.373   8.896  0.00  0.00    +0.000 OA
ATOM     31  O   UNL     1      44.727  -8.076   7.286  0.00  0.00    +0.000 OA
ATOM     32  C   UNL     1      44.828  -6.384  10.254  0.00  0.00    +0.000 C 
ATOM     33  C   UNL     1      43.375  -6.659  10.125  0.00  0.00    +0.000 C 
ATOM     34  C   UNL     1      45.477  -6.904   9.212  0.00  0.00    +0.000 C 
ATOM     35  C   UNL     1      44.479  -7.521   8.340  0.00  0.00    +0.000 C 
ENDBRANCH  19  32
BRANCH  11  36
ATOM     36  O   UNL     1      45.564  -4.223  13.945  0.00  0.00    +0.000 OA
ATOM     37  H   UNL     1      44.666  -3.856  14.009  0.00  0.00    +0.000 HD
ENDBRANCH  11  36
ENDBRANCH  10  29
ENDBRANCH   2  10
BRANCH   6  38
ATOM     38  O   UNL     1      45.190   6.687  17.213  0.00  0.00    +0.000 OA
BRANCH  38  40
ATOM     39  O   UNL     1      43.850   6.628  19.171  0.00  0.00    +0.000 OA
ATOM     40  C   UNL     1      44.282   7.388  18.050  0.00  0.00    +0.000 C 
ATOM     41  C   UNL     1      43.109   8.058  17.342  0.00  0.00    +0.000 C 
ATOM     42  C   UNL     1      41.857   8.115  18.212  0.00  0.00    +0.000 C 
ATOM     43  C   UNL     1      43.331   7.482  20.208  0.00  0.00    +0.000 C 
ATOM     44  C   UNL     1      42.121   8.317  19.718  0.00  0.00    +0.000 C 
ATOM     45  C   UNL     1      42.937   6.571  21.369  0.00  0.00    +0.000 C 
BRANCH  42  46
ATOM     46  O   UNL     1      40.925   9.065  17.700  0.00  0.00    +0.000 OA
ATOM     47  H   UNL     1      40.468   9.481  18.452  0.00  0.00    +0.000 HD
ENDBRANCH  42  46
BRANCH  44  48
ATOM     48  O   UNL     1      42.167   9.660  20.216  0.00  0.00    +0.000 OA
BRANCH  48  50
ATOM     49  O   UNL     1      39.911   9.301  20.758  0.00  0.00    +0.000 OA
ATOM     50  C   UNL     1      41.011  10.199  20.846  0.00  0.00    +0.000 C 
ATOM     51  C   UNL     1      40.664  11.490  20.098  0.00  0.00    +0.000 C 
ATOM     52  C   UNL     1      39.171  11.804  20.146  0.00  0.00    +0.000 C 
ATOM     53  C   UNL     1      38.772   9.734  21.525  0.00  0.00    +0.000 C 
ATOM     54  C   UNL     1      38.532  11.252  21.422  0.00  0.00    +0.000 C 
ATOM     55  C   UNL     1      37.579   8.948  20.993  0.00  0.00    +0.000 C 
BRANCH  52  56
ATOM     56  O   UNL     1      38.997  13.226  20.111  0.00  0.00    +0.000 OA
ATOM     57  H   UNL     1      39.406  13.591  20.917  0.00  0.00    +0.000 HD
ENDBRANCH  52  56
BRANCH  54  58
ATOM     58  O   UNL     1      39.144  11.904  22.549  0.00  0.00    +0.000 OA
ATOM     59  H   UNL     1      38.520  11.785  23.295  0.00  0.00    +0.000 HD
ENDBRANCH  54  58
ENDBRANCH  48  50
ENDBRANCH  44  48
ENDBRANCH  38  40
ENDBRANCH   6  38
TORSDOF 12
ENDMDL
MODEL 8
REMARK VINA RESULT:      -8.5     16.211     22.133
REMARK  Name = 
REMARK  17 active torsions:
REMARK  status: ('A' for Active; 'I' for Inactive)
REMARK    1  A    between atoms: O_1  and  C_14
REMARK    2  A    between atoms: O_2  and  C_32
REMARK    3  A    between atoms: O_2  and  C_36
REMARK    4  A    between atoms: O_6  and  C_39
REMARK    5  A    between atoms: O_7  and  C_41
REMARK    6  A    between atoms: O_7  and  C_43
REMARK    7  A    between atoms: O_9  and  C_47
REMARK    8  A    between atoms: O_9  and  C_49
REMARK    9  A    between atoms: O_10  and  C_45
REMARK   10  A    between atoms: O_12  and  C_51
REMARK   11  A    between atoms: O_13  and  C_53
REMARK   12  A    between atoms: C_17  and  C_29
REMARK   13  A    between atoms: C_18  and  C_30
REMARK   14  A    between atoms: C_22  and  C_33
REMARK   15  A    between atoms: C_40  and  C_42
REMARK   16  A    between atoms: C_46  and  C_48
REMARK   17  A    between atoms: C_52  and  C_54
REMARK                            x       y       z     vdW  Elec       q    Type
REMARK                         _______ _______ _______ _____ _____    ______ ____
ROOT
ATOM      1  O   UNL     1      30.746 -11.917  19.137  0.00  0.00    +0.000 OA
ATOM      2  C   UNL     1      30.621 -11.059  20.268  0.00  0.00    +0.000 C 
ATOM      3  C   UNL     1      31.061 -11.742  21.566  0.00  0.00    +0.000 C 
ATOM      4  C   UNL     1      31.745 -13.072  21.292  0.00  0.00    +0.000 C 
ATOM      5  C   UNL     1      32.103 -12.305  18.889  0.00  0.00    +0.000 C 
ATOM      6  C   UNL     1      32.726 -13.036  20.102  0.00  0.00    +0.000 C 
ATOM      7  C   UNL     1      32.084 -13.203  17.653  0.00  0.00    +0.000 C 
ENDROOT
BRANCH   4   8
ATOM      8  O   UNL     1      32.312 -13.624  22.475  0.00  0.00    +0.000 OA
ATOM      9  H   UNL     1      31.565 -13.786  23.089  0.00  0.00    +0.000 HD
ENDBRANCH   4   8
BRANCH   2  10
ATOM     10  O   UNL     1      29.305 -10.519  20.391  0.00  0.00    +0.000 OA
BRANCH  10  29
ATOM     11  C   UNL     1      27.512  -4.635  15.626  0.00  0.00    +0.000 C 
ATOM     12  C   UNL     1      27.884  -5.767  16.622  0.00  0.00    +0.000 C 
ATOM     13  C   UNL     1      26.844  -5.962  17.754  0.00  0.00    +0.000 C 
ATOM     14  C   UNL     1      26.054  -4.711  15.089  0.00  0.00    +0.000 C 
ATOM     15  C   UNL     1      27.224  -7.121  18.764  0.00  0.00    +0.000 C 
ATOM     16  C   UNL     1      28.700  -6.943  19.251  0.00  0.00    +0.000 C 
ATOM     17  C   UNL     1      25.432  -6.109  17.148  0.00  0.00    +0.000 C 
ATOM     18  C   UNL     1      25.062  -4.921  16.259  0.00  0.00    +0.000 C 
ATOM     19  C   UNL     1      25.898  -3.302  14.432  0.00  0.00    +0.000 C 
ATOM     20  C   UNL     1      29.287  -5.555  17.212  0.00  0.00    +0.000 C 
ATOM     21  C   UNL     1      27.618  -3.211  16.199  0.00  0.00    +0.000 C 
ATOM     22  C   UNL     1      29.692  -6.725  18.094  0.00  0.00    +0.000 C 
ATOM     23  C   UNL     1      26.623  -2.353  15.408  0.00  0.00    +0.000 C 
ATOM     24  C   UNL     1      27.048  -8.529  18.131  0.00  0.00    +0.000 C 
ATOM     25  C   UNL     1      29.186  -8.119  20.124  0.00  0.00    +0.000 C 
ATOM     26  C   UNL     1      25.870  -5.833  14.048  0.00  0.00    +0.000 C 
ATOM     27  C   UNL     1      26.280  -7.009  19.995  0.00  0.00    +0.000 C 
ATOM     28  C   UNL     1      27.542  -9.670  19.021  0.00  0.00    +0.000 C 
ATOM     29  C   UNL     1      28.995  -9.483  19.454  0.00  0.00    +0.000 C 
BRANCH  19  32
ATOM     30  O   UNL     1      22.525  -1.711  14.122  0.00  0.00    +0.000 OA
ATOM     31  O   UNL     1      21.477  -2.889  12.453  0.00  0.00    +0.000 OA
ATOM     32  C   UNL     1      24.509  -2.882  14.032  0.00  0.00    +0.000 C 
ATOM     33  C   UNL     1      23.814  -1.772  14.731  0.00  0.00    +0.000 C 
ATOM     34  C   UNL     1      23.695  -3.419  13.124  0.00  0.00    +0.000 C 
ATOM     35  C   UNL     1      22.439  -2.672  13.166  0.00  0.00    +0.000 C 
ENDBRANCH  19  32
BRANCH  11  36
ATOM     36  O   UNL     1      28.429  -4.679  14.519  0.00  0.00    +0.000 OA
ATOM     37  H   UNL     1      28.471  -3.795  14.116  0.00  0.00    +0.000 HD
ENDBRANCH  11  36
ENDBRANCH  10  29
ENDBRANCH   2  10
BRANCH   6  38
ATOM     38  O   UNL     1      34.096 -12.677  20.305  0.00  0.00    +0.000 OA
BRANCH  38  40
ATOM     39  O   UNL     1      35.261 -14.110  18.815  0.00  0.00    +0.000 OA
ATOM     40  C   UNL     1      35.129 -12.795  19.338  0.00  0.00    +0.000 C 
ATOM     41  C   UNL     1      36.480 -12.211  19.736  0.00  0.00    +0.000 C 
ATOM     42  C   UNL     1      37.649 -12.963  19.106  0.00  0.00    +0.000 C 
ATOM     43  C   UNL     1      35.959 -14.100  17.555  0.00  0.00    +0.000 C 
ATOM     44  C   UNL     1      37.384 -13.506  17.687  0.00  0.00    +0.000 C 
ATOM     45  C   UNL     1      36.008 -15.547  17.069  0.00  0.00    +0.000 C 
BRANCH  42  46
ATOM     46  O   UNL     1      38.845 -12.187  19.167  0.00  0.00    +0.000 OA
ATOM     47  H   UNL     1      39.009 -11.809  18.286  0.00  0.00    +0.000 HD
ENDBRANCH  42  46
BRANCH  44  48
ATOM     48  O   UNL     1      37.713 -12.663  16.575  0.00  0.00    +0.000 OA
BRANCH  48  50
ATOM     49  O   UNL     1      37.901 -14.076  14.709  0.00  0.00    +0.000 OA
ATOM     50  C   UNL     1      38.580 -13.166  15.566  0.00  0.00    +0.000 C 
ATOM     51  C   UNL     1      39.711 -13.906  16.288  0.00  0.00    +0.000 C 
ATOM     52  C   UNL     1      40.294 -15.037  15.443  0.00  0.00    +0.000 C 
ATOM     53  C   UNL     1      38.696 -14.479  13.578  0.00  0.00    +0.000 C 
ATOM     54  C   UNL     1      40.169 -14.731  13.949  0.00  0.00    +0.000 C 
ATOM     55  C   UNL     1      38.039 -15.741  13.028  0.00  0.00    +0.000 C 
BRANCH  52  56
ATOM     56  O   UNL     1      41.679 -15.194  15.776  0.00  0.00    +0.000 OA
ATOM     57  H   UNL     1      41.837 -14.711  16.607  0.00  0.00    +0.000 HD
ENDBRANCH  52  56
BRANCH  54  58
ATOM     58  O   UNL     1      40.935 -13.546  13.667  0.00  0.00    +0.000 OA
ATOM     59  H   UNL     1      41.870 -13.837  13.630  0.00  0.00    +0.000 HD
ENDBRANCH  54  58
ENDBRANCH  48  50
ENDBRANCH  44  48
ENDBRANCH  38  40
ENDBRANCH   6  38
TORSDOF 12
ENDMDL
MODEL 9
REMARK VINA RESULT:      -8.5     29.528     31.957
REMARK  Name = 
REMARK  17 active torsions:
REMARK  status: ('A' for Active; 'I' for Inactive)
REMARK    1  A    between atoms: O_1  and  C_14
REMARK    2  A    between atoms: O_2  and  C_32
REMARK    3  A    between atoms: O_2  and  C_36
REMARK    4  A    between atoms: O_6  and  C_39
REMARK    5  A    between atoms: O_7  and  C_41
REMARK    6  A    between atoms: O_7  and  C_43
REMARK    7  A    between atoms: O_9  and  C_47
REMARK    8  A    between atoms: O_9  and  C_49
REMARK    9  A    between atoms: O_10  and  C_45
REMARK   10  A    between atoms: O_12  and  C_51
REMARK   11  A    between atoms: O_13  and  C_53
REMARK   12  A    between atoms: C_17  and  C_29
REMARK   13  A    between atoms: C_18  and  C_30
REMARK   14  A    between atoms: C_22  and  C_33
REMARK   15  A    between atoms: C_40  and  C_42
REMARK   16  A    between atoms: C_46  and  C_48
REMARK   17  A    between atoms: C_52  and  C_54
REMARK                            x       y       z     vdW  Elec       q    Type
REMARK                         _______ _______ _______ _____ _____    ______ ____
ROOT
ATOM      1  O   UNL     1      21.052  19.397  30.772  0.00  0.00    +0.000 OA
ATOM      2  C   UNL     1      22.019  18.351  30.753  0.00  0.00    +0.000 C 
ATOM      3  C   UNL     1      23.186  18.653  29.808  0.00  0.00    +0.000 C 
ATOM      4  C   UNL     1      23.143  20.092  29.315  0.00  0.00    +0.000 C 
ATOM      5  C   UNL     1      21.590  20.632  31.260  0.00  0.00    +0.000 C 
ATOM      6  C   UNL     1      22.789  21.117  30.411  0.00  0.00    +0.000 C 
ATOM      7  C   UNL     1      20.449  21.649  31.236  0.00  0.00    +0.000 C 
ENDROOT
BRANCH   4   8
ATOM      8  O   UNL     1      24.317  20.430  28.584  0.00  0.00    +0.000 OA
ATOM      9  H   UNL     1      24.092  21.224  28.054  0.00  0.00    +0.000 HD
ENDBRANCH   4   8
BRANCH   2  10
ATOM     10  O   UNL     1      21.433  17.083  30.456  0.00  0.00    +0.000 OA
BRANCH  10  29
ATOM     11  C   UNL     1      23.395  11.179  35.129  0.00  0.00    +0.000 C 
ATOM     12  C   UNL     1      22.948  12.328  34.185  0.00  0.00    +0.000 C 
ATOM     13  C   UNL     1      21.845  13.233  34.791  0.00  0.00    +0.000 C 
ATOM     14  C   UNL     1      23.727  11.636  36.578  0.00  0.00    +0.000 C 
ATOM     15  C   UNL     1      21.396  14.406  33.827  0.00  0.00    +0.000 C 
ATOM     16  C   UNL     1      21.073  13.838  32.405  0.00  0.00    +0.000 C 
ATOM     17  C   UNL     1      22.273  13.713  36.193  0.00  0.00    +0.000 C 
ATOM     18  C   UNL     1      22.602  12.547  37.125  0.00  0.00    +0.000 C 
ATOM     19  C   UNL     1      23.788  10.264  37.323  0.00  0.00    +0.000 C 
ATOM     20  C   UNL     1      22.509  11.789  32.815  0.00  0.00    +0.000 C 
ATOM     21  C   UNL     1      22.353  10.064  35.326  0.00  0.00    +0.000 C 
ATOM     22  C   UNL     1      22.185  12.925  31.858  0.00  0.00    +0.000 C 
ATOM     23  C   UNL     1      22.632   9.452  36.704  0.00  0.00    +0.000 C 
ATOM     24  C   UNL     1      22.478  15.516  33.714  0.00  0.00    +0.000 C 
ATOM     25  C   UNL     1      20.771  14.945  31.375  0.00  0.00    +0.000 C 
ATOM     26  C   UNL     1      25.078  12.375  36.665  0.00  0.00    +0.000 C 
ATOM     27  C   UNL     1      20.101  15.035  34.414  0.00  0.00    +0.000 C 
ATOM     28  C   UNL     1      22.148  16.595  32.683  0.00  0.00    +0.000 C 
ATOM     29  C   UNL     1      21.869  16.011  31.299  0.00  0.00    +0.000 C 
BRANCH  19  32
ATOM     30  O   UNL     1      23.002  10.214  40.982  0.00  0.00    +0.000 OA
ATOM     31  O   UNL     1      24.976  10.784  42.009  0.00  0.00    +0.000 OA
ATOM     32  C   UNL     1      23.819  10.302  38.828  0.00  0.00    +0.000 C 
ATOM     33  C   UNL     1      22.598  10.030  39.626  0.00  0.00    +0.000 C 
ATOM     34  C   UNL     1      24.823  10.628  39.642  0.00  0.00    +0.000 C 
ATOM     35  C   UNL     1      24.315  10.561  41.011  0.00  0.00    +0.000 C 
ENDBRANCH  19  32
BRANCH  11  36
ATOM     36  O   UNL     1      24.548  10.538  34.557  0.00  0.00    +0.000 OA
ATOM     37  H   UNL     1      24.277  10.084  33.741  0.00  0.00    +0.000 HD
ENDBRANCH  11  36
ENDBRANCH  10  29
ENDBRANCH   2  10
BRANCH   6  38
ATOM     38  O   UNL     1      23.819  21.703  31.213  0.00  0.00    +0.000 OA
BRANCH  38  40
ATOM     39  O   UNL     1      24.060  20.717  33.358  0.00  0.00    +0.000 OA
ATOM     40  C   UNL     1      24.669  20.997  32.105  0.00  0.00    +0.000 C 
ATOM     41  C   UNL     1      26.072  21.572  32.279  0.00  0.00    +0.000 C 
ATOM     42  C   UNL     1      26.638  21.315  33.672  0.00  0.00    +0.000 C 
ATOM     43  C   UNL     1      24.736  19.639  34.034  0.00  0.00    +0.000 C 
ATOM     44  C   UNL     1      26.226  19.970  34.304  0.00  0.00    +0.000 C 
ATOM     45  C   UNL     1      23.981  19.398  35.339  0.00  0.00    +0.000 C 
BRANCH  42  46
ATOM     46  O   UNL     1      28.052  21.503  33.688  0.00  0.00    +0.000 OA
ATOM     47  H   UNL     1      28.277  22.059  34.455  0.00  0.00    +0.000 HD
ENDBRANCH  42  46
BRANCH  44  48
ATOM     48  O   UNL     1      27.071  18.836  34.076  0.00  0.00    +0.000 OA
BRANCH  48  50
ATOM     49  O   UNL     1      27.699  19.069  36.326  0.00  0.00    +0.000 OA
ATOM     50  C   UNL     1      27.703  18.215  35.189  0.00  0.00    +0.000 C 
ATOM     51  C   UNL     1      29.153  17.940  34.774  0.00  0.00    +0.000 C 
ATOM     52  C   UNL     1      30.107  17.946  35.966  0.00  0.00    +0.000 C 
ATOM     53  C   UNL     1      28.179  18.419  37.517  0.00  0.00    +0.000 C 
ATOM     54  C   UNL     1      29.392  17.510  37.247  0.00  0.00    +0.000 C 
ATOM     55  C   UNL     1      28.529  19.533  38.497  0.00  0.00    +0.000 C 
BRANCH  52  56
ATOM     56  O   UNL     1      31.185  17.041  35.698  0.00  0.00    +0.000 OA
ATOM     57  H   UNL     1      32.017  17.538  35.803  0.00  0.00    +0.000 HD
ENDBRANCH  52  56
BRANCH  54  58
ATOM     58  O   UNL     1      28.937  16.156  37.069  0.00  0.00    +0.000 OA
ATOM     59  H   UNL     1      28.075  16.103  37.530  0.00  0.00    +0.000 HD
ENDBRANCH  54  58
ENDBRANCH  48  50
ENDBRANCH  44  48
ENDBRANCH  38  40
ENDBRANCH   6  38
TORSDOF 12
ENDMDL
