MODEL 1
REMARK VINA RESULT:      -8.3      0.000      0.000
REMARK  Name = Cdk12_Inhibitor.pdbqt.pdb
REMARK  6 active torsions:
REMARK  status: ('A' for Active; 'I' for Inactive)
REMARK    1  A    between atoms: N_1  and  C_23
REMARK    2  A    between atoms: N_9  and  C_11
REMARK    3  A    between atoms: C_14  and  S_17
REMARK    4  A    between atoms: S_17  and  N_20
REMARK    5  A    between atoms: C_23  and  N_25
REMARK    6  A    between atoms: N_25  and  C_27
REMARK                            x       y       z     vdW  Elec       q    Type
REMARK                         _______ _______ _______ _____ _____    ______ ____
ROOT
ATOM      1  N   UNL     1      42.298  -5.943  11.401  0.00  0.00    +0.000 N 
ATOM      2  N   UNL     1      42.674  -4.738  11.906  0.00  0.00    +0.000 NA
ATOM      3  N   UNL     1      41.931  -6.076  13.580  0.00  0.00    +0.000 NA
ATOM      4  N   UNL     1      41.220  -7.940  12.313  0.00  0.00    +0.000 N 
ATOM      5  C   UNL     1      42.469  -4.878  13.212  0.00  0.00    +0.000 A 
ATOM      6  C   UNL     1      41.786  -6.714  12.448  0.00  0.00    +0.000 A 
ATOM      7  H   UNL     1      40.518  -8.038  11.578  0.00  0.00    +0.000 HD
ATOM      8  H   UNL     1      40.828  -8.286  13.190  0.00  0.00    +0.000 HD
ATOM      9  N   UNL     1      42.706  -3.999  14.202  0.00  0.00    +0.000 N 
ATOM     10  H   UNL     1      42.473  -4.321  15.133  0.00  0.00    +0.000 HD
ENDROOT
BRANCH   9  11
ATOM     11  C   UNL     1      43.254  -2.705  14.157  0.00  0.00    +0.000 A 
ATOM     12  C   UNL     1      44.636  -2.545  14.324  0.00  0.00    +0.000 A 
ATOM     13  C   UNL     1      45.225  -1.284  14.302  0.00  0.00    +0.000 A 
ATOM     14  C   UNL     1      44.418  -0.167  14.127  0.00  0.00    +0.000 A 
ATOM     15  C   UNL     1      43.047  -0.289  13.938  0.00  0.00    +0.000 A 
ATOM     16  C   UNL     1      42.475  -1.558  13.965  0.00  0.00    +0.000 A 
BRANCH  14  17
ATOM     17  S   UNL     1      45.152   1.416  14.034  0.00  0.00    +0.000 S 
ATOM     18  O   UNL     1      45.789   1.721  15.294  0.00  0.00    +0.000 OA
ATOM     19  O   UNL     1      45.840   1.552  12.773  0.00  0.00    +0.000 OA
BRANCH  17  20
ATOM     20  N   UNL     1      43.814   2.427  13.947  0.00  0.00    +0.000 NA
ATOM     21  H   UNL     1      44.090   3.383  14.175  0.00  0.00    +0.000 HD
ATOM     22  H   UNL     1      43.371   2.333  13.032  0.00  0.00    +0.000 HD
ENDBRANCH  17  20
ENDBRANCH  14  17
ENDBRANCH   9  11
BRANCH   1  23
ATOM     23  C   UNL     1      42.475  -6.240  10.018  0.00  0.00    +0.000 C 
ATOM     24  S   UNL     1      41.851  -5.321   8.749  0.00  0.00    +0.000 S 
BRANCH  23  25
ATOM     25  N   UNL     1      43.349  -7.326   9.881  0.00  0.00    +0.000 N 
ATOM     26  H   UNL     1      42.971  -8.241  10.148  0.00  0.00    +0.000 HD
BRANCH  25  27
ATOM     27  C   UNL     1      44.753  -7.336   9.668  0.00  0.00    +0.000 A 
ATOM     28  C   UNL     1      45.205  -7.762   8.413  0.00  0.00    +0.000 A 
ATOM     29  F   UNL     1      44.310  -8.148   7.490  0.00  0.00    +0.000 F 
ATOM     30  C   UNL     1      46.559  -7.805   8.096  0.00  0.00    +0.000 A 
ATOM     31  C   UNL     1      47.495  -7.392   9.038  0.00  0.00    +0.000 A 
ATOM     32  C   UNL     1      47.069  -6.902  10.269  0.00  0.00    +0.000 A 
ATOM     33  C   UNL     1      45.707  -6.868  10.574  0.00  0.00    +0.000 A 
ATOM     34  F   UNL     1      45.340  -6.224  11.691  0.00  0.00    +0.000 F 
ENDBRANCH  25  27
ENDBRANCH  23  25
ENDBRANCH   1  23
TORSDOF 6
ENDMDL
MODEL 2
REMARK VINA RESULT:      -8.2      3.901      5.512
REMARK  Name = Cdk12_Inhibitor.pdbqt.pdb
REMARK  6 active torsions:
REMARK  status: ('A' for Active; 'I' for Inactive)
REMARK    1  A    between atoms: N_1  and  C_23
REMARK    2  A    between atoms: N_9  and  C_11
REMARK    3  A    between atoms: C_14  and  S_17
REMARK    4  A    between atoms: S_17  and  N_20
REMARK    5  A    between atoms: C_23  and  N_25
REMARK    6  A    between atoms: N_25  and  C_27
REMARK                            x       y       z     vdW  Elec       q    Type
REMARK                         _______ _______ _______ _____ _____    ______ ____
ROOT
ATOM      1  N   UNL     1      43.286  -2.132  13.630  0.00  0.00    +0.000 N 
ATOM      2  N   UNL     1      44.260  -1.497  12.927  0.00  0.00    +0.000 NA
ATOM      3  N   UNL     1      42.789   0.022  13.750  0.00  0.00    +0.000 NA
ATOM      4  N   UNL     1      41.203  -1.442  14.712  0.00  0.00    +0.000 N 
ATOM      5  C   UNL     1      43.940  -0.212  13.056  0.00  0.00    +0.000 A 
ATOM      6  C   UNL     1      42.365  -1.174  14.065  0.00  0.00    +0.000 A 
ATOM      7  H   UNL     1      40.616  -2.173  14.308  0.00  0.00    +0.000 HD
ATOM      8  H   UNL     1      40.636  -0.606  14.855  0.00  0.00    +0.000 HD
ATOM      9  N   UNL     1      44.586   0.869  12.586  0.00  0.00    +0.000 N 
ATOM     10  H   UNL     1      44.159   1.760  12.807  0.00  0.00    +0.000 HD
ENDROOT
BRANCH   9  11
ATOM     11  C   UNL     1      45.782   0.967  11.854  0.00  0.00    +0.000 A 
ATOM     12  C   UNL     1      46.050   0.018  10.858  0.00  0.00    +0.000 A 
ATOM     13  C   UNL     1      47.227   0.063  10.116  0.00  0.00    +0.000 A 
ATOM     14  C   UNL     1      48.155   1.059  10.385  0.00  0.00    +0.000 A 
ATOM     15  C   UNL     1      47.914   2.028  11.351  0.00  0.00    +0.000 A 
ATOM     16  C   UNL     1      46.734   1.967  12.086  0.00  0.00    +0.000 A 
BRANCH  14  17
ATOM     17  S   UNL     1      49.606   1.165   9.417  0.00  0.00    +0.000 S 
ATOM     18  O   UNL     1      50.722   1.513  10.267  0.00  0.00    +0.000 OA
ATOM     19  O   UNL     1      49.657   0.049   8.504  0.00  0.00    +0.000 OA
BRANCH  17  20
ATOM     20  N   UNL     1      49.313   2.525   8.477  0.00  0.00    +0.000 NA
ATOM     21  H   UNL     1      49.418   2.290   7.490  0.00  0.00    +0.000 HD
ATOM     22  H   UNL     1      48.399   2.914   8.713  0.00  0.00    +0.000 HD
ENDBRANCH  17  20
ENDBRANCH  14  17
ENDBRANCH   9  11
BRANCH   1  23
ATOM     23  C   UNL     1      43.334  -3.543  13.830  0.00  0.00    +0.000 C 
ATOM     24  S   UNL     1      42.948  -4.324  15.274  0.00  0.00    +0.000 S 
BRANCH  23  25
ATOM     25  N   UNL     1      43.619  -4.178  12.615  0.00  0.00    +0.000 N 
ATOM     26  H   UNL     1      44.513  -3.928  12.178  0.00  0.00    +0.000 HD
BRANCH  25  27
ATOM     27  C   UNL     1      42.765  -4.924  11.760  0.00  0.00    +0.000 A 
ATOM     28  C   UNL     1      42.491  -4.381  10.499  0.00  0.00    +0.000 A 
ATOM     29  F   UNL     1      43.026  -3.196  10.165  0.00  0.00    +0.000 F 
ATOM     30  C   UNL     1      41.672  -5.032   9.581  0.00  0.00    +0.000 A 
ATOM     31  C   UNL     1      41.125  -6.268   9.909  0.00  0.00    +0.000 A 
ATOM     32  C   UNL     1      41.435  -6.860  11.130  0.00  0.00    +0.000 A 
ATOM     33  C   UNL     1      42.255  -6.193  12.042  0.00  0.00    +0.000 A 
ATOM     34  F   UNL     1      42.667  -6.878  13.118  0.00  0.00    +0.000 F 
ENDBRANCH  25  27
ENDBRANCH  23  25
ENDBRANCH   1  23
TORSDOF 6
ENDMDL
MODEL 3
REMARK VINA RESULT:      -7.8     34.286     36.624
REMARK  Name = Cdk12_Inhibitor.pdbqt.pdb
REMARK  6 active torsions:
REMARK  status: ('A' for Active; 'I' for Inactive)
REMARK    1  A    between atoms: N_1  and  C_23
REMARK    2  A    between atoms: N_9  and  C_11
REMARK    3  A    between atoms: C_14  and  S_17
REMARK    4  A    between atoms: S_17  and  N_20
REMARK    5  A    between atoms: C_23  and  N_25
REMARK    6  A    between atoms: N_25  and  C_27
REMARK                            x       y       z     vdW  Elec       q    Type
REMARK                         _______ _______ _______ _____ _____    ______ ____
ROOT
ATOM      1  N   UNL     1      22.871  21.834   2.644  0.00  0.00    +0.000 N 
ATOM      2  N   UNL     1      22.586  22.977   3.321  0.00  0.00    +0.000 NA
ATOM      3  N   UNL     1      24.706  23.066   2.518  0.00  0.00    +0.000 NA
ATOM      4  N   UNL     1      24.875  20.894   1.602  0.00  0.00    +0.000 N 
ATOM      5  C   UNL     1      23.698  23.695   3.189  0.00  0.00    +0.000 A 
ATOM      6  C   UNL     1      24.202  21.896   2.222  0.00  0.00    +0.000 A 
ATOM      7  H   UNL     1      24.801  19.968   2.025  0.00  0.00    +0.000 HD
ATOM      8  H   UNL     1      25.862  21.115   1.464  0.00  0.00    +0.000 HD
ATOM      9  N   UNL     1      23.959  24.935   3.636  0.00  0.00    +0.000 N 
ATOM     10  H   UNL     1      24.882  25.291   3.417  0.00  0.00    +0.000 HD
ENDROOT
BRANCH   9  11
ATOM     11  C   UNL     1      23.144  25.838   4.341  0.00  0.00    +0.000 A 
ATOM     12  C   UNL     1      22.173  26.567   3.642  0.00  0.00    +0.000 A 
ATOM     13  C   UNL     1      21.351  27.484   4.293  0.00  0.00    +0.000 A 
ATOM     14  C   UNL     1      21.515  27.685   5.657  0.00  0.00    +0.000 A 
ATOM     15  C   UNL     1      22.454  26.966   6.385  0.00  0.00    +0.000 A 
ATOM     16  C   UNL     1      23.269  26.055   5.719  0.00  0.00    +0.000 A 
BRANCH  14  17
ATOM     17  S   UNL     1      20.447  28.785   6.496  0.00  0.00    +0.000 S 
ATOM     18  O   UNL     1      21.175  29.437   7.560  0.00  0.00    +0.000 OA
ATOM     19  O   UNL     1      19.668  29.526   5.534  0.00  0.00    +0.000 OA
BRANCH  17  20
ATOM     20  N   UNL     1      19.377  27.737   7.256  0.00  0.00    +0.000 NA
ATOM     21  H   UNL     1      19.038  27.047   6.586  0.00  0.00    +0.000 HD
ATOM     22  H   UNL     1      19.823  27.329   8.078  0.00  0.00    +0.000 HD
ENDBRANCH  17  20
ENDBRANCH  14  17
ENDBRANCH   9  11
BRANCH   1  23
ATOM     23  C   UNL     1      21.875  20.832   2.455  0.00  0.00    +0.000 C 
ATOM     24  S   UNL     1      21.382  20.235   0.956  0.00  0.00    +0.000 S 
BRANCH  23  25
ATOM     25  N   UNL     1      21.473  20.331   3.700  0.00  0.00    +0.000 N 
ATOM     26  H   UNL     1      22.212  20.241   4.405  0.00  0.00    +0.000 HD
BRANCH  25  27
ATOM     27  C   UNL     1      20.259  19.694   4.070  0.00  0.00    +0.000 A 
ATOM     28  C   UNL     1      20.340  18.362   4.493  0.00  0.00    +0.000 A 
ATOM     29  F   UNL     1      21.537  17.753   4.516  0.00  0.00    +0.000 F 
ATOM     30  C   UNL     1      19.213  17.645   4.886  0.00  0.00    +0.000 A 
ATOM     31  C   UNL     1      17.971  18.271   4.882  0.00  0.00    +0.000 A 
ATOM     32  C   UNL     1      17.872  19.613   4.530  0.00  0.00    +0.000 A 
ATOM     33  C   UNL     1      19.011  20.318   4.135  0.00  0.00    +0.000 A 
ATOM     34  F   UNL     1      18.894  21.644   3.981  0.00  0.00    +0.000 F 
ENDBRANCH  25  27
ENDBRANCH  23  25
ENDBRANCH   1  23
TORSDOF 6
ENDMDL
MODEL 4
REMARK VINA RESULT:      -7.5     34.239     36.613
REMARK  Name = Cdk12_Inhibitor.pdbqt.pdb
REMARK  6 active torsions:
REMARK  status: ('A' for Active; 'I' for Inactive)
REMARK    1  A    between atoms: N_1  and  C_23
REMARK    2  A    between atoms: N_9  and  C_11
REMARK    3  A    between atoms: C_14  and  S_17
REMARK    4  A    between atoms: S_17  and  N_20
REMARK    5  A    between atoms: C_23  and  N_25
REMARK    6  A    between atoms: N_25  and  C_27
REMARK                            x       y       z     vdW  Elec       q    Type
REMARK                         _______ _______ _______ _____ _____    ______ ____
ROOT
ATOM      1  N   UNL     1      23.103  21.949   2.473  0.00  0.00    +0.000 N 
ATOM      2  N   UNL     1      22.769  23.059   3.181  0.00  0.00    +0.000 NA
ATOM      3  N   UNL     1      24.844  23.305   2.298  0.00  0.00    +0.000 NA
ATOM      4  N   UNL     1      25.122  21.163   1.336  0.00  0.00    +0.000 N 
ATOM      5  C   UNL     1      23.824  23.853   3.019  0.00  0.00    +0.000 A 
ATOM      6  C   UNL     1      24.409  22.108   2.001  0.00  0.00    +0.000 A 
ATOM      7  H   UNL     1      25.127  20.228   1.745  0.00  0.00    +0.000 HD
ATOM      8  H   UNL     1      26.085  21.453   1.165  0.00  0.00    +0.000 HD
ATOM      9  N   UNL     1      24.019  25.101   3.478  0.00  0.00    +0.000 N 
ATOM     10  H   UNL     1      24.906  25.521   3.230  0.00  0.00    +0.000 HD
ENDROOT
BRANCH   9  11
ATOM     11  C   UNL     1      23.174  25.935   4.231  0.00  0.00    +0.000 A 
ATOM     12  C   UNL     1      22.132  26.611   3.583  0.00  0.00    +0.000 A 
ATOM     13  C   UNL     1      21.277  27.460   4.282  0.00  0.00    +0.000 A 
ATOM     14  C   UNL     1      21.479  27.647   5.643  0.00  0.00    +0.000 A 
ATOM     15  C   UNL     1      22.490  26.978   6.321  0.00  0.00    +0.000 A 
ATOM     16  C   UNL     1      23.336  26.135   5.607  0.00  0.00    +0.000 A 
BRANCH  14  17
ATOM     17  S   UNL     1      20.375  28.659   6.542  0.00  0.00    +0.000 S 
ATOM     18  O   UNL     1      19.768  29.618   5.647  0.00  0.00    +0.000 OA
ATOM     19  O   UNL     1      19.591  27.840   7.434  0.00  0.00    +0.000 OA
BRANCH  17  20
ATOM     20  N   UNL     1      21.415  29.547   7.517  0.00  0.00    +0.000 NA
ATOM     21  H   UNL     1      20.894  30.282   7.996  0.00  0.00    +0.000 HD
ATOM     22  H   UNL     1      21.915  28.918   8.147  0.00  0.00    +0.000 HD
ENDBRANCH  17  20
ENDBRANCH  14  17
ENDBRANCH   9  11
BRANCH   1  23
ATOM     23  C   UNL     1      22.169  20.884   2.305  0.00  0.00    +0.000 C 
ATOM     24  S   UNL     1      21.659  20.278   0.816  0.00  0.00    +0.000 S 
BRANCH  23  25
ATOM     25  N   UNL     1      21.850  20.340   3.555  0.00  0.00    +0.000 N 
ATOM     26  H   UNL     1      22.635  20.219   4.204  0.00  0.00    +0.000 HD
BRANCH  25  27
ATOM     27  C   UNL     1      20.659  19.697   3.985  0.00  0.00    +0.000 A 
ATOM     28  C   UNL     1      19.485  20.459   3.981  0.00  0.00    +0.000 A 
ATOM     29  F   UNL     1      19.537  21.743   3.593  0.00  0.00    +0.000 F 
ATOM     30  C   UNL     1      18.261  19.926   4.376  0.00  0.00    +0.000 A 
ATOM     31  C   UNL     1      18.191  18.592   4.765  0.00  0.00    +0.000 A 
ATOM     32  C   UNL     1      19.330  17.795   4.714  0.00  0.00    +0.000 A 
ATOM     33  C   UNL     1      20.551  18.345   4.319  0.00  0.00    +0.000 A 
ATOM     34  F   UNL     1      21.572  17.501   4.114  0.00  0.00    +0.000 F 
ENDBRANCH  25  27
ENDBRANCH  23  25
ENDBRANCH   1  23
TORSDOF 6
ENDMDL
MODEL 5
REMARK VINA RESULT:      -7.2      4.602      5.879
REMARK  Name = Cdk12_Inhibitor.pdbqt.pdb
REMARK  6 active torsions:
REMARK  status: ('A' for Active; 'I' for Inactive)
REMARK    1  A    between atoms: N_1  and  C_23
REMARK    2  A    between atoms: N_9  and  C_11
REMARK    3  A    between atoms: C_14  and  S_17
REMARK    4  A    between atoms: S_17  and  N_20
REMARK    5  A    between atoms: C_23  and  N_25
REMARK    6  A    between atoms: N_25  and  C_27
REMARK                            x       y       z     vdW  Elec       q    Type
REMARK                         _______ _______ _______ _____ _____    ______ ____
ROOT
ATOM      1  N   UNL     1      43.834  -1.573  12.197  0.00  0.00    +0.000 N 
ATOM      2  N   UNL     1      44.991  -1.138  11.632  0.00  0.00    +0.000 NA
ATOM      3  N   UNL     1      43.863   0.616  12.526  0.00  0.00    +0.000 NA
ATOM      4  N   UNL     1      41.892  -0.489  13.217  0.00  0.00    +0.000 N 
ATOM      5  C   UNL     1      44.980   0.168  11.883  0.00  0.00    +0.000 A 
ATOM      6  C   UNL     1      43.137  -0.461  12.677  0.00  0.00    +0.000 A 
ATOM      7  H   UNL     1      41.184  -1.010  12.698  0.00  0.00    +0.000 HD
ATOM      8  H   UNL     1      41.533   0.445  13.417  0.00  0.00    +0.000 HD
ATOM      9  N   UNL     1      45.906   1.093  11.579  0.00  0.00    +0.000 N 
ATOM     10  H   UNL     1      45.690   2.038  11.871  0.00  0.00    +0.000 HD
ENDROOT
BRANCH   9  11
ATOM     11  C   UNL     1      47.151   0.957  10.939  0.00  0.00    +0.000 A 
ATOM     12  C   UNL     1      48.240   1.706  11.402  0.00  0.00    +0.000 A 
ATOM     13  C   UNL     1      49.489   1.618  10.793  0.00  0.00    +0.000 A 
ATOM     14  C   UNL     1      49.645   0.782   9.695  0.00  0.00    +0.000 A 
ATOM     15  C   UNL     1      48.593   0.010   9.221  0.00  0.00    +0.000 A 
ATOM     16  C   UNL     1      47.350   0.112   9.840  0.00  0.00    +0.000 A 
BRANCH  14  17
ATOM     17  S   UNL     1      51.222   0.614   8.962  0.00  0.00    +0.000 S 
ATOM     18  O   UNL     1      51.759  -0.690   9.279  0.00  0.00    +0.000 OA
ATOM     19  O   UNL     1      51.180   1.118   7.611  0.00  0.00    +0.000 OA
BRANCH  17  20
ATOM     20  N   UNL     1      52.145   1.709   9.840  0.00  0.00    +0.000 NA
ATOM     21  H   UNL     1      53.037   1.283  10.092  0.00  0.00    +0.000 HD
ATOM     22  H   UNL     1      52.237   2.579   9.315  0.00  0.00    +0.000 HD
ENDBRANCH  17  20
ENDBRANCH  14  17
ENDBRANCH   9  11
BRANCH   1  23
ATOM     23  C   UNL     1      43.522  -2.963  12.240  0.00  0.00    +0.000 C 
ATOM     24  S   UNL     1      43.441  -3.889  13.648  0.00  0.00    +0.000 S 
BRANCH  23  25
ATOM     25  N   UNL     1      43.167  -3.403  10.959  0.00  0.00    +0.000 N 
ATOM     26  H   UNL     1      42.449  -2.850  10.479  0.00  0.00    +0.000 HD
BRANCH  25  27
ATOM     27  C   UNL     1      43.456  -4.633  10.311  0.00  0.00    +0.000 A 
ATOM     28  C   UNL     1      42.409  -5.252   9.619  0.00  0.00    +0.000 A 
ATOM     29  F   UNL     1      41.196  -4.674   9.611  0.00  0.00    +0.000 F 
ATOM     30  C   UNL     1      42.584  -6.456   8.943  0.00  0.00    +0.000 A 
ATOM     31  C   UNL     1      43.839  -7.055   8.930  0.00  0.00    +0.000 A 
ATOM     32  C   UNL     1      44.913  -6.427   9.554  0.00  0.00    +0.000 A 
ATOM     33  C   UNL     1      44.721  -5.222  10.231  0.00  0.00    +0.000 A 
ATOM     34  F   UNL     1      45.812  -4.571  10.657  0.00  0.00    +0.000 F 
ENDBRANCH  25  27
ENDBRANCH  23  25
ENDBRANCH   1  23
TORSDOF 6
ENDMDL
MODEL 6
REMARK VINA RESULT:      -7.1     34.462     36.619
REMARK  Name = Cdk12_Inhibitor.pdbqt.pdb
REMARK  6 active torsions:
REMARK  status: ('A' for Active; 'I' for Inactive)
REMARK    1  A    between atoms: N_1  and  C_23
REMARK    2  A    between atoms: N_9  and  C_11
REMARK    3  A    between atoms: C_14  and  S_17
REMARK    4  A    between atoms: S_17  and  N_20
REMARK    5  A    between atoms: C_23  and  N_25
REMARK    6  A    between atoms: N_25  and  C_27
REMARK                            x       y       z     vdW  Elec       q    Type
REMARK                         _______ _______ _______ _____ _____    ______ ____
ROOT
ATOM      1  N   UNL     1      22.839  21.633   2.658  0.00  0.00    +0.000 N 
ATOM      2  N   UNL     1      22.625  22.769   3.372  0.00  0.00    +0.000 NA
ATOM      3  N   UNL     1      24.755  22.740   2.592  0.00  0.00    +0.000 NA
ATOM      4  N   UNL     1      24.786  20.595   1.602  0.00  0.00    +0.000 N 
ATOM      5  C   UNL     1      23.784  23.413   3.276  0.00  0.00    +0.000 A 
ATOM      6  C   UNL     1      24.176  21.618   2.251  0.00  0.00    +0.000 A 
ATOM      7  H   UNL     1      24.643  19.662   1.991  0.00  0.00    +0.000 HD
ATOM      8  H   UNL     1      25.787  20.752   1.481  0.00  0.00    +0.000 HD
ATOM      9  N   UNL     1      24.125  24.616   3.768  0.00  0.00    +0.000 N 
ATOM     10  H   UNL     1      25.072  24.915   3.571  0.00  0.00    +0.000 HD
ENDROOT
BRANCH   9  11
ATOM     11  C   UNL     1      23.365  25.548   4.497  0.00  0.00    +0.000 A 
ATOM     12  C   UNL     1      22.371  26.282   3.837  0.00  0.00    +0.000 A 
ATOM     13  C   UNL     1      21.602  27.226   4.511  0.00  0.00    +0.000 A 
ATOM     14  C   UNL     1      21.842  27.452   5.860  0.00  0.00    +0.000 A 
ATOM     15  C   UNL     1      22.806  26.729   6.552  0.00  0.00    +0.000 A 
ATOM     16  C   UNL     1      23.568  25.790   5.862  0.00  0.00    +0.000 A 
BRANCH  14  17
ATOM     17  S   UNL     1      20.842  28.588   6.732  0.00  0.00    +0.000 S 
ATOM     18  O   UNL     1      19.749  27.879   7.358  0.00  0.00    +0.000 OA
ATOM     19  O   UNL     1      21.682  29.504   7.464  0.00  0.00    +0.000 OA
BRANCH  17  20
ATOM     20  N   UNL     1      20.148  29.482   5.490  0.00  0.00    +0.000 NA
ATOM     21  H   UNL     1      19.627  28.862   4.870  0.00  0.00    +0.000 HD
ATOM     22  H   UNL     1      19.587  30.238   5.884  0.00  0.00    +0.000 HD
ENDBRANCH  17  20
ENDBRANCH  14  17
ENDBRANCH   9  11
BRANCH   1  23
ATOM     23  C   UNL     1      21.779  20.709   2.425  0.00  0.00    +0.000 C 
ATOM     24  S   UNL     1      21.250  19.551   3.532  0.00  0.00    +0.000 S 
BRANCH  23  25
ATOM     25  N   UNL     1      21.165  21.001   1.201  0.00  0.00    +0.000 N 
ATOM     26  H   UNL     1      20.144  21.098   1.223  0.00  0.00    +0.000 HD
BRANCH  25  27
ATOM     27  C   UNL     1      21.696  20.939  -0.115  0.00  0.00    +0.000 A 
ATOM     28  C   UNL     1      21.993  22.156  -0.741  0.00  0.00    +0.000 A 
ATOM     29  F   UNL     1      21.756  23.305  -0.088  0.00  0.00    +0.000 F 
ATOM     30  C   UNL     1      22.524  22.211  -2.027  0.00  0.00    +0.000 A 
ATOM     31  C   UNL     1      22.790  21.027  -2.707  0.00  0.00    +0.000 A 
ATOM     32  C   UNL     1      22.565  19.804  -2.083  0.00  0.00    +0.000 A 
ATOM     33  C   UNL     1      22.030  19.765  -0.794  0.00  0.00    +0.000 A 
ATOM     34  F   UNL     1      22.002  18.578  -0.172  0.00  0.00    +0.000 F 
ENDBRANCH  25  27
ENDBRANCH  23  25
ENDBRANCH   1  23
TORSDOF 6
ENDMDL
MODEL 7
REMARK VINA RESULT:      -6.8     33.746     36.036
REMARK  Name = Cdk12_Inhibitor.pdbqt.pdb
REMARK  6 active torsions:
REMARK  status: ('A' for Active; 'I' for Inactive)
REMARK    1  A    between atoms: N_1  and  C_23
REMARK    2  A    between atoms: N_9  and  C_11
REMARK    3  A    between atoms: C_14  and  S_17
REMARK    4  A    between atoms: S_17  and  N_20
REMARK    5  A    between atoms: C_23  and  N_25
REMARK    6  A    between atoms: N_25  and  C_27
REMARK                            x       y       z     vdW  Elec       q    Type
REMARK                         _______ _______ _______ _____ _____    ______ ____
ROOT
ATOM      1  N   UNL     1      25.656  25.721   1.325  0.00  0.00    +0.000 N 
ATOM      2  N   UNL     1      24.972  24.558   1.483  0.00  0.00    +0.000 NA
ATOM      3  N   UNL     1      25.351  25.508   3.507  0.00  0.00    +0.000 NA
ATOM      4  N   UNL     1      26.680  27.346   2.840  0.00  0.00    +0.000 N 
ATOM      5  C   UNL     1      24.784  24.491   2.797  0.00  0.00    +0.000 A 
ATOM      6  C   UNL     1      25.928  26.244   2.592  0.00  0.00    +0.000 A 
ATOM      7  H   UNL     1      27.580  27.398   2.361  0.00  0.00    +0.000 HD
ATOM      8  H   UNL     1      26.829  27.498   3.838  0.00  0.00    +0.000 HD
ATOM      9  N   UNL     1      24.130  23.558   3.510  0.00  0.00    +0.000 N 
ATOM     10  H   UNL     1      24.109  23.709   4.510  0.00  0.00    +0.000 HD
ENDROOT
BRANCH   9  11
ATOM     11  C   UNL     1      23.440  22.408   3.085  0.00  0.00    +0.000 A 
ATOM     12  C   UNL     1      22.078  22.280   3.389  0.00  0.00    +0.000 A 
ATOM     13  C   UNL     1      21.355  21.155   3.004  0.00  0.00    +0.000 A 
ATOM     14  C   UNL     1      22.006  20.137   2.320  0.00  0.00    +0.000 A 
ATOM     15  C   UNL     1      23.351  20.239   1.984  0.00  0.00    +0.000 A 
ATOM     16  C   UNL     1      24.059  21.370   2.379  0.00  0.00    +0.000 A 
BRANCH  14  17
ATOM     17  S   UNL     1      21.095  18.749   1.775  0.00  0.00    +0.000 S 
ATOM     18  O   UNL     1      19.683  19.017   1.924  0.00  0.00    +0.000 OA
ATOM     19  O   UNL     1      21.658  18.261   0.540  0.00  0.00    +0.000 OA
BRANCH  17  20
ATOM     20  N   UNL     1      21.463  17.598   2.942  0.00  0.00    +0.000 NA
ATOM     21  H   UNL     1      21.687  16.711   2.492  0.00  0.00    +0.000 HD
ATOM     22  H   UNL     1      22.203  17.951   3.550  0.00  0.00    +0.000 HD
ENDBRANCH  17  20
ENDBRANCH  14  17
ENDBRANCH   9  11
BRANCH   1  23
ATOM     23  C   UNL     1      25.958  26.218   0.023  0.00  0.00    +0.000 C 
ATOM     24  S   UNL     1      24.937  27.197  -0.895  0.00  0.00    +0.000 S 
BRANCH  23  25
ATOM     25  N   UNL     1      27.275  25.879  -0.313  0.00  0.00    +0.000 N 
ATOM     26  H   UNL     1      28.007  26.294   0.274  0.00  0.00    +0.000 HD
BRANCH  25  27
ATOM     27  C   UNL     1      27.779  25.253  -1.484  0.00  0.00    +0.000 A 
ATOM     28  C   UNL     1      27.726  23.855  -1.534  0.00  0.00    +0.000 A 
ATOM     29  F   UNL     1      27.224  23.180  -0.488  0.00  0.00    +0.000 F 
ATOM     30  C   UNL     1      28.186  23.141  -2.637  0.00  0.00    +0.000 A 
ATOM     31  C   UNL     1      28.692  23.831  -3.733  0.00  0.00    +0.000 A 
ATOM     32  C   UNL     1      28.695  25.222  -3.736  0.00  0.00    +0.000 A 
ATOM     33  C   UNL     1      28.234  25.924  -2.622  0.00  0.00    +0.000 A 
ATOM     34  F   UNL     1      28.089  27.251  -2.743  0.00  0.00    +0.000 F 
ENDBRANCH  25  27
ENDBRANCH  23  25
ENDBRANCH   1  23
TORSDOF 6
ENDMDL
MODEL 8
REMARK VINA RESULT:      -6.8      5.085      8.425
REMARK  Name = Cdk12_Inhibitor.pdbqt.pdb
REMARK  6 active torsions:
REMARK  status: ('A' for Active; 'I' for Inactive)
REMARK    1  A    between atoms: N_1  and  C_23
REMARK    2  A    between atoms: N_9  and  C_11
REMARK    3  A    between atoms: C_14  and  S_17
REMARK    4  A    between atoms: S_17  and  N_20
REMARK    5  A    between atoms: C_23  and  N_25
REMARK    6  A    between atoms: N_25  and  C_27
REMARK                            x       y       z     vdW  Elec       q    Type
REMARK                         _______ _______ _______ _____ _____    ______ ____
ROOT
ATOM      1  N   UNL     1      48.792  -2.357  10.266  0.00  0.00    +0.000 N 
ATOM      2  N   UNL     1      47.668  -3.112  10.378  0.00  0.00    +0.000 NA
ATOM      3  N   UNL     1      49.270  -4.274   9.270  0.00  0.00    +0.000 NA
ATOM      4  N   UNL     1      50.939  -2.607   9.121  0.00  0.00    +0.000 N 
ATOM      5  C   UNL     1      48.013  -4.259   9.800  0.00  0.00    +0.000 A 
ATOM      6  C   UNL     1      49.731  -3.077   9.523  0.00  0.00    +0.000 A 
ATOM      7  H   UNL     1      50.944  -1.685   8.683  0.00  0.00    +0.000 HD
ATOM      8  H   UNL     1      51.428  -3.264   8.511  0.00  0.00    +0.000 HD
ATOM      9  N   UNL     1      47.290  -5.383   9.658  0.00  0.00    +0.000 N 
ATOM     10  H   UNL     1      47.758  -6.143   9.181  0.00  0.00    +0.000 HD
ENDROOT
BRANCH   9  11
ATOM     11  C   UNL     1      45.988  -5.687  10.092  0.00  0.00    +0.000 A 
ATOM     12  C   UNL     1      45.701  -5.649  11.463  0.00  0.00    +0.000 A 
ATOM     13  C   UNL     1      44.431  -5.956  11.944  0.00  0.00    +0.000 A 
ATOM     14  C   UNL     1      43.440  -6.322  11.044  0.00  0.00    +0.000 A 
ATOM     15  C   UNL     1      43.683  -6.352   9.676  0.00  0.00    +0.000 A 
ATOM     16  C   UNL     1      44.959  -6.044   9.212  0.00  0.00    +0.000 A 
BRANCH  14  17
ATOM     17  S   UNL     1      41.826  -6.648  11.629  0.00  0.00    +0.000 S 
ATOM     18  O   UNL     1      41.741  -8.027  12.049  0.00  0.00    +0.000 OA
ATOM     19  O   UNL     1      41.393  -5.560  12.472  0.00  0.00    +0.000 OA
BRANCH  17  20
ATOM     20  N   UNL     1      40.909  -6.545  10.225  0.00  0.00    +0.000 NA
ATOM     21  H   UNL     1      40.906  -7.448   9.750  0.00  0.00    +0.000 HD
ATOM     22  H   UNL     1      39.977  -6.195  10.450  0.00  0.00    +0.000 HD
ENDBRANCH  17  20
ENDBRANCH  14  17
ENDBRANCH   9  11
BRANCH   1  23
ATOM     23  C   UNL     1      48.867  -1.069  10.874  0.00  0.00    +0.000 C 
ATOM     24  S   UNL     1      50.121  -0.550  11.877  0.00  0.00    +0.000 S 
BRANCH  23  25
ATOM     25  N   UNL     1      47.819  -0.268  10.405  0.00  0.00    +0.000 N 
ATOM     26  H   UNL     1      47.891   0.037   9.429  0.00  0.00    +0.000 HD
BRANCH  25  27
ATOM     27  C   UNL     1      46.795   0.399  11.129  0.00  0.00    +0.000 A 
ATOM     28  C   UNL     1      47.038   1.725  11.504  0.00  0.00    +0.000 A 
ATOM     29  F   UNL     1      48.211   2.293  11.182  0.00  0.00    +0.000 F 
ATOM     30  C   UNL     1      46.100   2.474  12.209  0.00  0.00    +0.000 A 
ATOM     31  C   UNL     1      44.874   1.901  12.533  0.00  0.00    +0.000 A 
ATOM     32  C   UNL     1      44.582   0.607  12.115  0.00  0.00    +0.000 A 
ATOM     33  C   UNL     1      45.534  -0.132  11.411  0.00  0.00    +0.000 A 
ATOM     34  F   UNL     1      45.141  -1.297  10.877  0.00  0.00    +0.000 F 
ENDBRANCH  25  27
ENDBRANCH  23  25
ENDBRANCH   1  23
TORSDOF 6
ENDMDL
MODEL 9
REMARK VINA RESULT:      -6.8      5.387      9.102
REMARK  Name = Cdk12_Inhibitor.pdbqt.pdb
REMARK  6 active torsions:
REMARK  status: ('A' for Active; 'I' for Inactive)
REMARK    1  A    between atoms: N_1  and  C_23
REMARK    2  A    between atoms: N_9  and  C_11
REMARK    3  A    between atoms: C_14  and  S_17
REMARK    4  A    between atoms: S_17  and  N_20
REMARK    5  A    between atoms: C_23  and  N_25
REMARK    6  A    between atoms: N_25  and  C_27
REMARK                            x       y       z     vdW  Elec       q    Type
REMARK                         _______ _______ _______ _____ _____    ______ ____
ROOT
ATOM      1  N   UNL     1      48.257   0.800  10.632  0.00  0.00    +0.000 N 
ATOM      2  N   UNL     1      47.321  -0.074  11.084  0.00  0.00    +0.000 NA
ATOM      3  N   UNL     1      47.575  -0.311   8.842  0.00  0.00    +0.000 NA
ATOM      4  N   UNL     1      49.095   1.452   8.427  0.00  0.00    +0.000 N 
ATOM      5  C   UNL     1      46.968  -0.738   9.987  0.00  0.00    +0.000 A 
ATOM      6  C   UNL     1      48.340   0.672   9.242  0.00  0.00    +0.000 A 
ATOM      7  H   UNL     1      49.026   2.460   8.572  0.00  0.00    +0.000 HD
ATOM      8  H   UNL     1      48.937   1.249   7.440  0.00  0.00    +0.000 HD
ATOM      9  N   UNL     1      46.094  -1.751   9.857  0.00  0.00    +0.000 N 
ATOM     10  H   UNL     1      45.981  -2.110   8.918  0.00  0.00    +0.000 HD
ENDROOT
BRANCH   9  11
ATOM     11  C   UNL     1      45.324  -2.416  10.827  0.00  0.00    +0.000 A 
ATOM     12  C   UNL     1      44.278  -1.727  11.456  0.00  0.00    +0.000 A 
ATOM     13  C   UNL     1      43.496  -2.336  12.433  0.00  0.00    +0.000 A 
ATOM     14  C   UNL     1      43.774  -3.647  12.798  0.00  0.00    +0.000 A 
ATOM     15  C   UNL     1      44.790  -4.367  12.181  0.00  0.00    +0.000 A 
ATOM     16  C   UNL     1      45.564  -3.742  11.208  0.00  0.00    +0.000 A 
BRANCH  14  17
ATOM     17  S   UNL     1      42.760  -4.444  13.976  0.00  0.00    +0.000 S 
ATOM     18  O   UNL     1      41.747  -5.213  13.291  0.00  0.00    +0.000 OA
ATOM     19  O   UNL     1      43.586  -5.014  15.013  0.00  0.00    +0.000 OA
BRANCH  17  20
ATOM     20  N   UNL     1      41.949  -3.154  14.682  0.00  0.00    +0.000 NA
ATOM     21  H   UNL     1      42.509  -2.770  15.443  0.00  0.00    +0.000 HD
ATOM     22  H   UNL     1      41.704  -2.469  13.965  0.00  0.00    +0.000 HD
ENDBRANCH  17  20
ENDBRANCH  14  17
ENDBRANCH   9  11
BRANCH   1  23
ATOM     23  C   UNL     1      48.973   1.634  11.539  0.00  0.00    +0.000 C 
ATOM     24  S   UNL     1      50.610   1.468  11.912  0.00  0.00    +0.000 S 
BRANCH  23  25
ATOM     25  N   UNL     1      48.147   2.682  11.964  0.00  0.00    +0.000 N 
ATOM     26  H   UNL     1      48.310   3.590  11.516  0.00  0.00    +0.000 HD
BRANCH  25  27
ATOM     27  C   UNL     1      47.286   2.756  13.091  0.00  0.00    +0.000 A 
ATOM     28  C   UNL     1      47.854   3.162  14.303  0.00  0.00    +0.000 A 
ATOM     29  F   UNL     1      49.166   3.444  14.351  0.00  0.00    +0.000 F 
ATOM     30  C   UNL     1      47.100   3.276  15.468  0.00  0.00    +0.000 A 
ATOM     31  C   UNL     1      45.737   3.003  15.427  0.00  0.00    +0.000 A 
ATOM     32  C   UNL     1      45.134   2.662  14.220  0.00  0.00    +0.000 A 
ATOM     33  C   UNL     1      45.904   2.549  13.062  0.00  0.00    +0.000 A 
ATOM     34  F   UNL     1      45.254   2.396  11.900  0.00  0.00    +0.000 F 
ENDBRANCH  25  27
ENDBRANCH  23  25
ENDBRANCH   1  23
TORSDOF 6
ENDMDL
