MODEL 1
REMARK VINA RESULT:      -7.8      0.000      0.000
REMARK  Name = CHEMBL35349.pdbqt.pdb
REMARK  2 active torsions:
REMARK  status: ('A' for Active; 'I' for Inactive)
REMARK    1  A    between atoms: C_2  and  C_11
REMARK    2  A    between atoms: C_5  and  O_21
REMARK                            x       y       z     vdW  Elec       q    Type
REMARK                         _______ _______ _______ _____ _____    ______ ____
ROOT
ATOM      1  N   UNL     1      42.788  -0.447  14.229  0.00  0.00    +0.000 N 
ATOM      2  C   UNL     1      43.424  -1.962  12.717  0.00  0.00    +0.000 A 
ATOM      3  C   UNL     1      44.138  -0.735  12.489  0.00  0.00    +0.000 A 
ATOM      4  C   UNL     1      43.719   0.186  13.447  0.00  0.00    +0.000 A 
ATOM      5  C   UNL     1      42.596  -1.736  13.808  0.00  0.00    +0.000 A 
ATOM      6  C   UNL     1      45.106  -0.323  11.552  0.00  0.00    +0.000 A 
ATOM      7  C   UNL     1      44.210   1.494  13.521  0.00  0.00    +0.000 A 
ATOM      8  C   UNL     1      45.612   0.977  11.607  0.00  0.00    +0.000 A 
ATOM      9  C   UNL     1      45.168   1.867  12.578  0.00  0.00    +0.000 A 
ATOM     10  H   UNL     1      42.302  -0.033  15.011  0.00  0.00    +0.000 HD
ENDROOT
BRANCH   2  11
ATOM     11  C   UNL     1      43.544  -3.188  11.960  0.00  0.00    +0.000 C 
ATOM     12  N   UNL     1      42.706  -3.510  11.009  0.00  0.00    +0.000 NA
ATOM     13  C   UNL     1      43.134  -4.754  10.505  0.00  0.00    +0.000 A 
ATOM     14  C   UNL     1      44.269  -5.259  11.134  0.00  0.00    +0.000 A 
ATOM     15  C   UNL     1      42.544  -5.478   9.486  0.00  0.00    +0.000 A 
ATOM     16  C   UNL     1      44.612  -4.264  12.130  0.00  0.00    +0.000 C 
ATOM     17  C   UNL     1      44.867  -6.457  10.810  0.00  0.00    +0.000 A 
ATOM     18  O   UNL     1      45.523  -4.256  12.925  0.00  0.00    +0.000 OA
ATOM     19  C   UNL     1      44.269  -7.183   9.783  0.00  0.00    +0.000 A 
ATOM     20  C   UNL     1      43.121  -6.701   9.128  0.00  0.00    +0.000 A 
ENDBRANCH   2  11
BRANCH   5  21
ATOM     21  O   UNL     1      41.718  -2.475  14.475  0.00  0.00    +0.000 OA
ATOM     22  H   UNL     1      40.801  -2.184  14.265  0.00  0.00    +0.000 HD
ENDBRANCH   5  21
TORSDOF 2
ENDMDL
MODEL 2
REMARK VINA RESULT:      -7.4      3.168      4.996
REMARK  Name = CHEMBL35349.pdbqt.pdb
REMARK  2 active torsions:
REMARK  status: ('A' for Active; 'I' for Inactive)
REMARK    1  A    between atoms: C_2  and  C_11
REMARK    2  A    between atoms: C_5  and  O_21
REMARK                            x       y       z     vdW  Elec       q    Type
REMARK                         _______ _______ _______ _____ _____    ______ ____
ROOT
ATOM      1  N   UNL     1      42.494  -6.020  12.782  0.00  0.00    +0.000 N 
ATOM      2  C   UNL     1      43.957  -6.369  11.131  0.00  0.00    +0.000 A 
ATOM      3  C   UNL     1      44.162  -5.054  11.677  0.00  0.00    +0.000 A 
ATOM      4  C   UNL     1      43.235  -4.870  12.701  0.00  0.00    +0.000 A 
ATOM      5  C   UNL     1      42.911  -6.932  11.849  0.00  0.00    +0.000 A 
ATOM      6  C   UNL     1      45.053  -4.002  11.391  0.00  0.00    +0.000 A 
ATOM      7  C   UNL     1      43.148  -3.695  13.455  0.00  0.00    +0.000 A 
ATOM      8  C   UNL     1      44.986  -2.819  12.131  0.00  0.00    +0.000 A 
ATOM      9  C   UNL     1      44.047  -2.673  13.145  0.00  0.00    +0.000 A 
ATOM     10  H   UNL     1      41.741  -6.187  13.433  0.00  0.00    +0.000 HD
ENDROOT
BRANCH   2  11
ATOM     11  C   UNL     1      44.695  -6.983  10.051  0.00  0.00    +0.000 C 
ATOM     12  N   UNL     1      45.959  -7.303  10.157  0.00  0.00    +0.000 NA
ATOM     13  C   UNL     1      46.332  -7.871   8.921  0.00  0.00    +0.000 A 
ATOM     14  C   UNL     1      45.299  -7.925   7.989  0.00  0.00    +0.000 A 
ATOM     15  C   UNL     1      47.581  -8.354   8.580  0.00  0.00    +0.000 A 
ATOM     16  C   UNL     1      44.158  -7.346   8.669  0.00  0.00    +0.000 C 
ATOM     17  C   UNL     1      45.428  -8.437   6.717  0.00  0.00    +0.000 A 
ATOM     18  O   UNL     1      43.030  -7.175   8.267  0.00  0.00    +0.000 OA
ATOM     19  C   UNL     1      46.690  -8.923   6.378  0.00  0.00    +0.000 A 
ATOM     20  C   UNL     1      47.753  -8.882   7.296  0.00  0.00    +0.000 A 
ENDBRANCH   2  11
BRANCH   5  21
ATOM     21  O   UNL     1      42.282  -8.100  11.809  0.00  0.00    +0.000 OA
ATOM     22  H   UNL     1      42.911  -8.831  12.005  0.00  0.00    +0.000 HD
ENDBRANCH   5  21
TORSDOF 2
ENDMDL
MODEL 3
REMARK VINA RESULT:      -7.3     31.822     33.552
REMARK  Name = CHEMBL35349.pdbqt.pdb
REMARK  2 active torsions:
REMARK  status: ('A' for Active; 'I' for Inactive)
REMARK    1  A    between atoms: C_2  and  C_11
REMARK    2  A    between atoms: C_5  and  O_21
REMARK                            x       y       z     vdW  Elec       q    Type
REMARK                         _______ _______ _______ _____ _____    ______ ____
ROOT
ATOM      1  N   UNL     1      20.429  17.964   5.045  0.00  0.00    +0.000 N 
ATOM      2  C   UNL     1      20.803  18.776   2.998  0.00  0.00    +0.000 A 
ATOM      3  C   UNL     1      19.385  18.672   3.217  0.00  0.00    +0.000 A 
ATOM      4  C   UNL     1      19.188  18.163   4.499  0.00  0.00    +0.000 A 
ATOM      5  C   UNL     1      21.411  18.325   4.161  0.00  0.00    +0.000 A 
ATOM      6  C   UNL     1      18.248  18.965   2.437  0.00  0.00    +0.000 A 
ATOM      7  C   UNL     1      17.921  17.930   5.046  0.00  0.00    +0.000 A 
ATOM      8  C   UNL     1      16.974  18.742   2.962  0.00  0.00    +0.000 A 
ATOM      9  C   UNL     1      16.819  18.232   4.246  0.00  0.00    +0.000 A 
ATOM     10  H   UNL     1      20.611  17.601   5.969  0.00  0.00    +0.000 HD
ENDROOT
BRANCH   2  11
ATOM     11  C   UNL     1      21.462  19.256   1.805  0.00  0.00    +0.000 C 
ATOM     12  N   UNL     1      21.077  18.911   0.604  0.00  0.00    +0.000 NA
ATOM     13  C   UNL     1      21.944  19.565  -0.295  0.00  0.00    +0.000 A 
ATOM     14  C   UNL     1      22.913  20.350   0.323  0.00  0.00    +0.000 A 
ATOM     15  C   UNL     1      21.909  19.491  -1.675  0.00  0.00    +0.000 A 
ATOM     16  C   UNL     1      22.661  20.199   1.742  0.00  0.00    +0.000 C 
ATOM     17  C   UNL     1      23.867  21.080  -0.352  0.00  0.00    +0.000 A 
ATOM     18  O   UNL     1      23.242  20.689   2.681  0.00  0.00    +0.000 OA
ATOM     19  C   UNL     1      23.828  21.001  -1.743  0.00  0.00    +0.000 A 
ATOM     20  C   UNL     1      22.862  20.217  -2.398  0.00  0.00    +0.000 A 
ENDBRANCH   2  11
BRANCH   5  21
ATOM     21  O   UNL     1      22.672  18.186   4.554  0.00  0.00    +0.000 OA
ATOM     22  H   UNL     1      22.922  17.234   4.561  0.00  0.00    +0.000 HD
ENDBRANCH   5  21
TORSDOF 2
ENDMDL
MODEL 4
REMARK VINA RESULT:      -6.9     32.225     33.788
REMARK  Name = CHEMBL35349.pdbqt.pdb
REMARK  2 active torsions:
REMARK  status: ('A' for Active; 'I' for Inactive)
REMARK    1  A    between atoms: C_2  and  C_11
REMARK    2  A    between atoms: C_5  and  O_21
REMARK                            x       y       z     vdW  Elec       q    Type
REMARK                         _______ _______ _______ _____ _____    ______ ____
ROOT
ATOM      1  N   UNL     1      25.105  22.273   1.189  0.00  0.00    +0.000 N 
ATOM      2  C   UNL     1      23.212  21.232   1.755  0.00  0.00    +0.000 A 
ATOM      3  C   UNL     1      23.288  21.336   0.322  0.00  0.00    +0.000 A 
ATOM      4  C   UNL     1      24.477  21.989   0.005  0.00  0.00    +0.000 A 
ATOM      5  C   UNL     1      24.363  21.828   2.251  0.00  0.00    +0.000 A 
ATOM      6  C   UNL     1      22.449  20.933  -0.736  0.00  0.00    +0.000 A 
ATOM      7  C   UNL     1      24.876  22.262  -1.308  0.00  0.00    +0.000 A 
ATOM      8  C   UNL     1      22.827  21.193  -2.054  0.00  0.00    +0.000 A 
ATOM      9  C   UNL     1      24.022  21.848  -2.331  0.00  0.00    +0.000 A 
ATOM     10  H   UNL     1      25.992  22.746   1.283  0.00  0.00    +0.000 HD
ENDROOT
BRANCH   2  11
ATOM     11  C   UNL     1      22.149  20.627   2.525  0.00  0.00    +0.000 C 
ATOM     12  N   UNL     1      22.277  19.460   3.101  0.00  0.00    +0.000 NA
ATOM     13  C   UNL     1      21.054  19.201   3.752  0.00  0.00    +0.000 A 
ATOM     14  C   UNL     1      20.108  20.212   3.602  0.00  0.00    +0.000 A 
ATOM     15  C   UNL     1      20.735  18.077   4.491  0.00  0.00    +0.000 A 
ATOM     16  C   UNL     1      20.765  21.213   2.787  0.00  0.00    +0.000 C 
ATOM     17  C   UNL     1      18.843  20.178   4.148  0.00  0.00    +0.000 A 
ATOM     18  O   UNL     1      20.344  22.275   2.389  0.00  0.00    +0.000 OA
ATOM     19  C   UNL     1      18.527  19.043   4.892  0.00  0.00    +0.000 A 
ATOM     20  C   UNL     1      19.460  18.005   5.062  0.00  0.00    +0.000 A 
ENDBRANCH   2  11
BRANCH   5  21
ATOM     21  O   UNL     1      24.849  22.035   3.469  0.00  0.00    +0.000 OA
ATOM     22  H   UNL     1      25.455  21.301   3.721  0.00  0.00    +0.000 HD
ENDBRANCH   5  21
TORSDOF 2
ENDMDL
MODEL 5
REMARK VINA RESULT:      -6.9     32.289     33.811
REMARK  Name = CHEMBL35349.pdbqt.pdb
REMARK  2 active torsions:
REMARK  status: ('A' for Active; 'I' for Inactive)
REMARK    1  A    between atoms: C_2  and  C_11
REMARK    2  A    between atoms: C_5  and  O_21
REMARK                            x       y       z     vdW  Elec       q    Type
REMARK                         _______ _______ _______ _____ _____    ______ ____
ROOT
ATOM      1  N   UNL     1      25.391  22.667   1.390  0.00  0.00    +0.000 N 
ATOM      2  C   UNL     1      23.538  21.912   2.380  0.00  0.00    +0.000 A 
ATOM      3  C   UNL     1      23.895  23.185   2.948  0.00  0.00    +0.000 A 
ATOM      4  C   UNL     1      25.052  23.626   2.309  0.00  0.00    +0.000 A 
ATOM      5  C   UNL     1      24.496  21.631   1.417  0.00  0.00    +0.000 A 
ATOM      6  C   UNL     1      23.337  24.003   3.950  0.00  0.00    +0.000 A 
ATOM      7  C   UNL     1      25.683  24.836   2.615  0.00  0.00    +0.000 A 
ATOM      8  C   UNL     1      23.949  25.216   4.271  0.00  0.00    +0.000 A 
ATOM      9  C   UNL     1      25.103  25.622   3.611  0.00  0.00    +0.000 A 
ATOM     10  H   UNL     1      26.188  22.706   0.771  0.00  0.00    +0.000 HD
ENDROOT
BRANCH   2  11
ATOM     11  C   UNL     1      22.406  21.090   2.742  0.00  0.00    +0.000 C 
ATOM     12  N   UNL     1      22.541  19.930   3.333  0.00  0.00    +0.000 NA
ATOM     13  C   UNL     1      21.239  19.427   3.526  0.00  0.00    +0.000 A 
ATOM     14  C   UNL     1      20.232  20.266   3.054  0.00  0.00    +0.000 A 
ATOM     15  C   UNL     1      20.899  18.224   4.117  0.00  0.00    +0.000 A 
ATOM     16  C   UNL     1      20.932  21.412   2.510  0.00  0.00    +0.000 C 
ATOM     17  C   UNL     1      18.886  19.983   3.134  0.00  0.00    +0.000 A 
ATOM     18  O   UNL     1      20.486  22.406   1.986  0.00  0.00    +0.000 OA
ATOM     19  C   UNL     1      18.549  18.770   3.730  0.00  0.00    +0.000 A 
ATOM     20  C   UNL     1      19.542  17.900   4.215  0.00  0.00    +0.000 A 
ENDBRANCH   2  11
BRANCH   5  21
ATOM     21  O   UNL     1      24.698  20.624   0.575  0.00  0.00    +0.000 OA
ATOM     22  H   UNL     1      24.394  20.871  -0.328  0.00  0.00    +0.000 HD
ENDBRANCH   5  21
TORSDOF 2
ENDMDL
MODEL 6
REMARK VINA RESULT:      -6.8     32.843     34.747
REMARK  Name = CHEMBL35349.pdbqt.pdb
REMARK  2 active torsions:
REMARK  status: ('A' for Active; 'I' for Inactive)
REMARK    1  A    between atoms: C_2  and  C_11
REMARK    2  A    between atoms: C_5  and  O_21
REMARK                            x       y       z     vdW  Elec       q    Type
REMARK                         _______ _______ _______ _____ _____    ______ ____
ROOT
ATOM      1  N   UNL     1      23.496  20.227   1.446  0.00  0.00    +0.000 N 
ATOM      2  C   UNL     1      23.258  22.061   2.697  0.00  0.00    +0.000 A 
ATOM      3  C   UNL     1      22.083  21.242   2.827  0.00  0.00    +0.000 A 
ATOM      4  C   UNL     1      22.264  20.109   2.036  0.00  0.00    +0.000 A 
ATOM      5  C   UNL     1      24.108  21.390   1.829  0.00  0.00    +0.000 A 
ATOM      6  C   UNL     1      20.878  21.363   3.548  0.00  0.00    +0.000 A 
ATOM      7  C   UNL     1      21.311  19.092   1.923  0.00  0.00    +0.000 A 
ATOM      8  C   UNL     1      19.913  20.359   3.452  0.00  0.00    +0.000 A 
ATOM      9  C   UNL     1      20.130  19.243   2.651  0.00  0.00    +0.000 A 
ATOM     10  H   UNL     1      23.908  19.556   0.814  0.00  0.00    +0.000 HD
ENDROOT
BRANCH   2  11
ATOM     11  C   UNL     1      23.505  23.331   3.342  0.00  0.00    +0.000 C 
ATOM     12  N   UNL     1      22.998  23.635   4.509  0.00  0.00    +0.000 NA
ATOM     13  C   UNL     1      23.451  24.935   4.813  0.00  0.00    +0.000 A 
ATOM     14  C   UNL     1      24.267  25.494   3.833  0.00  0.00    +0.000 A 
ATOM     15  C   UNL     1      23.162  25.663   5.952  0.00  0.00    +0.000 A 
ATOM     16  C   UNL     1      24.356  24.477   2.804  0.00  0.00    +0.000 C 
ATOM     17  C   UNL     1      24.825  26.751   3.912  0.00  0.00    +0.000 A 
ATOM     18  O   UNL     1      24.954  24.500   1.754  0.00  0.00    +0.000 OA
ATOM     19  C   UNL     1      24.530  27.480   5.063  0.00  0.00    +0.000 A 
ATOM     20  C   UNL     1      23.709  26.945   6.070  0.00  0.00    +0.000 A 
ENDBRANCH   2  11
BRANCH   5  21
ATOM     21  O   UNL     1      25.315  21.640   1.335  0.00  0.00    +0.000 OA
ATOM     22  H   UNL     1      25.656  22.493   1.687  0.00  0.00    +0.000 HD
ENDBRANCH   5  21
TORSDOF 2
ENDMDL
MODEL 7
REMARK VINA RESULT:      -6.7      4.844      7.455
REMARK  Name = CHEMBL35349.pdbqt.pdb
REMARK  2 active torsions:
REMARK  status: ('A' for Active; 'I' for Inactive)
REMARK    1  A    between atoms: C_2  and  C_11
REMARK    2  A    between atoms: C_5  and  O_21
REMARK                            x       y       z     vdW  Elec       q    Type
REMARK                         _______ _______ _______ _____ _____    ______ ____
ROOT
ATOM      1  N   UNL     1      43.692  -6.193   9.774  0.00  0.00    +0.000 N 
ATOM      2  C   UNL     1      45.089  -7.455   8.574  0.00  0.00    +0.000 A 
ATOM      3  C   UNL     1      45.800  -6.885   9.687  0.00  0.00    +0.000 A 
ATOM      4  C   UNL     1      44.901  -6.106  10.412  0.00  0.00    +0.000 A 
ATOM      5  C   UNL     1      43.783  -6.997   8.669  0.00  0.00    +0.000 A 
ATOM      6  C   UNL     1      47.131  -6.962  10.143  0.00  0.00    +0.000 A 
ATOM      7  C   UNL     1      45.256  -5.399  11.567  0.00  0.00    +0.000 A 
ATOM      8  C   UNL     1      47.508  -6.266  11.294  0.00  0.00    +0.000 A 
ATOM      9  C   UNL     1      46.582  -5.499  11.991  0.00  0.00    +0.000 A 
ATOM     10  H   UNL     1      42.841  -5.734  10.066  0.00  0.00    +0.000 HD
ENDROOT
BRANCH   2  11
ATOM     11  C   UNL     1      45.628  -8.331   7.558  0.00  0.00    +0.000 C 
ATOM     12  N   UNL     1      46.897  -8.337   7.239  0.00  0.00    +0.000 NA
ATOM     13  C   UNL     1      47.048  -9.306   6.226  0.00  0.00    +0.000 A 
ATOM     14  C   UNL     1      45.862  -9.945   5.874  0.00  0.00    +0.000 A 
ATOM     15  C   UNL     1      48.223  -9.653   5.586  0.00  0.00    +0.000 A 
ATOM     16  C   UNL     1      44.853  -9.347   6.725  0.00  0.00    +0.000 C 
ATOM     17  C   UNL     1      45.766 -10.925   4.910  0.00  0.00    +0.000 A 
ATOM     18  O   UNL     1      43.668  -9.575   6.786  0.00  0.00    +0.000 OA
ATOM     19  C   UNL     1      46.953 -11.271   4.268  0.00  0.00    +0.000 A 
ATOM     20  C   UNL     1      48.167 -10.644   4.600  0.00  0.00    +0.000 A 
ENDBRANCH   2  11
BRANCH   5  21
ATOM     21  O   UNL     1      42.682  -7.176   7.948  0.00  0.00    +0.000 OA
ATOM     22  H   UNL     1      42.889  -7.094   6.989  0.00  0.00    +0.000 HD
ENDBRANCH   5  21
TORSDOF 2
ENDMDL
MODEL 8
REMARK VINA RESULT:      -6.5     20.933     23.218
REMARK  Name = CHEMBL35349.pdbqt.pdb
REMARK  2 active torsions:
REMARK  status: ('A' for Active; 'I' for Inactive)
REMARK    1  A    between atoms: C_2  and  C_11
REMARK    2  A    between atoms: C_5  and  O_21
REMARK                            x       y       z     vdW  Elec       q    Type
REMARK                         _______ _______ _______ _____ _____    ______ ____
ROOT
ATOM      1  N   UNL     1      28.403  -2.718  31.834  0.00  0.00    +0.000 N 
ATOM      2  C   UNL     1      28.163  -2.815  29.616  0.00  0.00    +0.000 A 
ATOM      3  C   UNL     1      27.110  -2.009  30.173  0.00  0.00    +0.000 A 
ATOM      4  C   UNL     1      27.289  -1.970  31.554  0.00  0.00    +0.000 A 
ATOM      5  C   UNL     1      28.941  -3.234  30.686  0.00  0.00    +0.000 A 
ATOM      6  C   UNL     1      26.017  -1.309  29.625  0.00  0.00    +0.000 A 
ATOM      7  C   UNL     1      26.440  -1.271  32.419  0.00  0.00    +0.000 A 
ATOM      8  C   UNL     1      25.156  -0.603  30.469  0.00  0.00    +0.000 A 
ATOM      9  C   UNL     1      25.369  -0.588  31.842  0.00  0.00    +0.000 A 
ATOM     10  H   UNL     1      28.786  -2.877  32.755  0.00  0.00    +0.000 HD
ENDROOT
BRANCH   2  11
ATOM     11  C   UNL     1      28.369  -3.127  28.220  0.00  0.00    +0.000 C 
ATOM     12  N   UNL     1      29.472  -2.819  27.588  0.00  0.00    +0.000 NA
ATOM     13  C   UNL     1      29.312  -3.274  26.263  0.00  0.00    +0.000 A 
ATOM     14  C   UNL     1      28.087  -3.889  26.020  0.00  0.00    +0.000 A 
ATOM     15  C   UNL     1      30.231  -3.162  25.237  0.00  0.00    +0.000 A 
ATOM     16  C   UNL     1      27.388  -3.833  27.288  0.00  0.00    +0.000 C 
ATOM     17  C   UNL     1      27.708  -4.409  24.802  0.00  0.00    +0.000 A 
ATOM     18  O   UNL     1      26.286  -4.239  27.575  0.00  0.00    +0.000 OA
ATOM     19  C   UNL     1      28.638  -4.293  23.771  0.00  0.00    +0.000 A 
ATOM     20  C   UNL     1      29.884  -3.678  23.984  0.00  0.00    +0.000 A 
ENDBRANCH   2  11
BRANCH   5  21
ATOM     21  O   UNL     1      30.031  -3.984  30.802  0.00  0.00    +0.000 OA
ATOM     22  H   UNL     1      30.402  -4.184  29.913  0.00  0.00    +0.000 HD
ENDBRANCH   5  21
TORSDOF 2
ENDMDL
MODEL 9
REMARK VINA RESULT:      -6.3     33.242     35.841
REMARK  Name = CHEMBL35349.pdbqt.pdb
REMARK  2 active torsions:
REMARK  status: ('A' for Active; 'I' for Inactive)
REMARK    1  A    between atoms: C_2  and  C_11
REMARK    2  A    between atoms: C_5  and  O_21
REMARK                            x       y       z     vdW  Elec       q    Type
REMARK                         _______ _______ _______ _____ _____    ______ ____
ROOT
ATOM      1  N   UNL     1      25.076  22.506   2.147  0.00  0.00    +0.000 N 
ATOM      2  C   UNL     1      23.671  23.880   3.208  0.00  0.00    +0.000 A 
ATOM      3  C   UNL     1      23.056  22.588   3.067  0.00  0.00    +0.000 A 
ATOM      4  C   UNL     1      23.956  21.757   2.403  0.00  0.00    +0.000 A 
ATOM      5  C   UNL     1      24.925  23.782   2.621  0.00  0.00    +0.000 A 
ATOM      6  C   UNL     1      21.810  22.048   3.446  0.00  0.00    +0.000 A 
ATOM      7  C   UNL     1      23.684  20.420   2.096  0.00  0.00    +0.000 A 
ATOM      8  C   UNL     1      21.516  20.716   3.150  0.00  0.00    +0.000 A 
ATOM      9  C   UNL     1      22.441  19.919   2.486  0.00  0.00    +0.000 A 
ATOM     10  H   UNL     1      25.905  22.176   1.675  0.00  0.00    +0.000 HD
ENDROOT
BRANCH   2  11
ATOM     11  C   UNL     1      23.098  25.049   3.835  0.00  0.00    +0.000 C 
ATOM     12  N   UNL     1      22.336  25.891   3.186  0.00  0.00    +0.000 NA
ATOM     13  C   UNL     1      21.968  26.890   4.111  0.00  0.00    +0.000 A 
ATOM     14  C   UNL     1      22.496  26.703   5.385  0.00  0.00    +0.000 A 
ATOM     15  C   UNL     1      21.165  27.987   3.862  0.00  0.00    +0.000 A 
ATOM     16  C   UNL     1      23.271  25.483   5.288  0.00  0.00    +0.000 C 
ATOM     17  C   UNL     1      22.274  27.550   6.449  0.00  0.00    +0.000 A 
ATOM     18  O   UNL     1      23.917  24.914   6.138  0.00  0.00    +0.000 OA
ATOM     19  C   UNL     1      21.463  28.654   6.194  0.00  0.00    +0.000 A 
ATOM     20  C   UNL     1      20.915  28.872   4.917  0.00  0.00    +0.000 A 
ENDBRANCH   2  11
BRANCH   5  21
ATOM     21  O   UNL     1      25.935  24.625   2.444  0.00  0.00    +0.000 OA
ATOM     22  H   UNL     1      25.691  25.520   2.775  0.00  0.00    +0.000 HD
ENDBRANCH   5  21
TORSDOF 2
ENDMDL
