MODEL 1
REMARK VINA RESULT:      -7.2      0.000      0.000
REMARK  Name = Chlortetracycline.pdbqt.pdb
REMARK  7 active torsions:
REMARK  status: ('A' for Active; 'I' for Inactive)
REMARK    1  A    between atoms: C_7  and  O_30
REMARK    2  A    between atoms: C_8  and  N_32
REMARK    3  A    between atoms: C_9  and  O_37
REMARK    4  A    between atoms: C_12  and  O_28
REMARK    5  A    between atoms: C_15  and  O_35
REMARK    6  A    between atoms: C_16  and  C_23
REMARK    7  A    between atoms: C_20  and  O_39
REMARK                            x       y       z     vdW  Elec       q    Type
REMARK                         _______ _______ _______ _____ _____    ______ ____
ROOT
ATOM      1 CL   UNL     1      23.112  -2.503  32.912  0.00  0.00    +0.000 Cl
ATOM      2  O   UNL     1      29.293  -2.181  28.116  0.00  0.00    +0.000 OA
ATOM      3  O   UNL     1      25.112  -5.919  25.560  0.00  0.00    +0.000 OA
ATOM      4  C   UNL     1      27.389  -5.390  28.089  0.00  0.00    +0.000 C 
ATOM      5  C   UNL     1      26.327  -3.602  29.713  0.00  0.00    +0.000 C 
ATOM      6  C   UNL     1      26.569  -4.848  29.100  0.00  0.00    +0.000 C 
ATOM      7  C   UNL     1      28.355  -4.382  27.514  0.00  0.00    +0.000 C 
ATOM      8  C   UNL     1      26.825  -6.342  27.148  0.00  0.00    +0.000 C 
ATOM      9  C   UNL     1      25.464  -3.328  30.913  0.00  0.00    +0.000 C 
ATOM     10  C   UNL     1      27.200  -2.572  29.192  0.00  0.00    +0.000 C 
ATOM     11  C   UNL     1      28.353  -2.972  28.275  0.00  0.00    +0.000 C 
ATOM     12  C   UNL     1      28.114  -4.096  26.029  0.00  0.00    +0.000 C 
ATOM     13  C   UNL     1      25.109  -1.859  31.085  0.00  0.00    +0.000 A 
ATOM     14  C   UNL     1      26.259  -5.706  25.926  0.00  0.00    +0.000 C 
ATOM     15  C   UNL     1      27.018  -1.284  29.536  0.00  0.00    +0.000 C 
ATOM     16  C   UNL     1      27.141  -4.677  25.289  0.00  0.00    +0.000 C 
ATOM     17  C   UNL     1      25.857  -0.867  30.380  0.00  0.00    +0.000 A 
ATOM     18  C   UNL     1      26.179  -3.888  32.160  0.00  0.00    +0.000 C 
ATOM     19  C   UNL     1      24.059  -1.436  31.934  0.00  0.00    +0.000 A 
ATOM     20  C   UNL     1      25.463   0.484  30.508  0.00  0.00    +0.000 A 
ATOM     21  C   UNL     1      23.724  -0.091  32.059  0.00  0.00    +0.000 A 
ATOM     22  C   UNL     1      24.412   0.866  31.338  0.00  0.00    +0.000 A 
ENDROOT
BRANCH  16  23
ATOM     23  C   UNL     1      26.967  -4.413  23.832  0.00  0.00    +0.000 C 
ATOM     24  O   UNL     1      27.048  -3.287  23.361  0.00  0.00    +0.000 OA
ATOM     25  N   UNL     1      26.695  -5.484  23.038  0.00  0.00    +0.000 N 
ATOM     26  H   UNL     1      26.353  -6.347  23.448  0.00  0.00    +0.000 HD
ATOM     27  H   UNL     1      26.461  -5.290  22.074  0.00  0.00    +0.000 HD
ENDBRANCH  16  23
BRANCH   8  28
ATOM     28  N   UNL     1      27.294  -7.701  27.078  0.00  0.00    +0.000 NA
ATOM     29  C   UNL     1      28.196  -8.073  28.158  0.00  0.00    +0.000 C 
ATOM     30  C   UNL     1      26.232  -8.685  27.023  0.00  0.00    +0.000 C 
ENDBRANCH   8  28
BRANCH  12  31
ATOM     31  O   UNL     1      29.033  -3.227  25.435  0.00  0.00    +0.000 OA
ATOM     32  H   UNL     1      29.561  -3.736  24.777  0.00  0.00    +0.000 HD
ENDBRANCH  12  31
BRANCH   7  33
ATOM     33  O   UNL     1      29.667  -4.944  27.565  0.00  0.00    +0.000 OA
ATOM     34  H   UNL     1      30.100  -4.630  28.381  0.00  0.00    +0.000 HD
ENDBRANCH   7  33
BRANCH  15  35
ATOM     35  O   UNL     1      27.883  -0.278  29.160  0.00  0.00    +0.000 OA
ATOM     36  H   UNL     1      28.179  -0.410  28.235  0.00  0.00    +0.000 HD
ENDBRANCH  15  35
BRANCH   9  37
ATOM     37  O   UNL     1      24.295  -4.104  30.739  0.00  0.00    +0.000 OA
ATOM     38  H   UNL     1      23.750  -3.505  30.197  0.00  0.00    +0.000 HD
ENDBRANCH   9  37
BRANCH  20  39
ATOM     39  O   UNL     1      26.066   1.477  29.784  0.00  0.00    +0.000 OA
ATOM     40  H   UNL     1      25.607   2.319  29.944  0.00  0.00    +0.000 HD
ENDBRANCH  20  39
TORSDOF 7
ENDMDL
MODEL 2
REMARK VINA RESULT:      -6.4     13.676     17.672
REMARK  Name = Chlortetracycline.pdbqt.pdb
REMARK  7 active torsions:
REMARK  status: ('A' for Active; 'I' for Inactive)
REMARK    1  A    between atoms: C_7  and  O_30
REMARK    2  A    between atoms: C_8  and  N_32
REMARK    3  A    between atoms: C_9  and  O_37
REMARK    4  A    between atoms: C_12  and  O_28
REMARK    5  A    between atoms: C_15  and  O_35
REMARK    6  A    between atoms: C_16  and  C_23
REMARK    7  A    between atoms: C_20  and  O_39
REMARK                            x       y       z     vdW  Elec       q    Type
REMARK                         _______ _______ _______ _____ _____    ______ ____
ROOT
ATOM      1 CL   UNL     1      14.247   0.802  27.137  0.00  0.00    +0.000 Cl
ATOM      2  O   UNL     1      13.457   8.564  27.793  0.00  0.00    +0.000 OA
ATOM      3  O   UNL     1      13.209   6.155  33.461  0.00  0.00    +0.000 OA
ATOM      4  C   UNL     1      11.703   6.534  30.387  0.00  0.00    +0.000 C 
ATOM      5  C   UNL     1      13.056   5.040  28.683  0.00  0.00    +0.000 C 
ATOM      6  C   UNL     1      12.150   5.381  29.707  0.00  0.00    +0.000 C 
ATOM      7  C   UNL     1      12.299   7.807  29.835  0.00  0.00    +0.000 C 
ATOM      8  C   UNL     1      11.520   6.486  31.827  0.00  0.00    +0.000 C 
ATOM      9  C   UNL     1      13.235   3.696  28.033  0.00  0.00    +0.000 C 
ATOM     10  C   UNL     1      13.692   6.212  28.121  0.00  0.00    +0.000 C 
ATOM     11  C   UNL     1      13.177   7.594  28.512  0.00  0.00    +0.000 C 
ATOM     12  C   UNL     1      13.177   8.548  30.848  0.00  0.00    +0.000 C 
ATOM     13  C   UNL     1      14.533   3.566  27.250  0.00  0.00    +0.000 A 
ATOM     14  C   UNL     1      12.735   6.875  32.595  0.00  0.00    +0.000 C 
ATOM     15  C   UNL     1      14.702   6.086  27.240  0.00  0.00    +0.000 C 
ATOM     16  C   UNL     1      13.408   8.123  32.112  0.00  0.00    +0.000 C 
ATOM     17  C   UNL     1      15.261   4.743  26.894  0.00  0.00    +0.000 A 
ATOM     18  C   UNL     1      12.006   3.421  27.143  0.00  0.00    +0.000 C 
ATOM     19  C   UNL     1      15.045   2.309  26.851  0.00  0.00    +0.000 A 
ATOM     20  C   UNL     1      16.495   4.589  26.224  0.00  0.00    +0.000 A 
ATOM     21  C   UNL     1      16.249   2.202  26.161  0.00  0.00    +0.000 A 
ATOM     22  C   UNL     1      16.981   3.335  25.861  0.00  0.00    +0.000 A 
ENDROOT
BRANCH  16  23
ATOM     23  C   UNL     1      14.227   8.897  33.088  0.00  0.00    +0.000 C 
ATOM     24  O   UNL     1      13.875   9.991  33.508  0.00  0.00    +0.000 OA
ATOM     25  N   UNL     1      15.404   8.342  33.485  0.00  0.00    +0.000 N 
ATOM     26  H   UNL     1      15.824   7.596  32.941  0.00  0.00    +0.000 HD
ATOM     27  H   UNL     1      16.012   8.917  34.052  0.00  0.00    +0.000 HD
ENDBRANCH  16  23
BRANCH   8  28
ATOM     28  N   UNL     1      10.224   6.663  32.427  0.00  0.00    +0.000 NA
ATOM     29  C   UNL     1      10.067   7.924  33.138  0.00  0.00    +0.000 C 
ATOM     30  C   UNL     1       9.123   6.534  31.495  0.00  0.00    +0.000 C 
ENDBRANCH   8  28
BRANCH  12  31
ATOM     31  O   UNL     1      13.687   9.773  30.407  0.00  0.00    +0.000 OA
ATOM     32  H   UNL     1      13.784   9.733  29.428  0.00  0.00    +0.000 HD
ENDBRANCH  12  31
BRANCH   7  33
ATOM     33  O   UNL     1      11.230   8.711  29.554  0.00  0.00    +0.000 OA
ATOM     34  H   UNL     1      11.542   9.616  29.740  0.00  0.00    +0.000 HD
ENDBRANCH   7  33
BRANCH  15  35
ATOM     35  O   UNL     1      15.269   7.161  26.590  0.00  0.00    +0.000 OA
ATOM     36  H   UNL     1      14.835   7.303  25.722  0.00  0.00    +0.000 HD
ENDBRANCH  15  35
BRANCH   9  37
ATOM     37  O   UNL     1      13.191   2.748  29.081  0.00  0.00    +0.000 OA
ATOM     38  H   UNL     1      12.916   1.946  28.599  0.00  0.00    +0.000 HD
ENDBRANCH   9  37
BRANCH  20  39
ATOM     39  O   UNL     1      17.295   5.663  25.942  0.00  0.00    +0.000 OA
ATOM     40  H   UNL     1      16.947   6.131  25.164  0.00  0.00    +0.000 HD
ENDBRANCH  20  39
TORSDOF 7
ENDMDL
MODEL 3
REMARK VINA RESULT:      -6.3      2.260      3.019
REMARK  Name = Chlortetracycline.pdbqt.pdb
REMARK  7 active torsions:
REMARK  status: ('A' for Active; 'I' for Inactive)
REMARK    1  A    between atoms: C_7  and  O_30
REMARK    2  A    between atoms: C_8  and  N_32
REMARK    3  A    between atoms: C_9  and  O_37
REMARK    4  A    between atoms: C_12  and  O_28
REMARK    5  A    between atoms: C_15  and  O_35
REMARK    6  A    between atoms: C_16  and  C_23
REMARK    7  A    between atoms: C_20  and  O_39
REMARK                            x       y       z     vdW  Elec       q    Type
REMARK                         _______ _______ _______ _____ _____    ______ ____
ROOT
ATOM      1 CL   UNL     1      24.764  -2.143  35.976  0.00  0.00    +0.000 Cl
ATOM      2  O   UNL     1      26.569  -0.294  28.585  0.00  0.00    +0.000 OA
ATOM      3  O   UNL     1      24.172  -5.972  28.580  0.00  0.00    +0.000 OA
ATOM      4  C   UNL     1      26.796  -3.917  29.448  0.00  0.00    +0.000 C 
ATOM      5  C   UNL     1      25.976  -2.447  31.481  0.00  0.00    +0.000 C 
ATOM      6  C   UNL     1      26.456  -3.566  30.771  0.00  0.00    +0.000 C 
ATOM      7  C   UNL     1      26.692  -2.755  28.489  0.00  0.00    +0.000 C 
ATOM      8  C   UNL     1      26.394  -5.212  28.929  0.00  0.00    +0.000 C 
ATOM      9  C   UNL     1      25.833  -2.302  32.970  0.00  0.00    +0.000 C 
ATOM     10  C   UNL     1      25.822  -1.295  30.618  0.00  0.00    +0.000 C 
ATOM     11  C   UNL     1      26.375  -1.354  29.197  0.00  0.00    +0.000 C 
ATOM     12  C   UNL     1      25.632  -2.965  27.403  0.00  0.00    +0.000 C 
ATOM     13  C   UNL     1      24.941  -1.142  33.387  0.00  0.00    +0.000 A 
ATOM     14  C   UNL     1      25.063  -5.198  28.260  0.00  0.00    +0.000 C 
ATOM     15  C   UNL     1      25.228  -0.175  31.072  0.00  0.00    +0.000 C 
ATOM     16  C   UNL     1      24.857  -4.070  27.297  0.00  0.00    +0.000 C 
ATOM     17  C   UNL     1      24.624  -0.121  32.439  0.00  0.00    +0.000 A 
ATOM     18  C   UNL     1      27.244  -2.179  33.581  0.00  0.00    +0.000 C 
ATOM     19  C   UNL     1      24.415  -1.035  34.696  0.00  0.00    +0.000 A 
ATOM     20  C   UNL     1      23.741   0.908  32.834  0.00  0.00    +0.000 A 
ATOM     21  C   UNL     1      23.574   0.015  35.056  0.00  0.00    +0.000 A 
ATOM     22  C   UNL     1      23.225   0.976  34.125  0.00  0.00    +0.000 A 
ENDROOT
BRANCH  16  23
ATOM     23  C   UNL     1      23.871  -4.263  26.196  0.00  0.00    +0.000 C 
ATOM     24  O   UNL     1      24.213  -4.337  25.023  0.00  0.00    +0.000 OA
ATOM     25  N   UNL     1      22.559  -4.337  26.547  0.00  0.00    +0.000 N 
ATOM     26  H   UNL     1      22.255  -3.999  27.454  0.00  0.00    +0.000 HD
ATOM     27  H   UNL     1      21.885  -4.347  25.794  0.00  0.00    +0.000 HD
ENDBRANCH  16  23
BRANCH   8  28
ATOM     28  N   UNL     1      27.363  -6.202  28.540  0.00  0.00    +0.000 NA
ATOM     29  C   UNL     1      27.405  -6.462  27.108  0.00  0.00    +0.000 C 
ATOM     30  C   UNL     1      28.711  -5.907  28.981  0.00  0.00    +0.000 C 
ENDBRANCH   8  28
BRANCH  12  31
ATOM     31  O   UNL     1      25.554  -1.950  26.446  0.00  0.00    +0.000 OA
ATOM     32  H   UNL     1      24.813  -1.349  26.691  0.00  0.00    +0.000 HD
ENDBRANCH  12  31
BRANCH   7  33
ATOM     33  O   UNL     1      27.925  -2.657  27.776  0.00  0.00    +0.000 OA
ATOM     34  H   UNL     1      27.772  -2.118  26.978  0.00  0.00    +0.000 HD
ENDBRANCH   7  33
BRANCH  15  35
ATOM     35  O   UNL     1      25.154   0.987  30.334  0.00  0.00    +0.000 OA
ATOM     36  H   UNL     1      24.606   0.848  29.533  0.00  0.00    +0.000 HD
ENDBRANCH  15  35
BRANCH   9  37
ATOM     37  O   UNL     1      25.302  -3.528  33.432  0.00  0.00    +0.000 OA
ATOM     38  H   UNL     1      24.586  -3.216  34.015  0.00  0.00    +0.000 HD
ENDBRANCH   9  37
BRANCH  20  39
ATOM     39  O   UNL     1      23.313   1.861  31.950  0.00  0.00    +0.000 OA
ATOM     40  H   UNL     1      23.989   1.995  31.264  0.00  0.00    +0.000 HD
ENDBRANCH  20  39
TORSDOF 7
ENDMDL
MODEL 4
REMARK VINA RESULT:      -6.2      3.703      6.670
REMARK  Name = Chlortetracycline.pdbqt.pdb
REMARK  7 active torsions:
REMARK  status: ('A' for Active; 'I' for Inactive)
REMARK    1  A    between atoms: C_7  and  O_30
REMARK    2  A    between atoms: C_8  and  N_32
REMARK    3  A    between atoms: C_9  and  O_37
REMARK    4  A    between atoms: C_12  and  O_28
REMARK    5  A    between atoms: C_15  and  O_35
REMARK    6  A    between atoms: C_16  and  C_23
REMARK    7  A    between atoms: C_20  and  O_39
REMARK                            x       y       z     vdW  Elec       q    Type
REMARK                         _______ _______ _______ _____ _____    ______ ____
ROOT
ATOM      1 CL   UNL     1      25.827  -4.763  23.540  0.00  0.00    +0.000 Cl
ATOM      2  O   UNL     1      29.262  -2.148  30.071  0.00  0.00    +0.000 OA
ATOM      3  O   UNL     1      26.634  -7.571  31.362  0.00  0.00    +0.000 OA
ATOM      4  C   UNL     1      26.216  -4.245  30.573  0.00  0.00    +0.000 C 
ATOM      5  C   UNL     1      26.847  -3.978  28.024  0.00  0.00    +0.000 C 
ATOM      6  C   UNL     1      26.091  -4.299  29.169  0.00  0.00    +0.000 C 
ATOM      7  C   UNL     1      27.502  -3.592  31.021  0.00  0.00    +0.000 C 
ATOM      8  C   UNL     1      25.756  -5.365  31.374  0.00  0.00    +0.000 C 
ATOM      9  C   UNL     1      26.393  -4.008  26.592  0.00  0.00    +0.000 C 
ATOM     10  C   UNL     1      28.113  -3.371  28.375  0.00  0.00    +0.000 C 
ATOM     11  C   UNL     1      28.365  -2.966  29.825  0.00  0.00    +0.000 C 
ATOM     12  C   UNL     1      28.422  -4.543  31.795  0.00  0.00    +0.000 C 
ATOM     13  C   UNL     1      27.537  -3.981  25.590  0.00  0.00    +0.000 A 
ATOM     14  C   UNL     1      26.808  -6.390  31.624  0.00  0.00    +0.000 C 
ATOM     15  C   UNL     1      29.044  -3.136  27.431  0.00  0.00    +0.000 C 
ATOM     16  C   UNL     1      28.130  -5.838  32.060  0.00  0.00    +0.000 C 
ATOM     17  C   UNL     1      28.840  -3.583  26.018  0.00  0.00    +0.000 A 
ATOM     18  C   UNL     1      25.416  -2.836  26.369  0.00  0.00    +0.000 C 
ATOM     19  C   UNL     1      27.352  -4.333  24.231  0.00  0.00    +0.000 A 
ATOM     20  C   UNL     1      29.896  -3.630  25.082  0.00  0.00    +0.000 A 
ATOM     21  C   UNL     1      28.414  -4.334  23.331  0.00  0.00    +0.000 A 
ATOM     22  C   UNL     1      29.685  -3.998  23.756  0.00  0.00    +0.000 A 
ENDROOT
BRANCH  16  23
ATOM     23  C   UNL     1      29.025  -6.719  32.861  0.00  0.00    +0.000 C 
ATOM     24  O   UNL     1      30.225  -6.808  32.632  0.00  0.00    +0.000 OA
ATOM     25  N   UNL     1      28.449  -7.445  33.857  0.00  0.00    +0.000 N 
ATOM     26  H   UNL     1      27.445  -7.591  33.865  0.00  0.00    +0.000 HD
ATOM     27  H   UNL     1      29.032  -8.129  34.320  0.00  0.00    +0.000 HD
ENDBRANCH  16  23
BRANCH   8  28
ATOM     28  N   UNL     1      24.676  -5.227  32.314  0.00  0.00    +0.000 NA
ATOM     29  C   UNL     1      25.092  -5.275  33.708  0.00  0.00    +0.000 C 
ATOM     30  C   UNL     1      23.885  -4.028  32.124  0.00  0.00    +0.000 C 
ENDBRANCH   8  28
BRANCH  12  31
ATOM     31  O   UNL     1      29.589  -3.961  32.297  0.00  0.00    +0.000 OA
ATOM     32  H   UNL     1      29.679  -4.215  33.244  0.00  0.00    +0.000 HD
ENDBRANCH  12  31
BRANCH   7  33
ATOM     33  O   UNL     1      27.176  -2.564  31.957  0.00  0.00    +0.000 OA
ATOM     34  H   UNL     1      26.964  -2.987  32.810  0.00  0.00    +0.000 HD
ENDBRANCH   7  33
BRANCH  15  35
ATOM     35  O   UNL     1      30.218  -2.461  27.687  0.00  0.00    +0.000 OA
ATOM     36  H   UNL     1      30.636  -2.172  26.848  0.00  0.00    +0.000 HD
ENDBRANCH  15  35
BRANCH   9  37
ATOM     37  O   UNL     1      25.636  -5.194  26.448  0.00  0.00    +0.000 OA
ATOM     38  H   UNL     1      26.252  -5.752  25.940  0.00  0.00    +0.000 HD
ENDBRANCH   9  37
BRANCH  20  39
ATOM     39  O   UNL     1      31.188  -3.361  25.446  0.00  0.00    +0.000 OA
ATOM     40  H   UNL     1      31.651  -4.194  25.640  0.00  0.00    +0.000 HD
ENDBRANCH  20  39
TORSDOF 7
ENDMDL
MODEL 5
REMARK VINA RESULT:      -6.0     13.889     16.630
REMARK  Name = Chlortetracycline.pdbqt.pdb
REMARK  7 active torsions:
REMARK  status: ('A' for Active; 'I' for Inactive)
REMARK    1  A    between atoms: C_7  and  O_30
REMARK    2  A    between atoms: C_8  and  N_32
REMARK    3  A    between atoms: C_9  and  O_37
REMARK    4  A    between atoms: C_12  and  O_28
REMARK    5  A    between atoms: C_15  and  O_35
REMARK    6  A    between atoms: C_16  and  C_23
REMARK    7  A    between atoms: C_20  and  O_39
REMARK                            x       y       z     vdW  Elec       q    Type
REMARK                         _______ _______ _______ _____ _____    ______ ____
ROOT
ATOM      1 CL   UNL     1      34.425   2.170  38.821  0.00  0.00    +0.000 Cl
ATOM      2  O   UNL     1      32.845   9.366  36.172  0.00  0.00    +0.000 OA
ATOM      3  O   UNL     1      38.413   7.762  34.073  0.00  0.00    +0.000 OA
ATOM      4  C   UNL     1      36.452   8.618  36.771  0.00  0.00    +0.000 C 
ATOM      5  C   UNL     1      34.896   6.546  37.273  0.00  0.00    +0.000 C 
ATOM      6  C   UNL     1      36.053   7.351  37.245  0.00  0.00    +0.000 C 
ATOM      7  C   UNL     1      35.312   9.403  36.167  0.00  0.00    +0.000 C 
ATOM      8  C   UNL     1      37.741   8.761  36.118  0.00  0.00    +0.000 C 
ATOM      9  C   UNL     1      34.707   5.244  38.000  0.00  0.00    +0.000 C 
ATOM     10  C   UNL     1      33.761   7.223  36.683  0.00  0.00    +0.000 C 
ATOM     11  C   UNL     1      33.880   8.704  36.336  0.00  0.00    +0.000 C 
ATOM     12  C   UNL     1      35.503   9.691  34.675  0.00  0.00    +0.000 C 
ATOM     13  C   UNL     1      33.500   4.450  37.524  0.00  0.00    +0.000 A 
ATOM     14  C   UNL     1      37.687   8.563  34.643  0.00  0.00    +0.000 C 
ATOM     15  C   UNL     1      32.606   6.565  36.474  0.00  0.00    +0.000 C 
ATOM     16  C   UNL     1      36.576   9.293  33.953  0.00  0.00    +0.000 C 
ATOM     17  C   UNL     1      32.491   5.099  36.749  0.00  0.00    +0.000 A 
ATOM     18  C   UNL     1      34.630   5.541  39.512  0.00  0.00    +0.000 C 
ATOM     19  C   UNL     1      33.336   3.079  37.832  0.00  0.00    +0.000 A 
ATOM     20  C   UNL     1      31.415   4.323  36.265  0.00  0.00    +0.000 A 
ATOM     21  C   UNL     1      32.242   2.356  37.364  0.00  0.00    +0.000 A 
ATOM     22  C   UNL     1      31.292   2.970  36.571  0.00  0.00    +0.000 A 
ENDROOT
BRANCH  16  23
ATOM     23  C   UNL     1      36.755   9.636  32.514  0.00  0.00    +0.000 C 
ATOM     24  O   UNL     1      35.803   9.779  31.757  0.00  0.00    +0.000 OA
ATOM     25  N   UNL     1      38.031   9.768  32.063  0.00  0.00    +0.000 N 
ATOM     26  H   UNL     1      38.802   9.381  32.597  0.00  0.00    +0.000 HD
ATOM     27  H   UNL     1      38.154   9.882  31.066  0.00  0.00    +0.000 HD
ENDBRANCH  16  23
BRANCH   8  28
ATOM     28  N   UNL     1      38.782   9.583  36.677  0.00  0.00    +0.000 NA
ATOM     29  C   UNL     1      39.008  10.826  35.954  0.00  0.00    +0.000 C 
ATOM     30  C   UNL     1      38.584   9.908  38.075  0.00  0.00    +0.000 C 
ENDBRANCH   8  28
BRANCH  12  31
ATOM     31  O   UNL     1      34.510  10.483  34.091  0.00  0.00    +0.000 OA
ATOM     32  H   UNL     1      34.824  11.416  34.081  0.00  0.00    +0.000 HD
ENDBRANCH  12  31
BRANCH   7  33
ATOM     33  O   UNL     1      35.285  10.691  36.784  0.00  0.00    +0.000 OA
ATOM     34  H   UNL     1      35.109  10.568  37.735  0.00  0.00    +0.000 HD
ENDBRANCH   7  33
BRANCH  15  35
ATOM     35  O   UNL     1      31.461   7.185  36.020  0.00  0.00    +0.000 OA
ATOM     36  H   UNL     1      30.876   7.415  36.772  0.00  0.00    +0.000 HD
ENDBRANCH  15  35
BRANCH   9  37
ATOM     37  O   UNL     1      35.897   4.508  37.797  0.00  0.00    +0.000 OA
ATOM     38  H   UNL     1      36.542   5.225  37.657  0.00  0.00    +0.000 HD
ENDBRANCH   9  37
BRANCH  20  39
ATOM     39  O   UNL     1      30.467   4.853  35.433  0.00  0.00    +0.000 OA
ATOM     40  H   UNL     1      29.870   4.147  35.130  0.00  0.00    +0.000 HD
ENDBRANCH  20  39
TORSDOF 7
ENDMDL
MODEL 6
REMARK VINA RESULT:      -6.0     32.412     34.973
REMARK  Name = Chlortetracycline.pdbqt.pdb
REMARK  7 active torsions:
REMARK  status: ('A' for Active; 'I' for Inactive)
REMARK    1  A    between atoms: C_7  and  O_30
REMARK    2  A    between atoms: C_8  and  N_32
REMARK    3  A    between atoms: C_9  and  O_37
REMARK    4  A    between atoms: C_12  and  O_28
REMARK    5  A    between atoms: C_15  and  O_35
REMARK    6  A    between atoms: C_16  and  C_23
REMARK    7  A    between atoms: C_20  and  O_39
REMARK                            x       y       z     vdW  Elec       q    Type
REMARK                         _______ _______ _______ _____ _____    ______ ____
ROOT
ATOM      1 CL   UNL     1      22.901  35.343  23.057  0.00  0.00    +0.000 Cl
ATOM      2  O   UNL     1      21.712  27.899  25.174  0.00  0.00    +0.000 OA
ATOM      3  O   UNL     1      22.588  31.203  30.302  0.00  0.00    +0.000 OA
ATOM      4  C   UNL     1      23.934  29.885  27.419  0.00  0.00    +0.000 C 
ATOM      5  C   UNL     1      22.994  31.315  25.412  0.00  0.00    +0.000 C 
ATOM      6  C   UNL     1      23.789  30.961  26.520  0.00  0.00    +0.000 C 
ATOM      7  C   UNL     1      23.034  28.719  27.088  0.00  0.00    +0.000 C 
ATOM      8  C   UNL     1      24.131  30.158  28.832  0.00  0.00    +0.000 C 
ATOM      9  C   UNL     1      23.155  32.513  24.517  0.00  0.00    +0.000 C 
ATOM     10  C   UNL     1      22.080  30.253  25.050  0.00  0.00    +0.000 C 
ATOM     11  C   UNL     1      22.232  28.887  25.712  0.00  0.00    +0.000 C 
ATOM     12  C   UNL     1      22.003  28.425  28.182  0.00  0.00    +0.000 C 
ATOM     13  C   UNL     1      21.929  32.809  23.668  0.00  0.00    +0.000 A 
ATOM     14  C   UNL     1      22.861  30.237  29.606  0.00  0.00    +0.000 C 
ATOM     15  C   UNL     1      21.130  30.456  24.118  0.00  0.00    +0.000 C 
ATOM     16  C   UNL     1      21.893  29.127  29.335  0.00  0.00    +0.000 C 
ATOM     17  C   UNL     1      20.926  31.805  23.505  0.00  0.00    +0.000 A 
ATOM     18  C   UNL     1      24.410  32.299  23.645  0.00  0.00    +0.000 C 
ATOM     19  C   UNL     1      21.748  34.055  23.021  0.00  0.00    +0.000 A 
ATOM     20  C   UNL     1      19.767  32.131  22.766  0.00  0.00    +0.000 A 
ATOM     21  C   UNL     1      20.606  34.325  22.273  0.00  0.00    +0.000 A 
ATOM     22  C   UNL     1      19.611  33.373  22.157  0.00  0.00    +0.000 A 
ENDROOT
BRANCH  16  23
ATOM     23  C   UNL     1      20.910  28.781  30.401  0.00  0.00    +0.000 C 
ATOM     24  O   UNL     1      19.723  28.610  30.159  0.00  0.00    +0.000 OA
ATOM     25  N   UNL     1      21.387  28.679  31.671  0.00  0.00    +0.000 N 
ATOM     26  H   UNL     1      22.283  29.088  31.913  0.00  0.00    +0.000 HD
ATOM     27  H   UNL     1      20.703  28.563  32.407  0.00  0.00    +0.000 HD
ENDBRANCH  16  23
BRANCH   8  28
ATOM     28  N   UNL     1      25.344  29.783  29.511  0.00  0.00    +0.000 NA
ATOM     29  C   UNL     1      25.253  28.522  30.233  0.00  0.00    +0.000 C 
ATOM     30  C   UNL     1      26.504  29.720  28.646  0.00  0.00    +0.000 C 
ENDBRANCH   8  28
BRANCH  12  31
ATOM     31  O   UNL     1      21.198  27.305  27.954  0.00  0.00    +0.000 OA
ATOM     32  H   UNL     1      20.327  27.614  27.615  0.00  0.00    +0.000 HD
ENDBRANCH  12  31
BRANCH   7  33
ATOM     33  O   UNL     1      23.839  27.540  27.026  0.00  0.00    +0.000 OA
ATOM     34  H   UNL     1      23.539  26.931  27.726  0.00  0.00    +0.000 HD
ENDBRANCH   7  33
BRANCH  15  35
ATOM     35  O   UNL     1      20.306  29.452  23.654  0.00  0.00    +0.000 OA
ATOM     36  H   UNL     1      19.366  29.717  23.736  0.00  0.00    +0.000 HD
ENDBRANCH  15  35
BRANCH   9  37
ATOM     37  O   UNL     1      23.443  33.602  25.372  0.00  0.00    +0.000 OA
ATOM     38  H   UNL     1      22.866  33.403  26.132  0.00  0.00    +0.000 HD
ENDBRANCH   9  37
BRANCH  20  39
ATOM     39  O   UNL     1      18.720  31.256  22.654  0.00  0.00    +0.000 OA
ATOM     40  H   UNL     1      17.970  31.701  22.224  0.00  0.00    +0.000 HD
ENDBRANCH  20  39
TORSDOF 7
ENDMDL
MODEL 7
REMARK VINA RESULT:      -5.9     37.054     39.075
REMARK  Name = Chlortetracycline.pdbqt.pdb
REMARK  7 active torsions:
REMARK  status: ('A' for Active; 'I' for Inactive)
REMARK    1  A    between atoms: C_7  and  O_30
REMARK    2  A    between atoms: C_8  and  N_32
REMARK    3  A    between atoms: C_9  and  O_37
REMARK    4  A    between atoms: C_12  and  O_28
REMARK    5  A    between atoms: C_15  and  O_35
REMARK    6  A    between atoms: C_16  and  C_23
REMARK    7  A    between atoms: C_20  and  O_39
REMARK                            x       y       z     vdW  Elec       q    Type
REMARK                         _______ _______ _______ _____ _____    ______ ____
ROOT
ATOM      1 CL   UNL     1      24.724  11.198 -11.206  0.00  0.00    +0.000 Cl
ATOM      2  O   UNL     1      29.731  10.010  -5.305  0.00  0.00    +0.000 OA
ATOM      3  O   UNL     1      31.930   7.085 -10.265  0.00  0.00    +0.000 OA
ATOM      4  C   UNL     1      29.511   7.261  -7.820  0.00  0.00    +0.000 C 
ATOM      5  C   UNL     1      27.958   9.307  -8.425  0.00  0.00    +0.000 C 
ATOM      6  C   UNL     1      28.506   8.009  -8.467  0.00  0.00    +0.000 C 
ATOM      7  C   UNL     1      30.174   8.021  -6.695  0.00  0.00    +0.000 C 
ATOM      8  C   UNL     1      30.377   6.400  -8.605  0.00  0.00    +0.000 C 
ATOM      9  C   UNL     1      26.748   9.811  -9.160  0.00  0.00    +0.000 C 
ATOM     10  C   UNL     1      28.566  10.109  -7.385  0.00  0.00    +0.000 C 
ATOM     11  C   UNL     1      29.495   9.437  -6.379  0.00  0.00    +0.000 C 
ATOM     12  C   UNL     1      31.665   8.276  -6.938  0.00  0.00    +0.000 C 
ATOM     13  C   UNL     1      26.649  11.328  -9.202  0.00  0.00    +0.000 A 
ATOM     14  C   UNL     1      31.614   7.077  -9.084  0.00  0.00    +0.000 C 
ATOM     15  C   UNL     1      28.291  11.423  -7.286  0.00  0.00    +0.000 C 
ATOM     16  C   UNL     1      32.338   7.871  -8.041  0.00  0.00    +0.000 C 
ATOM     17  C   UNL     1      27.434  12.110  -8.301  0.00  0.00    +0.000 A 
ATOM     18  C   UNL     1      25.495   9.179  -8.521  0.00  0.00    +0.000 C 
ATOM     19  C   UNL     1      25.792  11.998 -10.107  0.00  0.00    +0.000 A 
ATOM     20  C   UNL     1      27.371  13.517  -8.406  0.00  0.00    +0.000 A 
ATOM     21  C   UNL     1      25.734  13.389 -10.156  0.00  0.00    +0.000 A 
ATOM     22  C   UNL     1      26.531  14.147  -9.320  0.00  0.00    +0.000 A 
ENDROOT
BRANCH  16  23
ATOM     23  C   UNL     1      33.801   8.092  -8.221  0.00  0.00    +0.000 C 
ATOM     24  O   UNL     1      34.626   7.658  -7.428  0.00  0.00    +0.000 OA
ATOM     25  N   UNL     1      34.188   8.818  -9.304  0.00  0.00    +0.000 N 
ATOM     26  H   UNL     1      33.518   9.404  -9.790  0.00  0.00    +0.000 HD
ATOM     27  H   UNL     1      35.166   9.068  -9.360  0.00  0.00    +0.000 HD
ENDBRANCH  16  23
BRANCH   8  28
ATOM     28  N   UNL     1      30.384   4.972  -8.426  0.00  0.00    +0.000 NA
ATOM     29  C   UNL     1      31.666   4.435  -7.992  0.00  0.00    +0.000 C 
ATOM     30  C   UNL     1      29.366   4.491  -7.515  0.00  0.00    +0.000 C 
ENDBRANCH   8  28
BRANCH  12  31
ATOM     31  O   UNL     1      32.338   8.908  -5.889  0.00  0.00    +0.000 OA
ATOM     32  H   UNL     1      32.844   8.226  -5.391  0.00  0.00    +0.000 HD
ENDBRANCH  12  31
BRANCH   7  33
ATOM     33  O   UNL     1      30.134   7.204  -5.524  0.00  0.00    +0.000 OA
ATOM     34  H   UNL     1      29.220   7.205  -5.185  0.00  0.00    +0.000 HD
ENDBRANCH   7  33
BRANCH  15  35
ATOM     35  O   UNL     1      28.752  12.210  -6.253  0.00  0.00    +0.000 OA
ATOM     36  H   UNL     1      29.518  12.746  -6.547  0.00  0.00    +0.000 HD
ENDBRANCH  15  35
BRANCH   9  37
ATOM     37  O   UNL     1      26.839   9.283 -10.469  0.00  0.00    +0.000 OA
ATOM     38  H   UNL     1      27.716   8.858 -10.441  0.00  0.00    +0.000 HD
ENDBRANCH   9  37
BRANCH  20  39
ATOM     39  O   UNL     1      28.170  14.328  -7.647  0.00  0.00    +0.000 OA
ATOM     40  H   UNL     1      28.357  15.149  -8.134  0.00  0.00    +0.000 HD
ENDBRANCH  20  39
TORSDOF 7
ENDMDL
MODEL 8
REMARK VINA RESULT:      -5.9     16.326     19.538
REMARK  Name = Chlortetracycline.pdbqt.pdb
REMARK  7 active torsions:
REMARK  status: ('A' for Active; 'I' for Inactive)
REMARK    1  A    between atoms: C_7  and  O_30
REMARK    2  A    between atoms: C_8  and  N_32
REMARK    3  A    between atoms: C_9  and  O_37
REMARK    4  A    between atoms: C_12  and  O_28
REMARK    5  A    between atoms: C_15  and  O_35
REMARK    6  A    between atoms: C_16  and  C_23
REMARK    7  A    between atoms: C_20  and  O_39
REMARK                            x       y       z     vdW  Elec       q    Type
REMARK                         _______ _______ _______ _____ _____    ______ ____
ROOT
ATOM      1 CL   UNL     1      40.216   7.652  32.451  0.00  0.00    +0.000 Cl
ATOM      2  O   UNL     1      34.446  12.893  33.189  0.00  0.00    +0.000 OA
ATOM      3  O   UNL     1      35.436  10.382  38.729  0.00  0.00    +0.000 OA
ATOM      4  C   UNL     1      34.288   9.974  35.508  0.00  0.00    +0.000 C 
ATOM      5  C   UNL     1      36.411   9.902  33.943  0.00  0.00    +0.000 C 
ATOM      6  C   UNL     1      35.433   9.467  34.860  0.00  0.00    +0.000 C 
ATOM      7  C   UNL     1      33.932  11.372  35.061  0.00  0.00    +0.000 C 
ATOM      8  C   UNL     1      34.076   9.680  36.915  0.00  0.00    +0.000 C 
ATOM      9  C   UNL     1      37.481   9.074  33.288  0.00  0.00    +0.000 C 
ATOM     10  C   UNL     1      36.152  11.251  33.487  0.00  0.00    +0.000 C 
ATOM     11  C   UNL     1      34.825  11.913  33.847  0.00  0.00    +0.000 C 
ATOM     12  C   UNL     1      34.022  12.405  36.188  0.00  0.00    +0.000 C 
ATOM     13  C   UNL     1      38.593   9.901  32.661  0.00  0.00    +0.000 A 
ATOM     14  C   UNL     1      34.670  10.694  37.830  0.00  0.00    +0.000 C 
ATOM     15  C   UNL     1      37.054  11.902  32.730  0.00  0.00    +0.000 C 
ATOM     16  C   UNL     1      34.383  12.117  37.460  0.00  0.00    +0.000 C 
ATOM     17  C   UNL     1      38.386  11.294  32.421  0.00  0.00    +0.000 A 
ATOM     18  C   UNL     1      36.810   8.149  32.252  0.00  0.00    +0.000 C 
ATOM     19  C   UNL     1      39.836   9.331  32.297  0.00  0.00    +0.000 A 
ATOM     20  C   UNL     1      39.458  12.050  31.899  0.00  0.00    +0.000 A 
ATOM     21  C   UNL     1      40.857  10.106  31.752  0.00  0.00    +0.000 A 
ATOM     22  C   UNL     1      40.676  11.463  31.568  0.00  0.00    +0.000 A 
ENDROOT
BRANCH  16  23
ATOM     23  C   UNL     1      34.411  13.140  38.544  0.00  0.00    +0.000 C 
ATOM     24  O   UNL     1      34.941  14.232  38.393  0.00  0.00    +0.000 OA
ATOM     25  N   UNL     1      33.833  12.801  39.728  0.00  0.00    +0.000 N 
ATOM     26  H   UNL     1      33.654  11.827  39.947  0.00  0.00    +0.000 HD
ATOM     27  H   UNL     1      33.956  13.446  40.497  0.00  0.00    +0.000 HD
ENDBRANCH  16  23
BRANCH   8  28
ATOM     28  N   UNL     1      32.948   8.907  37.362  0.00  0.00    +0.000 NA
ATOM     29  C   UNL     1      31.889   9.701  37.969  0.00  0.00    +0.000 C 
ATOM     30  C   UNL     1      32.354   8.086  36.327  0.00  0.00    +0.000 C 
ENDBRANCH   8  28
BRANCH  12  31
ATOM     31  O   UNL     1      33.626  13.700  35.839  0.00  0.00    +0.000 OA
ATOM     32  H   UNL     1      33.753  14.284  36.622  0.00  0.00    +0.000 HD
ENDBRANCH  12  31
BRANCH   7  33
ATOM     33  O   UNL     1      32.556  11.377  34.676  0.00  0.00    +0.000 OA
ATOM     34  H   UNL     1      32.509  11.198  33.718  0.00  0.00    +0.000 HD
ENDBRANCH   7  33
BRANCH  15  35
ATOM     35  O   UNL     1      36.815  13.142  32.176  0.00  0.00    +0.000 OA
ATOM     36  H   UNL     1      35.869  13.231  31.935  0.00  0.00    +0.000 HD
ENDBRANCH  15  35
BRANCH   9  37
ATOM     37  O   UNL     1      37.998   8.234  34.300  0.00  0.00    +0.000 OA
ATOM     38  H   UNL     1      38.792   7.877  33.863  0.00  0.00    +0.000 HD
ENDBRANCH   9  37
BRANCH  20  39
ATOM     39  O   UNL     1      39.366  13.406  31.739  0.00  0.00    +0.000 OA
ATOM     40  H   UNL     1      38.450  13.690  31.899  0.00  0.00    +0.000 HD
ENDBRANCH  20  39
TORSDOF 7
ENDMDL
MODEL 9
REMARK VINA RESULT:      -5.8     12.655     15.456
REMARK  Name = Chlortetracycline.pdbqt.pdb
REMARK  7 active torsions:
REMARK  status: ('A' for Active; 'I' for Inactive)
REMARK    1  A    between atoms: C_7  and  O_30
REMARK    2  A    between atoms: C_8  and  N_32
REMARK    3  A    between atoms: C_9  and  O_37
REMARK    4  A    between atoms: C_12  and  O_28
REMARK    5  A    between atoms: C_15  and  O_35
REMARK    6  A    between atoms: C_16  and  C_23
REMARK    7  A    between atoms: C_20  and  O_39
REMARK                            x       y       z     vdW  Elec       q    Type
REMARK                         _______ _______ _______ _____ _____    ______ ____
ROOT
ATOM      1 CL   UNL     1      34.761   0.321  39.357  0.00  0.00    +0.000 Cl
ATOM      2  O   UNL     1      31.315   6.839  36.721  0.00  0.00    +0.000 OA
ATOM      3  O   UNL     1      37.175   6.896  34.811  0.00  0.00    +0.000 OA
ATOM      4  C   UNL     1      34.966   7.117  37.444  0.00  0.00    +0.000 C 
ATOM      5  C   UNL     1      34.037   4.684  37.869  0.00  0.00    +0.000 C 
ATOM      6  C   UNL     1      34.922   5.781  37.891  0.00  0.00    +0.000 C 
ATOM      7  C   UNL     1      33.671   7.564  36.806  0.00  0.00    +0.000 C 
ATOM      8  C   UNL     1      36.184   7.628  36.840  0.00  0.00    +0.000 C 
ATOM      9  C   UNL     1      34.197   3.367  38.577  0.00  0.00    +0.000 C 
ATOM     10  C   UNL     1      32.777   5.028  37.245  0.00  0.00    +0.000 C 
ATOM     11  C   UNL     1      32.488   6.490  36.916  0.00  0.00    +0.000 C 
ATOM     12  C   UNL     1      33.823   7.923  35.325  0.00  0.00    +0.000 C 
ATOM     13  C   UNL     1      33.277   2.277  38.049  0.00  0.00    +0.000 A 
ATOM     14  C   UNL     1      36.235   7.451  35.362  0.00  0.00    +0.000 C 
ATOM     15  C   UNL     1      31.860   4.078  36.987  0.00  0.00    +0.000 C 
ATOM     16  C   UNL     1      34.988   7.855  34.639  0.00  0.00    +0.000 C 
ATOM     17  C   UNL     1      32.152   2.633  37.244  0.00  0.00    +0.000 A 
ATOM     18  C   UNL     1      33.990   3.601  40.087  0.00  0.00    +0.000 C 
ATOM     19  C   UNL     1      33.494   0.909  38.338  0.00  0.00    +0.000 A 
ATOM     20  C   UNL     1      31.353   1.596  36.714  0.00  0.00    +0.000 A 
ATOM     21  C   UNL     1      32.662  -0.082  37.824  0.00  0.00    +0.000 A 
ATOM     22  C   UNL     1      31.604   0.257  37.002  0.00  0.00    +0.000 A 
ENDROOT
BRANCH  16  23
ATOM     23  C   UNL     1      35.109   8.262  33.210  0.00  0.00    +0.000 C 
ATOM     24  O   UNL     1      35.258   7.444  32.312  0.00  0.00    +0.000 OA
ATOM     25  N   UNL     1      35.065   9.594  32.942  0.00  0.00    +0.000 N 
ATOM     26  H   UNL     1      35.227  10.269  33.682  0.00  0.00    +0.000 HD
ATOM     27  H   UNL     1      35.267   9.875  31.991  0.00  0.00    +0.000 HD
ENDBRANCH  16  23
BRANCH   8  28
ATOM     28  N   UNL     1      36.934   8.697  37.445  0.00  0.00    +0.000 NA
ATOM     29  C   UNL     1      36.800   9.976  36.762  0.00  0.00    +0.000 C 
ATOM     30  C   UNL     1      36.632   8.904  38.846  0.00  0.00    +0.000 C 
ENDBRANCH   8  28
BRANCH  12  31
ATOM     31  O   UNL     1      32.667   8.417  34.713  0.00  0.00    +0.000 OA
ATOM     32  H   UNL     1      31.946   8.436  35.383  0.00  0.00    +0.000 HD
ENDBRANCH  12  31
BRANCH   7  33
ATOM     33  O   UNL     1      33.265   8.781  37.434  0.00  0.00    +0.000 OA
ATOM     34  H   UNL     1      34.062   9.228  37.774  0.00  0.00    +0.000 HD
ENDBRANCH   7  33
BRANCH  15  35
ATOM     35  O   UNL     1      30.603   4.361  36.498  0.00  0.00    +0.000 OA
ATOM     36  H   UNL     1      29.959   3.686  36.799  0.00  0.00    +0.000 HD
ENDBRANCH  15  35
BRANCH   9  37
ATOM     37  O   UNL     1      35.551   2.997  38.410  0.00  0.00    +0.000 OA
ATOM     38  H   UNL     1      35.560   2.117  38.829  0.00  0.00    +0.000 HD
ENDBRANCH   9  37
BRANCH  20  39
ATOM     39  O   UNL     1      30.321   1.856  35.853  0.00  0.00    +0.000 OA
ATOM     40  H   UNL     1      29.978   1.019  35.496  0.00  0.00    +0.000 HD
ENDBRANCH  20  39
TORSDOF 7
ENDMDL
