MODEL 1
REMARK VINA RESULT:      -6.2      0.000      0.000
REMARK  Name = Ciclopirox.pdbqt.pdb
REMARK  2 active torsions:
REMARK  status: ('A' for Active; 'I' for Inactive)
REMARK    1  A    between atoms: N_2  and  O_15
REMARK    2  A    between atoms: C_3  and  C_9
REMARK                            x       y       z     vdW  Elec       q    Type
REMARK                         _______ _______ _______ _____ _____    ______ ____
ROOT
ATOM      1  O   UNL     1      44.150  -7.806   7.751  0.00  0.00    +0.000 OA
ATOM      2  N   UNL     1      44.519  -6.878   9.869  0.00  0.00    +0.000 N 
ATOM      3  C   UNL     1      44.003  -6.169  10.963  0.00  0.00    +0.000 C 
ATOM      4  C   UNL     1      42.761  -5.812  10.754  0.00  0.00    +0.000 C 
ATOM      5  C   UNL     1      41.798  -5.931   9.709  0.00  0.00    +0.000 C 
ATOM      6  C   UNL     1      43.767  -7.156   8.713  0.00  0.00    +0.000 C 
ATOM      7  C   UNL     1      42.436  -6.602   8.797  0.00  0.00    +0.000 C 
ATOM      8  C   UNL     1      40.926  -4.775   9.350  0.00  0.00    +0.000 C 
ENDROOT
BRANCH   3   9
ATOM      9  C   UNL     1      44.724  -5.880  12.169  0.00  0.00    +0.000 A 
ATOM     10  C   UNL     1      44.112  -5.798  13.475  0.00  0.00    +0.000 A 
ATOM     11  C   UNL     1      44.667  -5.260  14.813  0.00  0.00    +0.000 A 
ATOM     12  C   UNL     1      46.108  -4.716  14.781  0.00  0.00    +0.000 A 
ATOM     13  C   UNL     1      46.850  -4.760  13.432  0.00  0.00    +0.000 A 
ATOM     14  C   UNL     1      46.064  -5.352  12.241  0.00  0.00    +0.000 A 
ENDBRANCH   3   9
BRANCH   2  15
ATOM     15  O   UNL     1      45.816  -7.420   9.955  0.00  0.00    +0.000 OA
ATOM     16  H   UNL     1      45.642  -8.345  10.223  0.00  0.00    +0.000 HD
ENDBRANCH   2  15
TORSDOF 2
ENDMDL
MODEL 2
REMARK VINA RESULT:      -6.1     15.723     18.151
REMARK  Name = Ciclopirox.pdbqt.pdb
REMARK  2 active torsions:
REMARK  status: ('A' for Active; 'I' for Inactive)
REMARK    1  A    between atoms: N_2  and  O_15
REMARK    2  A    between atoms: C_3  and  C_9
REMARK                            x       y       z     vdW  Elec       q    Type
REMARK                         _______ _______ _______ _____ _____    ______ ____
ROOT
ATOM      1  O   UNL     1      30.843  -3.961  14.188  0.00  0.00    +0.000 OA
ATOM      2  N   UNL     1      28.640  -3.181  14.041  0.00  0.00    +0.000 N 
ATOM      3  C   UNL     1      27.366  -3.098  14.621  0.00  0.00    +0.000 C 
ATOM      4  C   UNL     1      27.314  -3.765  15.747  0.00  0.00    +0.000 C 
ATOM      5  C   UNL     1      28.194  -4.566  16.532  0.00  0.00    +0.000 C 
ATOM      6  C   UNL     1      29.703  -3.893  14.625  0.00  0.00    +0.000 C 
ATOM      7  C   UNL     1      29.304  -4.531  15.857  0.00  0.00    +0.000 C 
ATOM      8  C   UNL     1      27.708  -5.831  17.157  0.00  0.00    +0.000 C 
ENDROOT
BRANCH   3   9
ATOM      9  C   UNL     1      26.260  -2.369  14.073  0.00  0.00    +0.000 A 
ATOM     10  C   UNL     1      26.285  -1.711  12.787  0.00  0.00    +0.000 A 
ATOM     11  C   UNL     1      25.306  -0.692  12.161  0.00  0.00    +0.000 A 
ATOM     12  C   UNL     1      24.095  -0.294  13.025  0.00  0.00    +0.000 A 
ATOM     13  C   UNL     1      23.976  -0.944  14.416  0.00  0.00    +0.000 A 
ATOM     14  C   UNL     1      25.094  -1.936  14.803  0.00  0.00    +0.000 A 
ENDBRANCH   3   9
BRANCH   2  15
ATOM     15  O   UNL     1      28.906  -2.448  12.868  0.00  0.00    +0.000 OA
ATOM     16  H   UNL     1      28.455  -2.979  12.179  0.00  0.00    +0.000 HD
ENDBRANCH   2  15
TORSDOF 2
ENDMDL
MODEL 3
REMARK VINA RESULT:      -5.8     36.964     38.267
REMARK  Name = Ciclopirox.pdbqt.pdb
REMARK  2 active torsions:
REMARK  status: ('A' for Active; 'I' for Inactive)
REMARK    1  A    between atoms: N_2  and  O_15
REMARK    2  A    between atoms: C_3  and  C_9
REMARK                            x       y       z     vdW  Elec       q    Type
REMARK                         _______ _______ _______ _____ _____    ______ ____
ROOT
ATOM      1  O   UNL     1      15.017   8.643  25.199  0.00  0.00    +0.000 OA
ATOM      2  N   UNL     1      14.052   8.815  27.326  0.00  0.00    +0.000 N 
ATOM      3  C   UNL     1      13.556   8.162  28.463  0.00  0.00    +0.000 C 
ATOM      4  C   UNL     1      13.599   6.861  28.320  0.00  0.00    +0.000 C 
ATOM      5  C   UNL     1      13.995   5.930  27.316  0.00  0.00    +0.000 C 
ATOM      6  C   UNL     1      14.532   8.128  26.196  0.00  0.00    +0.000 C 
ATOM      7  C   UNL     1      14.420   6.697  26.356  0.00  0.00    +0.000 C 
ATOM      8  C   UNL     1      13.161   4.726  27.030  0.00  0.00    +0.000 C 
ENDROOT
BRANCH   3   9
ATOM      9  C   UNL     1      13.075   8.819  29.643  0.00  0.00    +0.000 A 
ATOM     10  C   UNL     1      13.934   9.373  30.664  0.00  0.00    +0.000 A 
ATOM     11  C   UNL     1      13.607   9.876  32.089  0.00  0.00    +0.000 A 
ATOM     12  C   UNL     1      12.130   9.785  32.518  0.00  0.00    +0.000 A 
ATOM     13  C   UNL     1      11.132   9.209  31.498  0.00  0.00    +0.000 A 
ATOM     14  C   UNL     1      11.721   8.778  30.136  0.00  0.00    +0.000 A 
ENDBRANCH   3   9
BRANCH   2  15
ATOM     15  O   UNL     1      14.166  10.219  27.338  0.00  0.00    +0.000 OA
ATOM     16  H   UNL     1      14.104  10.428  28.293  0.00  0.00    +0.000 HD
ENDBRANCH   2  15
TORSDOF 2
ENDMDL
MODEL 4
REMARK VINA RESULT:      -5.7     33.255     34.709
REMARK  Name = Ciclopirox.pdbqt.pdb
REMARK  2 active torsions:
REMARK  status: ('A' for Active; 'I' for Inactive)
REMARK    1  A    between atoms: N_2  and  O_15
REMARK    2  A    between atoms: C_3  and  C_9
REMARK                            x       y       z     vdW  Elec       q    Type
REMARK                         _______ _______ _______ _____ _____    ______ ____
ROOT
ATOM      1  O   UNL     1      14.563   8.668  26.212  0.00  0.00    +0.000 OA
ATOM      2  N   UNL     1      15.284   6.449  26.011  0.00  0.00    +0.000 N 
ATOM      3  C   UNL     1      15.084   5.100  26.334  0.00  0.00    +0.000 C 
ATOM      4  C   UNL     1      14.056   4.951  27.132  0.00  0.00    +0.000 C 
ATOM      5  C   UNL     1      13.099   5.788  27.775  0.00  0.00    +0.000 C 
ATOM      6  C   UNL     1      14.463   7.483  26.496  0.00  0.00    +0.000 C 
ATOM      7  C   UNL     1      13.429   6.977  27.369  0.00  0.00    +0.000 C 
ATOM      8  C   UNL     1      12.705   5.537  29.192  0.00  0.00    +0.000 C 
ENDROOT
BRANCH   3   9
ATOM      9  C   UNL     1      15.882   4.012  25.849  0.00  0.00    +0.000 A 
ATOM     10  C   UNL     1      15.357   2.905  25.083  0.00  0.00    +0.000 A 
ATOM     11  C   UNL     1      15.998   1.551  24.705  0.00  0.00    +0.000 A 
ATOM     12  C   UNL     1      17.433   1.313  25.213  0.00  0.00    +0.000 A 
ATOM     13  C   UNL     1      18.085   2.437  26.039  0.00  0.00    +0.000 A 
ATOM     14  C   UNL     1      17.223   3.698  26.275  0.00  0.00    +0.000 A 
ENDBRANCH   3   9
BRANCH   2  15
ATOM     15  O   UNL     1      16.293   6.789  25.089  0.00  0.00    +0.000 OA
ATOM     16  H   UNL     1      16.478   7.725  25.312  0.00  0.00    +0.000 HD
ENDBRANCH   2  15
TORSDOF 2
ENDMDL
MODEL 5
REMARK VINA RESULT:      -5.5     38.071     39.495
REMARK  Name = Ciclopirox.pdbqt.pdb
REMARK  2 active torsions:
REMARK  status: ('A' for Active; 'I' for Inactive)
REMARK    1  A    between atoms: N_2  and  O_15
REMARK    2  A    between atoms: C_3  and  C_9
REMARK                            x       y       z     vdW  Elec       q    Type
REMARK                         _______ _______ _______ _____ _____    ______ ____
ROOT
ATOM      1  O   UNL     1      14.333   9.284  33.920  0.00  0.00    +0.000 OA
ATOM      2  N   UNL     1      14.129   8.912  31.617  0.00  0.00    +0.000 N 
ATOM      3  C   UNL     1      13.431   9.168  30.428  0.00  0.00    +0.000 C 
ATOM      4  C   UNL     1      12.393   9.937  30.643  0.00  0.00    +0.000 C 
ATOM      5  C   UNL     1      11.771  10.569  31.759  0.00  0.00    +0.000 C 
ATOM      6  C   UNL     1      13.739   9.437  32.862  0.00  0.00    +0.000 C 
ATOM      7  C   UNL     1      12.537  10.231  32.753  0.00  0.00    +0.000 C 
ATOM      8  C   UNL     1      10.285  10.571  31.895  0.00  0.00    +0.000 C 
ENDROOT
BRANCH   3   9
ATOM      9  C   UNL     1      13.802   8.672  29.134  0.00  0.00    +0.000 A 
ATOM     10  C   UNL     1      14.206   9.516  28.033  0.00  0.00    +0.000 A 
ATOM     11  C   UNL     1      14.389   9.191  26.533  0.00  0.00    +0.000 A 
ATOM     12  C   UNL     1      14.102   7.737  26.114  0.00  0.00    +0.000 A 
ATOM     13  C   UNL     1      13.666   6.756  27.217  0.00  0.00    +0.000 A 
ATOM     14  C   UNL     1      13.560   7.338  28.644  0.00  0.00    +0.000 A 
ENDBRANCH   3   9
BRANCH   2  15
ATOM     15  O   UNL     1      15.327   8.174  31.561  0.00  0.00    +0.000 OA
ATOM     16  H   UNL     1      15.502   7.981  32.505  0.00  0.00    +0.000 HD
ENDBRANCH   2  15
TORSDOF 2
ENDMDL
MODEL 6
REMARK VINA RESULT:      -5.5      3.309      5.603
REMARK  Name = Ciclopirox.pdbqt.pdb
REMARK  2 active torsions:
REMARK  status: ('A' for Active; 'I' for Inactive)
REMARK    1  A    between atoms: N_2  and  O_15
REMARK    2  A    between atoms: C_3  and  C_9
REMARK                            x       y       z     vdW  Elec       q    Type
REMARK                         _______ _______ _______ _____ _____    ______ ____
ROOT
ATOM      1  O   UNL     1      47.093  -2.854  13.800  0.00  0.00    +0.000 OA
ATOM      2  N   UNL     1      45.217  -3.735  12.711  0.00  0.00    +0.000 N 
ATOM      3  C   UNL     1      43.927  -3.524  12.205  0.00  0.00    +0.000 C 
ATOM      4  C   UNL     1      43.517  -2.303  12.446  0.00  0.00    +0.000 C 
ATOM      5  C   UNL     1      44.020  -1.139  13.097  0.00  0.00    +0.000 C 
ATOM      6  C   UNL     1      45.951  -2.739  13.380  0.00  0.00    +0.000 C 
ATOM      7  C   UNL     1      45.200  -1.511  13.494  0.00  0.00    +0.000 C 
ATOM      8  C   UNL     1      43.131  -0.321  13.974  0.00  0.00    +0.000 C 
ENDROOT
BRANCH   3   9
ATOM      9  C   UNL     1      43.150  -4.502  11.501  0.00  0.00    +0.000 A 
ATOM     10  C   UNL     1      42.629  -4.309  10.166  0.00  0.00    +0.000 A 
ATOM     11  C   UNL     1      41.585  -5.122   9.368  0.00  0.00    +0.000 A 
ATOM     12  C   UNL     1      40.985  -6.346  10.085  0.00  0.00    +0.000 A 
ATOM     13  C   UNL     1      41.477  -6.639  11.515  0.00  0.00    +0.000 A 
ATOM     14  C   UNL     1      42.532  -5.666  12.085  0.00  0.00    +0.000 A 
ENDBRANCH   3   9
BRANCH   2  15
ATOM     15  O   UNL     1      45.854  -4.967  12.464  0.00  0.00    +0.000 OA
ATOM     16  H   UNL     1      46.572  -4.972  13.131  0.00  0.00    +0.000 HD
ENDBRANCH   2  15
TORSDOF 2
ENDMDL
MODEL 7
REMARK VINA RESULT:      -5.5     34.350     35.785
REMARK  Name = Ciclopirox.pdbqt.pdb
REMARK  2 active torsions:
REMARK  status: ('A' for Active; 'I' for Inactive)
REMARK    1  A    between atoms: N_2  and  O_15
REMARK    2  A    between atoms: C_3  and  C_9
REMARK                            x       y       z     vdW  Elec       q    Type
REMARK                         _______ _______ _______ _____ _____    ______ ____
ROOT
ATOM      1  O   UNL     1      13.054   1.754  27.006  0.00  0.00    +0.000 OA
ATOM      2  N   UNL     1      13.527   4.045  27.120  0.00  0.00    +0.000 N 
ATOM      3  C   UNL     1      14.397   5.097  26.802  0.00  0.00    +0.000 C 
ATOM      4  C   UNL     1      15.464   4.659  26.183  0.00  0.00    +0.000 C 
ATOM      5  C   UNL     1      15.989   3.402  25.761  0.00  0.00    +0.000 C 
ATOM      6  C   UNL     1      13.795   2.703  26.794  0.00  0.00    +0.000 C 
ATOM      7  C   UNL     1      15.069   2.561  26.129  0.00  0.00    +0.000 C 
ATOM      8  C   UNL     1      17.438   3.090  25.939  0.00  0.00    +0.000 C 
ENDROOT
BRANCH   3   9
ATOM      9  C   UNL     1      14.156   6.480  27.096  0.00  0.00    +0.000 A 
ATOM     10  C   UNL     1      14.305   7.546  26.132  0.00  0.00    +0.000 A 
ATOM     11  C   UNL     1      14.338   9.079  26.328  0.00  0.00    +0.000 A 
ATOM     12  C   UNL     1      14.188   9.582  27.776  0.00  0.00    +0.000 A 
ATOM     13  C   UNL     1      14.021   8.521  28.879  0.00  0.00    +0.000 A 
ATOM     14  C   UNL     1      14.021   7.048  28.414  0.00  0.00    +0.000 A 
ENDBRANCH   3   9
BRANCH   2  15
ATOM     15  O   UNL     1      12.283   4.341  27.711  0.00  0.00    +0.000 OA
ATOM     16  H   UNL     1      11.978   5.111  27.188  0.00  0.00    +0.000 HD
ENDBRANCH   2  15
TORSDOF 2
ENDMDL
MODEL 8
REMARK VINA RESULT:      -5.3     33.236     34.690
REMARK  Name = Ciclopirox.pdbqt.pdb
REMARK  2 active torsions:
REMARK  status: ('A' for Active; 'I' for Inactive)
REMARK    1  A    between atoms: N_2  and  O_15
REMARK    2  A    between atoms: C_3  and  C_9
REMARK                            x       y       z     vdW  Elec       q    Type
REMARK                         _______ _______ _______ _____ _____    ______ ____
ROOT
ATOM      1  O   UNL     1      12.802   6.462  28.565  0.00  0.00    +0.000 OA
ATOM      2  N   UNL     1      14.301   5.174  27.308  0.00  0.00    +0.000 N 
ATOM      3  C   UNL     1      15.371   5.139  26.403  0.00  0.00    +0.000 C 
ATOM      4  C   UNL     1      15.717   6.347  26.032  0.00  0.00    +0.000 C 
ATOM      5  C   UNL     1      15.291   7.683  26.284  0.00  0.00    +0.000 C 
ATOM      6  C   UNL     1      13.705   6.371  27.745  0.00  0.00    +0.000 C 
ATOM      7  C   UNL     1      14.314   7.526  27.127  0.00  0.00    +0.000 C 
ATOM      8  C   UNL     1      15.197   8.670  25.168  0.00  0.00    +0.000 C 
ENDROOT
BRANCH   3   9
ATOM      9  C   UNL     1      16.023   3.947  25.946  0.00  0.00    +0.000 A 
ATOM     10  C   UNL     1      15.443   3.025  24.996  0.00  0.00    +0.000 A 
ATOM     11  C   UNL     1      15.874   1.597  24.591  0.00  0.00    +0.000 A 
ATOM     12  C   UNL     1      17.123   1.038  25.298  0.00  0.00    +0.000 A 
ATOM     13  C   UNL     1      17.817   1.947  26.330  0.00  0.00    +0.000 A 
ATOM     14  C   UNL     1      17.181   3.337  26.550  0.00  0.00    +0.000 A 
ENDBRANCH   3   9
BRANCH   2  15
ATOM     15  O   UNL     1      13.854   3.969  27.884  0.00  0.00    +0.000 OA
ATOM     16  H   UNL     1      13.310   4.282  28.636  0.00  0.00    +0.000 HD
ENDBRANCH   2  15
TORSDOF 2
ENDMDL
MODEL 9
REMARK VINA RESULT:      -5.2     35.417     37.326
REMARK  Name = Ciclopirox.pdbqt.pdb
REMARK  2 active torsions:
REMARK  status: ('A' for Active; 'I' for Inactive)
REMARK    1  A    between atoms: N_2  and  O_15
REMARK    2  A    between atoms: C_3  and  C_9
REMARK                            x       y       z     vdW  Elec       q    Type
REMARK                         _______ _______ _______ _____ _____    ______ ____
ROOT
ATOM      1  O   UNL     1      26.677  26.983   3.368  0.00  0.00    +0.000 OA
ATOM      2  N   UNL     1      25.439  25.088   2.764  0.00  0.00    +0.000 N 
ATOM      3  C   UNL     1      24.340  24.255   3.017  0.00  0.00    +0.000 C 
ATOM      4  C   UNL     1      23.682  24.648   4.079  0.00  0.00    +0.000 C 
ATOM      5  C   UNL     1      23.791  25.679   5.058  0.00  0.00    +0.000 C 
ATOM      6  C   UNL     1      25.760  26.198   3.566  0.00  0.00    +0.000 C 
ATOM      7  C   UNL     1      24.841  26.340   4.672  0.00  0.00    +0.000 C 
ATOM      8  C   UNL     1      23.552  25.380   6.500  0.00  0.00    +0.000 C 
ENDROOT
BRANCH   3   9
ATOM      9  C   UNL     1      23.962  23.127   2.217  0.00  0.00    +0.000 A 
ATOM     10  C   UNL     1      23.117  23.214   1.048  0.00  0.00    +0.000 A 
ATOM     11  C   UNL     1      22.414  22.105   0.232  0.00  0.00    +0.000 A 
ATOM     12  C   UNL     1      22.632  20.661   0.720  0.00  0.00    +0.000 A 
ATOM     13  C   UNL     1      23.522  20.461   1.961  0.00  0.00    +0.000 A 
ATOM     14  C   UNL     1      24.109  21.743   2.593  0.00  0.00    +0.000 A 
ENDBRANCH   3   9
BRANCH   2  15
ATOM     15  O   UNL     1      26.210  24.870   1.606  0.00  0.00    +0.000 OA
ATOM     16  H   UNL     1      25.547  24.954   0.890  0.00  0.00    +0.000 HD
ENDBRANCH   2  15
TORSDOF 2
ENDMDL
