MODEL 1
REMARK VINA RESULT:      -5.4      0.000      0.000
REMARK  Name = 
REMARK  14 active torsions:
REMARK  status: ('A' for Active; 'I' for Inactive)
REMARK    1  A    between atoms: S_2  and  C_21
REMARK    2  A    between atoms: S_2  and  C_27
REMARK    3  A    between atoms: O_4  and  C_16
REMARK    4  A    between atoms: O_5  and  C_18
REMARK    5  A    between atoms: O_6  and  C_20
REMARK    6  A    between atoms: N_8  and  C_23
REMARK    7  A    between atoms: N_9  and  C_15
REMARK    8  A    between atoms: C_10  and  C_17
REMARK    9  A    between atoms: C_11  and  C_19
REMARK   10  A    between atoms: C_14  and  C_15
REMARK   11  A    between atoms: C_15  and  C_22
REMARK   12  A    between atoms: C_17  and  C_24
REMARK   13  A    between atoms: C_22  and  C_25
REMARK   14  A    between atoms: C_24  and  C_26
REMARK                            x       y       z     vdW  Elec       q    Type
REMARK                         _______ _______ _______ _____ _____    ______ ____
ROOT
ATOM      1  C   UNL     1      26.635  -3.787  29.070  0.00  0.00    +0.000 C 
ENDROOT
BRANCH   1   3
ATOM      2  O   UNL     1      26.046  -2.552  31.066  0.00  0.00    +0.000 OA
ATOM      3  C   UNL     1      25.760  -2.634  29.654  0.00  0.00    +0.000 C 
ATOM      4  C   UNL     1      25.993  -1.274  28.963  0.00  0.00    +0.000 C 
ATOM      5  C   UNL     1      25.191  -0.169  29.662  0.00  0.00    +0.000 C 
ATOM      6  C   UNL     1      25.516  -0.142  31.162  0.00  0.00    +0.000 C 
ATOM      7  C   UNL     1      25.327  -1.543  31.780  0.00  0.00    +0.000 C 
BRANCH   7   8
ATOM      8  S   UNL     1      23.553  -1.990  31.992  0.00  0.00    +0.000 S 
ATOM      9  C   UNL     1      23.775  -3.642  32.693  0.00  0.00    +0.000 C 
ENDBRANCH   7   8
BRANCH   4  10
ATOM     10  O   UNL     1      27.378  -0.891  29.003  0.00  0.00    +0.000 OA
ATOM     11  H   UNL     1      27.842  -1.571  29.546  0.00  0.00    +0.000 HD
ENDBRANCH   4  10
BRANCH   5  12
ATOM     12  O   UNL     1      25.510   1.091  29.052  0.00  0.00    +0.000 OA
ATOM     13  H   UNL     1      26.471   1.209  29.196  0.00  0.00    +0.000 HD
ENDBRANCH   5  12
BRANCH   6  14
ATOM     14  O   UNL     1      24.747   0.851  31.855  0.00  0.00    +0.000 OA
ATOM     15  H   UNL     1      24.316   0.406  32.606  0.00  0.00    +0.000 HD
ENDBRANCH   6  14
ENDBRANCH   1   3
BRANCH   1  17
ATOM     16  O   UNL     1      29.070  -4.014  27.674  0.00  0.00    +0.000 OA
ATOM     17  N   UNL     1      26.825  -3.660  27.616  0.00  0.00    +0.000 N 
ATOM     18  C   UNL     1      28.055  -3.823  27.006  0.00  0.00    +0.000 C 
ATOM     19  H   UNL     1      26.017  -3.409  27.054  0.00  0.00    +0.000 HD
BRANCH  18  22
ATOM     20  N   UNL     1      29.271  -4.106  24.840  0.00  0.00    +0.000 NA
ATOM     21  C   UNL     1      27.670  -5.406  23.806  0.00  0.00    +0.000 C 
ATOM     22  C   UNL     1      28.013  -3.666  25.473  0.00  0.00    +0.000 C 
ATOM     23  C   UNL     1      26.931  -4.548  24.835  0.00  0.00    +0.000 C 
ATOM     24  C   UNL     1      28.917  -4.583  23.506  0.00  0.00    +0.000 C 
ATOM     25  C   UNL     1      30.293  -3.070  24.812  0.00  0.00    +0.000 C 
BRANCH  21  26
ATOM     26  C   UNL     1      26.860  -5.735  22.550  0.00  0.00    +0.000 C 
BRANCH  26  27
ATOM     27  C   UNL     1      25.450  -5.142  22.593  0.00  0.00    +0.000 C 
ATOM     28  C   UNL     1      24.391  -6.231  22.650  0.00  0.00    +0.000 C 
ENDBRANCH  26  27
ENDBRANCH  21  26
ENDBRANCH  18  22
ENDBRANCH   1  17
BRANCH   1  30
ATOM     29 CL   UNL     1      25.301  -5.955  27.985  0.00  0.00    +0.000 Cl
ATOM     30  C   UNL     1      26.064  -5.188  29.423  0.00  0.00    +0.000 C 
ATOM     31  C   UNL     1      27.144  -6.127  29.957  0.00  0.00    +0.000 C 
ENDBRANCH   1  30
TORSDOF 10
ENDMDL
MODEL 2
REMARK VINA RESULT:      -4.8     23.801     27.143
REMARK  Name = 
REMARK  14 active torsions:
REMARK  status: ('A' for Active; 'I' for Inactive)
REMARK    1  A    between atoms: S_2  and  C_21
REMARK    2  A    between atoms: S_2  and  C_27
REMARK    3  A    between atoms: O_4  and  C_16
REMARK    4  A    between atoms: O_5  and  C_18
REMARK    5  A    between atoms: O_6  and  C_20
REMARK    6  A    between atoms: N_8  and  C_23
REMARK    7  A    between atoms: N_9  and  C_15
REMARK    8  A    between atoms: C_10  and  C_17
REMARK    9  A    between atoms: C_11  and  C_19
REMARK   10  A    between atoms: C_14  and  C_15
REMARK   11  A    between atoms: C_15  and  C_22
REMARK   12  A    between atoms: C_17  and  C_24
REMARK   13  A    between atoms: C_22  and  C_25
REMARK   14  A    between atoms: C_24  and  C_26
REMARK                            x       y       z     vdW  Elec       q    Type
REMARK                         _______ _______ _______ _____ _____    ______ ____
ROOT
ATOM      1  C   UNL     1      20.662  21.814  31.546  0.00  0.00    +0.000 C 
ENDROOT
BRANCH   1   3
ATOM      2  O   UNL     1      21.060  19.446  31.246  0.00  0.00    +0.000 OA
ATOM      3  C   UNL     1      21.748  20.710  31.360  0.00  0.00    +0.000 C 
ATOM      4  C   UNL     1      22.668  20.950  30.143  0.00  0.00    +0.000 C 
ATOM      5  C   UNL     1      23.630  19.771  29.953  0.00  0.00    +0.000 C 
ATOM      6  C   UNL     1      22.848  18.453  29.862  0.00  0.00    +0.000 C 
ATOM      7  C   UNL     1      21.902  18.303  31.070  0.00  0.00    +0.000 C 
BRANCH   7   8
ATOM      8  S   UNL     1      22.796  17.871  32.621  0.00  0.00    +0.000 S 
ATOM      9  C   UNL     1      22.000  16.282  32.956  0.00  0.00    +0.000 C 
ENDBRANCH   7   8
BRANCH   4  10
ATOM     10  O   UNL     1      21.912  21.087  28.928  0.00  0.00    +0.000 OA
ATOM     11  H   UNL     1      21.254  20.352  28.922  0.00  0.00    +0.000 HD
ENDBRANCH   4  10
BRANCH   5  12
ATOM     12  O   UNL     1      24.397  19.988  28.759  0.00  0.00    +0.000 OA
ATOM     13  H   UNL     1      25.032  19.244  28.724  0.00  0.00    +0.000 HD
ENDBRANCH   5  12
BRANCH   6  14
ATOM     14  O   UNL     1      23.723  17.323  29.730  0.00  0.00    +0.000 OA
ATOM     15  H   UNL     1      24.542  17.538  30.212  0.00  0.00    +0.000 HD
ENDBRANCH   6  14
ENDBRANCH   1   3
BRANCH   1  17
ATOM     16  O   UNL     1      20.495  23.754  29.512  0.00  0.00    +0.000 OA
ATOM     17  N   UNL     1      21.241  23.166  31.577  0.00  0.00    +0.000 N 
ATOM     18  C   UNL     1      21.080  24.073  30.546  0.00  0.00    +0.000 C 
ATOM     19  H   UNL     1      21.809  23.418  32.380  0.00  0.00    +0.000 HD
BRANCH  18  22
ATOM     20  N   UNL     1      23.179  25.425  30.411  0.00  0.00    +0.000 NA
ATOM     21  C   UNL     1      22.295  27.162  29.176  0.00  0.00    +0.000 C 
ATOM     22  C   UNL     1      21.757  25.434  30.804  0.00  0.00    +0.000 C 
ATOM     23  C   UNL     1      21.131  26.554  29.962  0.00  0.00    +0.000 C 
ATOM     24  C   UNL     1      23.508  26.794  30.022  0.00  0.00    +0.000 C 
ATOM     25  C   UNL     1      24.058  24.910  31.451  0.00  0.00    +0.000 C 
BRANCH  21  26
ATOM     26  C   UNL     1      22.181  28.668  28.929  0.00  0.00    +0.000 C 
BRANCH  26  27
ATOM     27  C   UNL     1      22.114  29.011  27.439  0.00  0.00    +0.000 C 
ATOM     28  C   UNL     1      23.117  28.197  26.637  0.00  0.00    +0.000 C 
ENDBRANCH  26  27
ENDBRANCH  21  26
ENDBRANCH  18  22
ENDBRANCH   1  17
BRANCH   1  30
ATOM     29 CL   UNL     1      20.816  21.420  34.281  0.00  0.00    +0.000 Cl
ATOM     30  C   UNL     1      19.791  21.567  32.809  0.00  0.00    +0.000 C 
ATOM     31  C   UNL     1      18.779  22.689  33.034  0.00  0.00    +0.000 C 
ENDBRANCH   1  30
TORSDOF 10
ENDMDL
MODEL 3
REMARK VINA RESULT:      -4.8     24.336     27.274
REMARK  Name = 
REMARK  14 active torsions:
REMARK  status: ('A' for Active; 'I' for Inactive)
REMARK    1  A    between atoms: S_2  and  C_21
REMARK    2  A    between atoms: S_2  and  C_27
REMARK    3  A    between atoms: O_4  and  C_16
REMARK    4  A    between atoms: O_5  and  C_18
REMARK    5  A    between atoms: O_6  and  C_20
REMARK    6  A    between atoms: N_8  and  C_23
REMARK    7  A    between atoms: N_9  and  C_15
REMARK    8  A    between atoms: C_10  and  C_17
REMARK    9  A    between atoms: C_11  and  C_19
REMARK   10  A    between atoms: C_14  and  C_15
REMARK   11  A    between atoms: C_15  and  C_22
REMARK   12  A    between atoms: C_17  and  C_24
REMARK   13  A    between atoms: C_22  and  C_25
REMARK   14  A    between atoms: C_24  and  C_26
REMARK                            x       y       z     vdW  Elec       q    Type
REMARK                         _______ _______ _______ _____ _____    ______ ____
ROOT
ATOM      1  C   UNL     1      14.581   4.206   7.174  0.00  0.00    +0.000 C 
ENDROOT
BRANCH   1   3
ATOM      2  O   UNL     1      14.306   4.279   4.770  0.00  0.00    +0.000 OA
ATOM      3  C   UNL     1      15.301   4.076   5.796  0.00  0.00    +0.000 C 
ATOM      4  C   UNL     1      16.481   5.057   5.624  0.00  0.00    +0.000 C 
ATOM      5  C   UNL     1      17.065   4.956   4.209  0.00  0.00    +0.000 C 
ATOM      6  C   UNL     1      15.962   5.156   3.161  0.00  0.00    +0.000 C 
ATOM      7  C   UNL     1      14.786   4.194   3.426  0.00  0.00    +0.000 C 
BRANCH   7   8
ATOM      8  S   UNL     1      15.170   2.457   2.948  0.00  0.00    +0.000 S 
ATOM      9  C   UNL     1      13.921   2.251   1.656  0.00  0.00    +0.000 C 
ENDBRANCH   7   8
BRANCH   4  10
ATOM     10  O   UNL     1      16.068   6.420   5.821  0.00  0.00    +0.000 OA
ATOM     11  H   UNL     1      16.185   6.612   6.782  0.00  0.00    +0.000 HD
ENDBRANCH   4  10
BRANCH   5  12
ATOM     12  O   UNL     1      18.091   5.949   4.060  0.00  0.00    +0.000 OA
ATOM     13  H   UNL     1      18.269   5.991   3.099  0.00  0.00    +0.000 HD
ENDBRANCH   5  12
BRANCH   6  14
ATOM     14  O   UNL     1      16.466   5.021   1.824  0.00  0.00    +0.000 OA
ATOM     15  H   UNL     1      17.043   4.236   1.814  0.00  0.00    +0.000 HD
ENDBRANCH   6  14
ENDBRANCH   1   3
BRANCH   1  17
ATOM     16  O   UNL     1      11.815   4.733   7.145  0.00  0.00    +0.000 OA
ATOM     17  N   UNL     1      13.939   5.518   7.346  0.00  0.00    +0.000 N 
ATOM     18  C   UNL     1      12.566   5.684   7.355  0.00  0.00    +0.000 C 
ATOM     19  H   UNL     1      14.541   6.332   7.426  0.00  0.00    +0.000 HD
BRANCH  18  22
ATOM     20  N   UNL     1      11.462   7.330   8.879  0.00  0.00    +0.000 NA
ATOM     21  C   UNL     1      13.199   8.848   8.931  0.00  0.00    +0.000 C 
ATOM     22  C   UNL     1      12.118   7.143   7.570  0.00  0.00    +0.000 C 
ATOM     23  C   UNL     1      13.309   8.111   7.594  0.00  0.00    +0.000 C 
ATOM     24  C   UNL     1      11.721   8.711   9.277  0.00  0.00    +0.000 C 
ATOM     25  C   UNL     1      10.043   7.008   8.859  0.00  0.00    +0.000 C 
BRANCH  21  26
ATOM     26  C   UNL     1      13.668  10.304   8.898  0.00  0.00    +0.000 C 
BRANCH  26  27
ATOM     27  C   UNL     1      12.667  11.223   8.195  0.00  0.00    +0.000 C 
ATOM     28  C   UNL     1      13.257  12.603   7.953  0.00  0.00    +0.000 C 
ENDBRANCH  26  27
ENDBRANCH  21  26
ENDBRANCH  18  22
ENDBRANCH   1  17
BRANCH   1  30
ATOM     29 CL   UNL     1      15.701   5.346   9.433  0.00  0.00    +0.000 Cl
ATOM     30  C   UNL     1      15.538   3.909   8.361  0.00  0.00    +0.000 C 
ATOM     31  C   UNL     1      15.055   2.729   9.204  0.00  0.00    +0.000 C 
ENDBRANCH   1  30
TORSDOF 10
ENDMDL
MODEL 4
REMARK VINA RESULT:      -4.7     32.864     34.877
REMARK  Name = 
REMARK  14 active torsions:
REMARK  status: ('A' for Active; 'I' for Inactive)
REMARK    1  A    between atoms: S_2  and  C_21
REMARK    2  A    between atoms: S_2  and  C_27
REMARK    3  A    between atoms: O_4  and  C_16
REMARK    4  A    between atoms: O_5  and  C_18
REMARK    5  A    between atoms: O_6  and  C_20
REMARK    6  A    between atoms: N_8  and  C_23
REMARK    7  A    between atoms: N_9  and  C_15
REMARK    8  A    between atoms: C_10  and  C_17
REMARK    9  A    between atoms: C_11  and  C_19
REMARK   10  A    between atoms: C_14  and  C_15
REMARK   11  A    between atoms: C_15  and  C_22
REMARK   12  A    between atoms: C_17  and  C_24
REMARK   13  A    between atoms: C_22  and  C_25
REMARK   14  A    between atoms: C_24  and  C_26
REMARK                            x       y       z     vdW  Elec       q    Type
REMARK                         _______ _______ _______ _____ _____    ______ ____
ROOT
ATOM      1  C   UNL     1      23.236  29.573  26.300  0.00  0.00    +0.000 C 
ENDROOT
BRANCH   1   3
ATOM      2  O   UNL     1      25.578  29.846  25.755  0.00  0.00    +0.000 OA
ATOM      3  C   UNL     1      24.404  30.594  26.134  0.00  0.00    +0.000 C 
ATOM      4  C   UNL     1      24.105  31.710  25.110  0.00  0.00    +0.000 C 
ATOM      5  C   UNL     1      25.334  32.605  24.913  0.00  0.00    +0.000 C 
ATOM      6  C   UNL     1      26.556  31.757  24.535  0.00  0.00    +0.000 C 
ATOM      7  C   UNL     1      26.763  30.622  25.559  0.00  0.00    +0.000 C 
BRANCH   7   8
ATOM      8  S   UNL     1      27.454  31.226  27.156  0.00  0.00    +0.000 S 
ATOM      9  C   UNL     1      27.662  29.629  27.979  0.00  0.00    +0.000 C 
ENDBRANCH   7   8
BRANCH   4  10
ATOM     10  O   UNL     1      23.757  31.168  23.825  0.00  0.00    +0.000 OA
ATOM     11  H   UNL     1      24.481  30.545  23.578  0.00  0.00    +0.000 HD
ENDBRANCH   4  10
BRANCH   5  12
ATOM     12  O   UNL     1      25.047  33.565  23.885  0.00  0.00    +0.000 OA
ATOM     13  H   UNL     1      24.079  33.698  23.921  0.00  0.00    +0.000 HD
ENDBRANCH   5  12
BRANCH   6  14
ATOM     14  O   UNL     1      27.737  32.560  24.388  0.00  0.00    +0.000 OA
ATOM     15  H   UNL     1      27.928  32.615  23.434  0.00  0.00    +0.000 HD
ENDBRANCH   6  14
ENDBRANCH   1   3
BRANCH   1  17
ATOM     16  O   UNL     1      21.489  27.856  24.911  0.00  0.00    +0.000 OA
ATOM     17  N   UNL     1      22.037  29.969  25.545  0.00  0.00    +0.000 N 
ATOM     18  C   UNL     1      21.210  29.054  24.920  0.00  0.00    +0.000 C 
ATOM     19  H   UNL     1      21.840  30.961  25.459  0.00  0.00    +0.000 HD
BRANCH  18  22
ATOM     20  N   UNL     1      19.403  30.780  25.006  0.00  0.00    +0.000 NA
ATOM     21  C   UNL     1      19.931  31.814  23.011  0.00  0.00    +0.000 C 
ATOM     22  C   UNL     1      20.003  29.694  24.206  0.00  0.00    +0.000 C 
ATOM     23  C   UNL     1      20.406  30.364  22.885  0.00  0.00    +0.000 C 
ATOM     24  C   UNL     1      18.822  31.721  24.052  0.00  0.00    +0.000 C 
ATOM     25  C   UNL     1      18.438  30.304  25.985  0.00  0.00    +0.000 C 
BRANCH  21  26
ATOM     26  C   UNL     1      19.462  32.447  21.700  0.00  0.00    +0.000 C 
BRANCH  26  27
ATOM     27  C   UNL     1      19.440  33.976  21.765  0.00  0.00    +0.000 C 
ATOM     28  C   UNL     1      20.732  34.524  22.350  0.00  0.00    +0.000 C 
ENDBRANCH  26  27
ENDBRANCH  21  26
ENDBRANCH  18  22
ENDBRANCH   1  17
BRANCH   1  30
ATOM     29 CL   UNL     1      23.017  27.585  28.213  0.00  0.00    +0.000 Cl
ATOM     30  C   UNL     1      22.882  29.330  27.793  0.00  0.00    +0.000 C 
ATOM     31  C   UNL     1      23.788  30.125  28.732  0.00  0.00    +0.000 C 
ENDBRANCH   1  30
TORSDOF 10
ENDMDL
MODEL 5
REMARK VINA RESULT:      -4.7      3.175      4.995
REMARK  Name = 
REMARK  14 active torsions:
REMARK  status: ('A' for Active; 'I' for Inactive)
REMARK    1  A    between atoms: S_2  and  C_21
REMARK    2  A    between atoms: S_2  and  C_27
REMARK    3  A    between atoms: O_4  and  C_16
REMARK    4  A    between atoms: O_5  and  C_18
REMARK    5  A    between atoms: O_6  and  C_20
REMARK    6  A    between atoms: N_8  and  C_23
REMARK    7  A    between atoms: N_9  and  C_15
REMARK    8  A    between atoms: C_10  and  C_17
REMARK    9  A    between atoms: C_11  and  C_19
REMARK   10  A    between atoms: C_14  and  C_15
REMARK   11  A    between atoms: C_15  and  C_22
REMARK   12  A    between atoms: C_17  and  C_24
REMARK   13  A    between atoms: C_22  and  C_25
REMARK   14  A    between atoms: C_24  and  C_26
REMARK                            x       y       z     vdW  Elec       q    Type
REMARK                         _______ _______ _______ _____ _____    ______ ____
ROOT
ATOM      1  C   UNL     1      25.317  -1.727  31.497  0.00  0.00    +0.000 C 
ENDROOT
BRANCH   1   3
ATOM      2  O   UNL     1      26.263  -3.613  32.682  0.00  0.00    +0.000 OA
ATOM      3  C   UNL     1      26.068  -2.187  32.785  0.00  0.00    +0.000 C 
ATOM      4  C   UNL     1      27.411  -1.460  33.008  0.00  0.00    +0.000 C 
ATOM      5  C   UNL     1      28.145  -2.042  34.222  0.00  0.00    +0.000 C 
ATOM      6  C   UNL     1      28.305  -3.561  34.071  0.00  0.00    +0.000 C 
ATOM      7  C   UNL     1      26.940  -4.221  33.786  0.00  0.00    +0.000 C 
BRANCH   7   8
ATOM      8  S   UNL     1      25.867  -4.304  35.280  0.00  0.00    +0.000 S 
ATOM      9  C   UNL     1      24.434  -5.120  34.537  0.00  0.00    +0.000 C 
ENDBRANCH   7   8
BRANCH   4  10
ATOM     10  O   UNL     1      28.281  -1.598  31.873  0.00  0.00    +0.000 OA
ATOM     11  H   UNL     1      27.907  -2.323  31.318  0.00  0.00    +0.000 HD
ENDBRANCH   4  10
BRANCH   5  12
ATOM     12  O   UNL     1      29.428  -1.407  34.335  0.00  0.00    +0.000 OA
ATOM     13  H   UNL     1      30.021  -2.092  34.703  0.00  0.00    +0.000 HD
ENDBRANCH   5  12
BRANCH   6  14
ATOM     14  O   UNL     1      28.948  -4.145  35.213  0.00  0.00    +0.000 OA
ATOM     15  H   UNL     1      29.482  -4.893  34.889  0.00  0.00    +0.000 HD
ENDBRANCH   6  14
ENDBRANCH   1   3
BRANCH   1  17
ATOM     16  O   UNL     1      23.838  -3.668  30.091  0.00  0.00    +0.000 OA
ATOM     17  N   UNL     1      25.756  -2.466  30.302  0.00  0.00    +0.000 N 
ATOM     18  C   UNL     1      24.949  -3.380  29.649  0.00  0.00    +0.000 C 
ATOM     19  H   UNL     1      26.706  -2.314  29.975  0.00  0.00    +0.000 HD
BRANCH  18  22
ATOM     20  N   UNL     1      25.570  -3.117  27.242  0.00  0.00    +0.000 NA
ATOM     21  C   UNL     1      27.820  -3.560  27.499  0.00  0.00    +0.000 C 
ATOM     22  C   UNL     1      25.609  -4.017  28.411  0.00  0.00    +0.000 C 
ATOM     23  C   UNL     1      27.102  -4.294  28.635  0.00  0.00    +0.000 C 
ATOM     24  C   UNL     1      26.740  -3.444  26.431  0.00  0.00    +0.000 C 
ATOM     25  C   UNL     1      24.325  -3.205  26.493  0.00  0.00    +0.000 C 
BRANCH  21  26
ATOM     26  C   UNL     1      29.085  -4.254  26.991  0.00  0.00    +0.000 C 
BRANCH  26  27
ATOM     27  C   UNL     1      30.049  -3.282  26.306  0.00  0.00    +0.000 C 
ATOM     28  C   UNL     1      30.046  -3.469  24.797  0.00  0.00    +0.000 C 
ENDBRANCH  26  27
ENDBRANCH  21  26
ENDBRANCH  18  22
ENDBRANCH   1  17
BRANCH   1  30
ATOM     29 CL   UNL     1      25.722   0.173  29.525  0.00  0.00    +0.000 Cl
ATOM     30  C   UNL     1      25.443  -0.196  31.265  0.00  0.00    +0.000 C 
ATOM     31  C   UNL     1      24.195   0.556  31.725  0.00  0.00    +0.000 C 
ENDBRANCH   1  30
TORSDOF 10
ENDMDL
MODEL 6
REMARK VINA RESULT:      -4.6      3.751      7.224
REMARK  Name = 
REMARK  14 active torsions:
REMARK  status: ('A' for Active; 'I' for Inactive)
REMARK    1  A    between atoms: S_2  and  C_21
REMARK    2  A    between atoms: S_2  and  C_27
REMARK    3  A    between atoms: O_4  and  C_16
REMARK    4  A    between atoms: O_5  and  C_18
REMARK    5  A    between atoms: O_6  and  C_20
REMARK    6  A    between atoms: N_8  and  C_23
REMARK    7  A    between atoms: N_9  and  C_15
REMARK    8  A    between atoms: C_10  and  C_17
REMARK    9  A    between atoms: C_11  and  C_19
REMARK   10  A    between atoms: C_14  and  C_15
REMARK   11  A    between atoms: C_15  and  C_22
REMARK   12  A    between atoms: C_17  and  C_24
REMARK   13  A    between atoms: C_22  and  C_25
REMARK   14  A    between atoms: C_24  and  C_26
REMARK                            x       y       z     vdW  Elec       q    Type
REMARK                         _______ _______ _______ _____ _____    ______ ____
ROOT
ATOM      1  C   UNL     1      26.922  -5.038  26.072  0.00  0.00    +0.000 C 
ENDROOT
BRANCH   1   3
ATOM      2  O   UNL     1      25.478  -6.081  24.433  0.00  0.00    +0.000 OA
ATOM      3  C   UNL     1      25.641  -4.868  25.198  0.00  0.00    +0.000 C 
ATOM      4  C   UNL     1      24.371  -4.560  26.021  0.00  0.00    +0.000 C 
ATOM      5  C   UNL     1      23.136  -4.522  25.114  0.00  0.00    +0.000 C 
ATOM      6  C   UNL     1      23.025  -5.824  24.309  0.00  0.00    +0.000 C 
ATOM      7  C   UNL     1      24.344  -6.109  23.562  0.00  0.00    +0.000 C 
BRANCH   7   8
ATOM      8  S   UNL     1      24.582  -5.017  22.099  0.00  0.00    +0.000 S 
ATOM      9  C   UNL     1      24.419  -6.266  20.801  0.00  0.00    +0.000 C 
ENDBRANCH   7   8
BRANCH   4  10
ATOM     10  O   UNL     1      24.136  -5.561  27.026  0.00  0.00    +0.000 OA
ATOM     11  H   UNL     1      23.446  -6.165  26.663  0.00  0.00    +0.000 HD
ENDBRANCH   4  10
BRANCH   5  12
ATOM     12  O   UNL     1      21.969  -4.331  25.928  0.00  0.00    +0.000 OA
ATOM     13  H   UNL     1      21.872  -5.161  26.436  0.00  0.00    +0.000 HD
ENDBRANCH   5  12
BRANCH   6  14
ATOM     14  O   UNL     1      21.904  -5.803  23.413  0.00  0.00    +0.000 OA
ATOM     15  H   UNL     1      21.104  -5.937  23.954  0.00  0.00    +0.000 HD
ENDBRANCH   6  14
ENDBRANCH   1   3
BRANCH   1  17
ATOM     16  O   UNL     1      26.579  -5.525  28.824  0.00  0.00    +0.000 OA
ATOM     17  N   UNL     1      26.997  -4.042  27.152  0.00  0.00    +0.000 N 
ATOM     18  C   UNL     1      26.851  -4.374  28.487  0.00  0.00    +0.000 C 
ATOM     19  H   UNL     1      27.126  -3.070  26.890  0.00  0.00    +0.000 HD
BRANCH  18  22
ATOM     20  N   UNL     1      27.996  -2.205  28.972  0.00  0.00    +0.000 NA
ATOM     21  C   UNL     1      26.081  -0.932  29.159  0.00  0.00    +0.000 C 
ATOM     22  C   UNL     1      26.987  -3.174  29.444  0.00  0.00    +0.000 C 
ATOM     23  C   UNL     1      25.687  -2.363  29.535  0.00  0.00    +0.000 C 
ATOM     24  C   UNL     1      27.573  -0.897  29.464  0.00  0.00    +0.000 C 
ATOM     25  C   UNL     1      29.351  -2.547  29.377  0.00  0.00    +0.000 C 
BRANCH  21  26
ATOM     26  C   UNL     1      25.300   0.158  29.895  0.00  0.00    +0.000 C 
BRANCH  26  27
ATOM     27  C   UNL     1      24.979  -0.227  31.340  0.00  0.00    +0.000 C 
ATOM     28  C   UNL     1      23.911   0.678  31.932  0.00  0.00    +0.000 C 
ENDBRANCH  26  27
ENDBRANCH  21  26
ENDBRANCH  18  22
ENDBRANCH   1  17
BRANCH   1  30
ATOM     29 CL   UNL     1      27.951  -4.126  23.669  0.00  0.00    +0.000 Cl
ATOM     30  C   UNL     1      28.218  -5.009  25.215  0.00  0.00    +0.000 C 
ATOM     31  C   UNL     1      29.379  -4.346  25.956  0.00  0.00    +0.000 C 
ENDBRANCH   1  30
TORSDOF 10
ENDMDL
MODEL 7
REMARK VINA RESULT:      -4.6      4.861      9.855
REMARK  Name = 
REMARK  14 active torsions:
REMARK  status: ('A' for Active; 'I' for Inactive)
REMARK    1  A    between atoms: S_2  and  C_21
REMARK    2  A    between atoms: S_2  and  C_27
REMARK    3  A    between atoms: O_4  and  C_16
REMARK    4  A    between atoms: O_5  and  C_18
REMARK    5  A    between atoms: O_6  and  C_20
REMARK    6  A    between atoms: N_8  and  C_23
REMARK    7  A    between atoms: N_9  and  C_15
REMARK    8  A    between atoms: C_10  and  C_17
REMARK    9  A    between atoms: C_11  and  C_19
REMARK   10  A    between atoms: C_14  and  C_15
REMARK   11  A    between atoms: C_15  and  C_22
REMARK   12  A    between atoms: C_17  and  C_24
REMARK   13  A    between atoms: C_22  and  C_25
REMARK   14  A    between atoms: C_24  and  C_26
REMARK                            x       y       z     vdW  Elec       q    Type
REMARK                         _______ _______ _______ _____ _____    ______ ____
ROOT
ATOM      1  C   UNL     1      25.353  -1.748  33.540  0.00  0.00    +0.000 C 
ENDROOT
BRANCH   1   3
ATOM      2  O   UNL     1      25.501  -2.642  31.296  0.00  0.00    +0.000 OA
ATOM      3  C   UNL     1      25.888  -1.504  32.096  0.00  0.00    +0.000 C 
ATOM      4  C   UNL     1      25.383  -0.188  31.466  0.00  0.00    +0.000 C 
ATOM      5  C   UNL     1      25.852  -0.072  30.010  0.00  0.00    +0.000 C 
ATOM      6  C   UNL     1      25.434  -1.315  29.214  0.00  0.00    +0.000 C 
ATOM      7  C   UNL     1      25.911  -2.597  29.927  0.00  0.00    +0.000 C 
BRANCH   7   8
ATOM      8  S   UNL     1      27.723  -2.875  29.749  0.00  0.00    +0.000 S 
ATOM      9  C   UNL     1      27.667  -4.368  28.730  0.00  0.00    +0.000 C 
ENDBRANCH   7   8
BRANCH   4  10
ATOM     10  O   UNL     1      23.948  -0.121  31.461  0.00  0.00    +0.000 OA
ATOM     11  H   UNL     1      23.685   0.344  32.291  0.00  0.00    +0.000 HD
ENDBRANCH   4  10
BRANCH   5  12
ATOM     12  O   UNL     1      25.282   1.113  29.434  0.00  0.00    +0.000 OA
ATOM     13  H   UNL     1      25.623   1.142  28.518  0.00  0.00    +0.000 HD
ENDBRANCH   5  12
BRANCH   6  14
ATOM     14  O   UNL     1      25.898  -1.260  27.857  0.00  0.00    +0.000 OA
ATOM     15  H   UNL     1      25.517  -2.027  27.393  0.00  0.00    +0.000 HD
ENDBRANCH   6  14
ENDBRANCH   1   3
BRANCH   1  17
ATOM     16  O   UNL     1      22.912  -1.961  34.928  0.00  0.00    +0.000 OA
ATOM     17  N   UNL     1      24.520  -0.635  34.022  0.00  0.00    +0.000 N 
ATOM     18  C   UNL     1      23.349  -0.829  34.730  0.00  0.00    +0.000 C 
ATOM     19  H   UNL     1      24.812   0.309  33.787  0.00  0.00    +0.000 HD
BRANCH  18  22
ATOM     20  N   UNL     1      22.888   0.797  36.573  0.00  0.00    +0.000 NA
ATOM     21  C   UNL     1      23.669   2.670  35.474  0.00  0.00    +0.000 C 
ATOM     22  C   UNL     1      22.653   0.481  35.151  0.00  0.00    +0.000 C 
ATOM     23  C   UNL     1      23.206   1.694  34.390  0.00  0.00    +0.000 C 
ATOM     24  C   UNL     1      22.843   2.253  36.685  0.00  0.00    +0.000 C 
ATOM     25  C   UNL     1      21.952   0.136  37.469  0.00  0.00    +0.000 C 
BRANCH  21  26
ATOM     26  C   UNL     1      23.496   4.148  35.119  0.00  0.00    +0.000 C 
BRANCH  26  27
ATOM     27  C   UNL     1      24.267   5.070  36.065  0.00  0.00    +0.000 C 
ATOM     28  C   UNL     1      23.341   6.063  36.750  0.00  0.00    +0.000 C 
ENDBRANCH  26  27
ENDBRANCH  21  26
ENDBRANCH  18  22
ENDBRANCH   1  17
BRANCH   1  30
ATOM     29 CL   UNL     1      26.419  -3.739  35.140  0.00  0.00    +0.000 Cl
ATOM     30  C   UNL     1      26.501  -2.042  34.545  0.00  0.00    +0.000 C 
ATOM     31  C   UNL     1      27.878  -1.814  33.923  0.00  0.00    +0.000 C 
ENDBRANCH   1  30
TORSDOF 10
ENDMDL
MODEL 8
REMARK VINA RESULT:      -4.6     31.822     34.264
REMARK  Name = 
REMARK  14 active torsions:
REMARK  status: ('A' for Active; 'I' for Inactive)
REMARK    1  A    between atoms: S_2  and  C_21
REMARK    2  A    between atoms: S_2  and  C_27
REMARK    3  A    between atoms: O_4  and  C_16
REMARK    4  A    between atoms: O_5  and  C_18
REMARK    5  A    between atoms: O_6  and  C_20
REMARK    6  A    between atoms: N_8  and  C_23
REMARK    7  A    between atoms: N_9  and  C_15
REMARK    8  A    between atoms: C_10  and  C_17
REMARK    9  A    between atoms: C_11  and  C_19
REMARK   10  A    between atoms: C_14  and  C_15
REMARK   11  A    between atoms: C_15  and  C_22
REMARK   12  A    between atoms: C_17  and  C_24
REMARK   13  A    between atoms: C_22  and  C_25
REMARK   14  A    between atoms: C_24  and  C_26
REMARK                            x       y       z     vdW  Elec       q    Type
REMARK                         _______ _______ _______ _____ _____    ______ ____
ROOT
ATOM      1  C   UNL     1      19.487  30.015  25.027  0.00  0.00    +0.000 C 
ENDROOT
BRANCH   1   3
ATOM      2  O   UNL     1      17.306  31.022  24.734  0.00  0.00    +0.000 OA
ATOM      3  C   UNL     1      18.224  30.574  25.753  0.00  0.00    +0.000 C 
ATOM      4  C   UNL     1      17.550  29.550  26.692  0.00  0.00    +0.000 C 
ATOM      5  C   UNL     1      16.255  30.126  27.279  0.00  0.00    +0.000 C 
ATOM      6  C   UNL     1      15.329  30.607  26.154  0.00  0.00    +0.000 C 
ATOM      7  C   UNL     1      16.078  31.575  25.215  0.00  0.00    +0.000 C 
BRANCH   7   8
ATOM      8  S   UNL     1      16.326  33.239  25.963  0.00  0.00    +0.000 S 
ATOM      9  C   UNL     1      17.248  34.007  24.610  0.00  0.00    +0.000 C 
ENDBRANCH   7   8
BRANCH   4  10
ATOM     10  O   UNL     1      17.206  28.341  25.996  0.00  0.00    +0.000 OA
ATOM     11  H   UNL     1      16.236  28.211  26.121  0.00  0.00    +0.000 HD
ENDBRANCH   4  10
BRANCH   5  12
ATOM     12  O   UNL     1      15.612  29.112  28.065  0.00  0.00    +0.000 OA
ATOM     13  H   UNL     1      14.923  28.734  27.482  0.00  0.00    +0.000 HD
ENDBRANCH   5  12
BRANCH   6  14
ATOM     14  O   UNL     1      14.126  31.195  26.670  0.00  0.00    +0.000 OA
ATOM     15  H   UNL     1      13.395  30.590  26.452  0.00  0.00    +0.000 HD
ENDBRANCH   6  14
ENDBRANCH   1   3
BRANCH   1  17
ATOM     16  O   UNL     1      21.083  27.704  24.829  0.00  0.00    +0.000 OA
ATOM     17  N   UNL     1      20.531  29.589  25.973  0.00  0.00    +0.000 N 
ATOM     18  C   UNL     1      21.297  28.454  25.780  0.00  0.00    +0.000 C 
ATOM     19  H   UNL     1      20.659  30.142  26.815  0.00  0.00    +0.000 HD
BRANCH  18  22
ATOM     20  N   UNL     1      23.090  29.444  27.213  0.00  0.00    +0.000 NA
ATOM     21  C   UNL     1      22.183  28.817  29.241  0.00  0.00    +0.000 C 
ATOM     22  C   UNL     1      22.342  28.214  26.887  0.00  0.00    +0.000 C 
ATOM     23  C   UNL     1      21.689  27.797  28.212  0.00  0.00    +0.000 C 
ATOM     24  C   UNL     1      23.475  29.332  28.618  0.00  0.00    +0.000 C 
ATOM     25  C   UNL     1      24.227  29.673  26.335  0.00  0.00    +0.000 C 
BRANCH  21  26
ATOM     26  C   UNL     1      22.388  28.255  30.649  0.00  0.00    +0.000 C 
BRANCH  26  27
ATOM     27  C   UNL     1      21.702  26.901  30.842  0.00  0.00    +0.000 C 
ATOM     28  C   UNL     1      20.488  27.018  31.751  0.00  0.00    +0.000 C 
ENDBRANCH  26  27
ENDBRANCH  21  26
ENDBRANCH  18  22
ENDBRANCH   1  17
BRANCH   1  30
ATOM     29 CL   UNL     1      21.678  31.630  24.526  0.00  0.00    +0.000 Cl
ATOM     30  C   UNL     1      20.064  31.028  24.001  0.00  0.00    +0.000 C 
ATOM     31  C   UNL     1      20.206  30.414  22.609  0.00  0.00    +0.000 C 
ENDBRANCH   1  30
TORSDOF 10
ENDMDL
MODEL 9
REMARK VINA RESULT:      -4.5     29.923     33.102
REMARK  Name = 
REMARK  14 active torsions:
REMARK  status: ('A' for Active; 'I' for Inactive)
REMARK    1  A    between atoms: S_2  and  C_21
REMARK    2  A    between atoms: S_2  and  C_27
REMARK    3  A    between atoms: O_4  and  C_16
REMARK    4  A    between atoms: O_5  and  C_18
REMARK    5  A    between atoms: O_6  and  C_20
REMARK    6  A    between atoms: N_8  and  C_23
REMARK    7  A    between atoms: N_9  and  C_15
REMARK    8  A    between atoms: C_10  and  C_17
REMARK    9  A    between atoms: C_11  and  C_19
REMARK   10  A    between atoms: C_14  and  C_15
REMARK   11  A    between atoms: C_15  and  C_22
REMARK   12  A    between atoms: C_17  and  C_24
REMARK   13  A    between atoms: C_22  and  C_25
REMARK   14  A    between atoms: C_24  and  C_26
REMARK                            x       y       z     vdW  Elec       q    Type
REMARK                         _______ _______ _______ _____ _____    ______ ____
ROOT
ATOM      1  C   UNL     1      22.471  30.424  28.081  0.00  0.00    +0.000 C 
ENDROOT
BRANCH   1   3
ATOM      2  O   UNL     1      22.149  31.137  25.791  0.00  0.00    +0.000 OA
ATOM      3  C   UNL     1      21.622  30.235  26.786  0.00  0.00    +0.000 C 
ATOM      4  C   UNL     1      21.610  28.782  26.265  0.00  0.00    +0.000 C 
ATOM      5  C   UNL     1      20.858  28.692  24.932  0.00  0.00    +0.000 C 
ATOM      6  C   UNL     1      21.444  29.687  23.920  0.00  0.00    +0.000 C 
ATOM      7  C   UNL     1      21.488  31.106  24.523  0.00  0.00    +0.000 C 
BRANCH   7   8
ATOM      8  S   UNL     1      19.826  31.894  24.602  0.00  0.00    +0.000 S 
ATOM      9  C   UNL     1      20.037  33.100  23.271  0.00  0.00    +0.000 C 
ENDBRANCH   7   8
BRANCH   4  10
ATOM     10  O   UNL     1      22.942  28.290  26.040  0.00  0.00    +0.000 OA
ATOM     11  H   UNL     1      23.539  28.818  26.623  0.00  0.00    +0.000 HD
ENDBRANCH   4  10
BRANCH   5  12
ATOM     12  O   UNL     1      20.955  27.349  24.435  0.00  0.00    +0.000 OA
ATOM     13  H   UNL     1      20.669  26.780  25.177  0.00  0.00    +0.000 HD
ENDBRANCH   5  12
BRANCH   6  14
ATOM     14  O   UNL     1      20.732  29.662  22.675  0.00  0.00    +0.000 OA
ATOM     15  H   UNL     1      19.969  30.260  22.770  0.00  0.00    +0.000 HD
ENDBRANCH   6  14
ENDBRANCH   1   3
BRANCH   1  17
ATOM     16  O   UNL     1      24.831  29.173  28.972  0.00  0.00    +0.000 OA
ATOM     17  N   UNL     1      22.560  29.189  28.876  0.00  0.00    +0.000 N 
ATOM     18  C   UNL     1      23.764  28.660  29.304  0.00  0.00    +0.000 C 
ATOM     19  H   UNL     1      21.696  28.696  29.081  0.00  0.00    +0.000 HD
BRANCH  18  22
ATOM     20  N   UNL     1      23.649  27.649  31.588  0.00  0.00    +0.000 NA
ATOM     21  C   UNL     1      21.630  26.571  31.298  0.00  0.00    +0.000 C 
ATOM     22  C   UNL     1      23.615  27.373  30.138  0.00  0.00    +0.000 C 
ATOM     23  C   UNL     1      22.258  26.693  29.907  0.00  0.00    +0.000 C 
ATOM     24  C   UNL     1      22.839  26.614  32.224  0.00  0.00    +0.000 C 
ATOM     25  C   UNL     1      25.000  27.716  32.126  0.00  0.00    +0.000 C 
BRANCH  21  26
ATOM     26  C   UNL     1      20.772  25.321  31.502  0.00  0.00    +0.000 C 
BRANCH  26  27
ATOM     27  C   UNL     1      21.377  24.082  30.838  0.00  0.00    +0.000 C 
ATOM     28  C   UNL     1      20.418  23.469  29.830  0.00  0.00    +0.000 C 
ENDBRANCH  26  27
ENDBRANCH  21  26
ENDBRANCH  18  22
ENDBRANCH   1  17
BRANCH   1  30
ATOM     29 CL   UNL     1      22.872  33.106  28.638  0.00  0.00    +0.000 Cl
ATOM     30  C   UNL     1      21.945  31.596  28.956  0.00  0.00    +0.000 C 
ATOM     31  C   UNL     1      20.464  31.876  28.706  0.00  0.00    +0.000 C 
ENDBRANCH   1  30
TORSDOF 10
ENDMDL
