MODEL 1
REMARK VINA RESULT:      -8.0      0.000      0.000
REMARK  Name = 
REMARK  5 active torsions:
REMARK  status: ('A' for Active; 'I' for Inactive)
REMARK    1  A    between atoms: O_5  and  C_10
REMARK    2  A    between atoms: N_9  and  C_20
REMARK    3  A    between atoms: N_9  and  C_25
REMARK    4  A    between atoms: C_10  and  C_11
REMARK    5  A    between atoms: C_18  and  C_19
REMARK                            x       y       z     vdW  Elec       q    Type
REMARK                         _______ _______ _______ _____ _____    ______ ____
ROOT
ATOM      1  F   UNL     1      44.570  -6.555  12.778  0.00  0.00    +0.000 F 
ATOM      2  F   UNL     1      43.979  -6.531  15.412  0.00  0.00    +0.000 F 
ATOM      3  C   UNL     1      43.447  -3.118  13.191  0.00  0.00    +0.000 A 
ATOM      4  C   UNL     1      43.941  -4.271  12.539  0.00  0.00    +0.000 A 
ATOM      5  C   UNL     1      43.129  -3.118  14.559  0.00  0.00    +0.000 A 
ATOM      6  C   UNL     1      44.120  -5.416  13.326  0.00  0.00    +0.000 A 
ATOM      7  C   UNL     1      43.310  -4.278  15.308  0.00  0.00    +0.000 A 
ATOM      8  C   UNL     1      43.804  -5.417  14.686  0.00  0.00    +0.000 A 
ENDROOT
BRANCH   3  14
ATOM      9  O   UNL     1      42.489  -1.858  11.476  0.00  0.00    +0.000 OA
ATOM     10  N   UNL     1      44.059  -0.798  12.785  0.00  0.00    +0.000 N 
ATOM     11  C   UNL     1      45.825   0.097  12.125  0.00  0.00    +0.000 C 
ATOM     12  C   UNL     1      45.421  -0.818  13.315  0.00  0.00    +0.000 C 
ATOM     13  C   UNL     1      44.302   0.389  11.968  0.00  0.00    +0.000 C 
ATOM     14  C   UNL     1      43.273  -1.869  12.419  0.00  0.00    +0.000 C 
BRANCH  11  16
ATOM     15  N   UNL     1      47.330   0.345  10.170  0.00  0.00    +0.000 NA
ATOM     16  C   UNL     1      46.425  -0.599  10.874  0.00  0.00    +0.000 C 
ATOM     17  C   UNL     1      47.212  -1.865  11.255  0.00  0.00    +0.000 C 
ATOM     18  C   UNL     1      47.819  -2.525  10.017  0.00  0.00    +0.000 C 
ATOM     19  C   UNL     1      47.808  -0.257   8.917  0.00  0.00    +0.000 C 
ATOM     20  C   UNL     1      48.618  -1.524   9.190  0.00  0.00    +0.000 C 
ATOM     21  H   UNL     1      48.152   0.492  10.762  0.00  0.00    +0.000 HD
ENDBRANCH  11  16
BRANCH  11  22
ATOM     22  O   UNL     1      46.632   1.255  12.489  0.00  0.00    +0.000 OA
ATOM     23  H   UNL     1      46.694   1.752  11.651  0.00  0.00    +0.000 HD
ENDBRANCH  11  22
ENDBRANCH   3  14
BRANCH   4  24
ATOM     24  N   UNL     1      44.307  -4.206  11.177  0.00  0.00    +0.000 N 
ATOM     25  H   UNL     1      44.524  -3.256  10.855  0.00  0.00    +0.000 HD
BRANCH  24  28
ATOM     26  I   UNL     1      45.610  -8.715   6.972  0.00  0.00    +0.000 I 
ATOM     27  F   UNL     1      42.346  -5.644   9.915  0.00  0.00    +0.000 F 
ATOM     28  C   UNL     1      44.653  -5.197  10.238  0.00  0.00    +0.000 A 
ATOM     29  C   UNL     1      43.624  -5.930   9.618  0.00  0.00    +0.000 A 
ATOM     30  C   UNL     1      45.969  -5.523   9.900  0.00  0.00    +0.000 A 
ATOM     31  C   UNL     1      43.879  -6.935   8.689  0.00  0.00    +0.000 A 
ATOM     32  C   UNL     1      46.243  -6.533   8.967  0.00  0.00    +0.000 A 
ATOM     33  C   UNL     1      45.198  -7.232   8.364  0.00  0.00    +0.000 A 
ENDBRANCH  24  28
ENDBRANCH   4  24
TORSDOF 5
ENDMDL
MODEL 2
REMARK VINA RESULT:      -7.8      3.090      4.735
REMARK  Name = 
REMARK  5 active torsions:
REMARK  status: ('A' for Active; 'I' for Inactive)
REMARK    1  A    between atoms: O_5  and  C_10
REMARK    2  A    between atoms: N_9  and  C_20
REMARK    3  A    between atoms: N_9  and  C_25
REMARK    4  A    between atoms: C_10  and  C_11
REMARK    5  A    between atoms: C_18  and  C_19
REMARK                            x       y       z     vdW  Elec       q    Type
REMARK                         _______ _______ _______ _____ _____    ______ ____
ROOT
ATOM      1  F   UNL     1      41.773  -0.688  12.894  0.00  0.00    +0.000 F 
ATOM      2  F   UNL     1      41.703   1.362  14.649  0.00  0.00    +0.000 F 
ATOM      3  C   UNL     1      45.211   0.490  12.700  0.00  0.00    +0.000 A 
ATOM      4  C   UNL     1      44.077  -0.307  12.424  0.00  0.00    +0.000 A 
ATOM      5  C   UNL     1      45.162   1.565  13.604  0.00  0.00    +0.000 A 
ATOM      6  C   UNL     1      42.897   0.011  13.112  0.00  0.00    +0.000 A 
ATOM      7  C   UNL     1      43.971   1.857  14.262  0.00  0.00    +0.000 A 
ATOM      8  C   UNL     1      42.848   1.078  14.010  0.00  0.00    +0.000 A 
ENDROOT
BRANCH   3  14
ATOM      9  O   UNL     1      46.639   0.486  10.853  0.00  0.00    +0.000 OA
ATOM     10  N   UNL     1      47.434  -0.495  12.778  0.00  0.00    +0.000 N 
ATOM     11  C   UNL     1      48.096  -2.464  12.985  0.00  0.00    +0.000 C 
ATOM     12  C   UNL     1      47.212  -1.495  13.821  0.00  0.00    +0.000 C 
ATOM     13  C   UNL     1      48.599  -1.193  12.237  0.00  0.00    +0.000 C 
ATOM     14  C   UNL     1      46.494   0.179  12.032  0.00  0.00    +0.000 C 
BRANCH  11  16
ATOM     15  N   UNL     1      48.159  -3.648  10.806  0.00  0.00    +0.000 NA
ATOM     16  C   UNL     1      47.358  -3.452  12.042  0.00  0.00    +0.000 C 
ATOM     17  C   UNL     1      47.129  -4.815  12.719  0.00  0.00    +0.000 C 
ATOM     18  C   UNL     1      46.426  -5.786  11.770  0.00  0.00    +0.000 C 
ATOM     19  C   UNL     1      47.415  -4.482   9.852  0.00  0.00    +0.000 C 
ATOM     20  C   UNL     1      47.147  -5.871  10.429  0.00  0.00    +0.000 C 
ATOM     21  H   UNL     1      49.004  -4.167  11.060  0.00  0.00    +0.000 HD
ENDBRANCH  11  16
BRANCH  11  22
ATOM     22  O   UNL     1      49.121  -3.168  13.745  0.00  0.00    +0.000 OA
ATOM     23  H   UNL     1      49.837  -3.285  13.092  0.00  0.00    +0.000 HD
ENDBRANCH  11  22
ENDBRANCH   3  14
BRANCH   4  24
ATOM     24  N   UNL     1      44.189  -1.415  11.557  0.00  0.00    +0.000 N 
ATOM     25  H   UNL     1      44.919  -1.305  10.843  0.00  0.00    +0.000 HD
BRANCH  24  28
ATOM     26  I   UNL     1      41.935  -7.280  12.033  0.00  0.00    +0.000 I 
ATOM     27  F   UNL     1      44.189  -2.797  13.922  0.00  0.00    +0.000 F 
ATOM     28  C   UNL     1      43.665  -2.720  11.610  0.00  0.00    +0.000 A 
ATOM     29  C   UNL     1      43.693  -3.411  12.836  0.00  0.00    +0.000 A 
ATOM     30  C   UNL     1      43.138  -3.393  10.505  0.00  0.00    +0.000 A 
ATOM     31  C   UNL     1      43.208  -4.708  12.973  0.00  0.00    +0.000 A 
ATOM     32  C   UNL     1      42.646  -4.700  10.625  0.00  0.00    +0.000 A 
ATOM     33  C   UNL     1      42.680  -5.350  11.858  0.00  0.00    +0.000 A 
ENDBRANCH  24  28
ENDBRANCH   4  24
TORSDOF 5
ENDMDL
MODEL 3
REMARK VINA RESULT:      -7.3      3.641      5.995
REMARK  Name = 
REMARK  5 active torsions:
REMARK  status: ('A' for Active; 'I' for Inactive)
REMARK    1  A    between atoms: O_5  and  C_10
REMARK    2  A    between atoms: N_9  and  C_20
REMARK    3  A    between atoms: N_9  and  C_25
REMARK    4  A    between atoms: C_10  and  C_11
REMARK    5  A    between atoms: C_18  and  C_19
REMARK                            x       y       z     vdW  Elec       q    Type
REMARK                         _______ _______ _______ _____ _____    ______ ____
ROOT
ATOM      1  F   UNL     1      44.563   1.061  12.749  0.00  0.00    +0.000 F 
ATOM      2  F   UNL     1      45.960   3.329  13.185  0.00  0.00    +0.000 F 
ATOM      3  C   UNL     1      47.368   0.577  10.482  0.00  0.00    +0.000 A 
ATOM      4  C   UNL     1      46.160   0.294  11.157  0.00  0.00    +0.000 A 
ATOM      5  C   UNL     1      48.082   1.767  10.704  0.00  0.00    +0.000 A 
ATOM      6  C   UNL     1      45.710   1.249  12.080  0.00  0.00    +0.000 A 
ATOM      7  C   UNL     1      47.600   2.698  11.621  0.00  0.00    +0.000 A 
ATOM      8  C   UNL     1      46.418   2.431  12.301  0.00  0.00    +0.000 A 
ENDROOT
BRANCH   3  14
ATOM      9  O   UNL     1      47.350  -0.560   8.444  0.00  0.00    +0.000 OA
ATOM     10  N   UNL     1      48.999  -1.146   9.941  0.00  0.00    +0.000 N 
ATOM     11  C   UNL     1      49.346  -3.050  10.721  0.00  0.00    +0.000 C 
ATOM     12  C   UNL     1      49.314  -1.604  11.292  0.00  0.00    +0.000 C 
ATOM     13  C   UNL     1      49.470  -2.382   9.319  0.00  0.00    +0.000 C 
ATOM     14  C   UNL     1      47.912  -0.410   9.524  0.00  0.00    +0.000 C 
BRANCH  11  16
ATOM     15  N   UNL     1      47.670  -4.444   9.537  0.00  0.00    +0.000 NA
ATOM     16  C   UNL     1      48.049  -3.891  10.863  0.00  0.00    +0.000 C 
ATOM     17  C   UNL     1      48.233  -5.050  11.859  0.00  0.00    +0.000 C 
ATOM     18  C   UNL     1      46.957  -5.885  11.969  0.00  0.00    +0.000 C 
ATOM     19  C   UNL     1      46.378  -5.138   9.632  0.00  0.00    +0.000 C 
ATOM     20  C   UNL     1      46.460  -6.321  10.595  0.00  0.00    +0.000 C 
ATOM     21  H   UNL     1      48.368  -5.147   9.280  0.00  0.00    +0.000 HD
ENDBRANCH  11  16
BRANCH  11  22
ATOM     22  O   UNL     1      50.502  -3.842  11.122  0.00  0.00    +0.000 OA
ATOM     23  H   UNL     1      50.764  -3.435  11.969  0.00  0.00    +0.000 HD
ENDBRANCH  11  22
ENDBRANCH   3  14
BRANCH   4  24
ATOM     24  N   UNL     1      45.511  -0.942  10.949  0.00  0.00    +0.000 N 
ATOM     25  H   UNL     1      45.426  -1.200   9.959  0.00  0.00    +0.000 HD
BRANCH  24  28
ATOM     26  I   UNL     1      43.758  -5.696  14.695  0.00  0.00    +0.000 I 
ATOM     27  F   UNL     1      43.637  -2.791  10.190  0.00  0.00    +0.000 F 
ATOM     28  C   UNL     1      45.162  -1.990  11.821  0.00  0.00    +0.000 A 
ATOM     29  C   UNL     1      44.185  -2.916  11.410  0.00  0.00    +0.000 A 
ATOM     30  C   UNL     1      45.709  -2.157  13.096  0.00  0.00    +0.000 A 
ATOM     31  C   UNL     1      43.773  -3.974  12.216  0.00  0.00    +0.000 A 
ATOM     32  C   UNL     1      45.304  -3.216  13.921  0.00  0.00    +0.000 A 
ATOM     33  C   UNL     1      44.341  -4.120  13.476  0.00  0.00    +0.000 A 
ENDBRANCH  24  28
ENDBRANCH   4  24
TORSDOF 5
ENDMDL
MODEL 4
REMARK VINA RESULT:      -7.0      4.616      7.742
REMARK  Name = 
REMARK  5 active torsions:
REMARK  status: ('A' for Active; 'I' for Inactive)
REMARK    1  A    between atoms: O_5  and  C_10
REMARK    2  A    between atoms: N_9  and  C_20
REMARK    3  A    between atoms: N_9  and  C_25
REMARK    4  A    between atoms: C_10  and  C_11
REMARK    5  A    between atoms: C_18  and  C_19
REMARK                            x       y       z     vdW  Elec       q    Type
REMARK                         _______ _______ _______ _____ _____    ______ ____
ROOT
ATOM      1  F   UNL     1      48.052   2.300  11.606  0.00  0.00    +0.000 F 
ATOM      2  F   UNL     1      45.461   2.440  12.352  0.00  0.00    +0.000 F 
ATOM      3  C   UNL     1      46.834  -0.924  10.439  0.00  0.00    +0.000 A 
ATOM      4  C   UNL     1      47.746   0.127  10.680  0.00  0.00    +0.000 A 
ATOM      5  C   UNL     1      45.490  -0.850  10.844  0.00  0.00    +0.000 A 
ATOM      6  C   UNL     1      47.245   1.265  11.327  0.00  0.00    +0.000 A 
ATOM      7  C   UNL     1      45.029   0.293  11.492  0.00  0.00    +0.000 A 
ATOM      8  C   UNL     1      45.911   1.341  11.729  0.00  0.00    +0.000 A 
ENDROOT
BRANCH   3  14
ATOM      9  O   UNL     1      47.468  -2.081   8.514  0.00  0.00    +0.000 OA
ATOM     10  N   UNL     1      47.451  -3.278  10.480  0.00  0.00    +0.000 N 
ATOM     11  C   UNL     1      46.359  -5.013  10.867  0.00  0.00    +0.000 C 
ATOM     12  C   UNL     1      46.676  -3.704  11.644  0.00  0.00    +0.000 C 
ATOM     13  C   UNL     1      47.557  -4.634   9.946  0.00  0.00    +0.000 C 
ATOM     14  C   UNL     1      47.296  -2.135   9.727  0.00  0.00    +0.000 C 
BRANCH  11  16
ATOM     15  N   UNL     1      44.644  -6.481   9.839  0.00  0.00    +0.000 NA
ATOM     16  C   UNL     1      45.013  -5.065  10.096  0.00  0.00    +0.000 C 
ATOM     17  C   UNL     1      43.882  -4.384  10.886  0.00  0.00    +0.000 C 
ATOM     18  C   UNL     1      42.557  -4.466  10.127  0.00  0.00    +0.000 C 
ATOM     19  C   UNL     1      43.438  -6.543   9.002  0.00  0.00    +0.000 C 
ATOM     20  C   UNL     1      42.246  -5.898   9.708  0.00  0.00    +0.000 C 
ATOM     21  H   UNL     1      44.406  -6.911  10.736  0.00  0.00    +0.000 HD
ENDBRANCH  11  16
BRANCH  11  22
ATOM     22  O   UNL     1      46.545  -6.240  11.632  0.00  0.00    +0.000 OA
ATOM     23  H   UNL     1      46.660  -6.916  10.939  0.00  0.00    +0.000 HD
ENDBRANCH  11  22
ENDBRANCH   3  14
BRANCH   4  24
ATOM     24  N   UNL     1      49.070   0.034  10.200  0.00  0.00    +0.000 N 
ATOM     25  H   UNL     1      49.573  -0.793  10.542  0.00  0.00    +0.000 HD
BRANCH  24  28
ATOM     26  I   UNL     1      52.377   2.978   5.717  0.00  0.00    +0.000 I 
ATOM     27  F   UNL     1      51.717  -0.503   9.741  0.00  0.00    +0.000 F 
ATOM     28  C   UNL     1      49.761   0.714   9.179  0.00  0.00    +0.000 A 
ATOM     29  C   UNL     1      51.123   0.428   8.977  0.00  0.00    +0.000 A 
ATOM     30  C   UNL     1      49.180   1.688   8.362  0.00  0.00    +0.000 A 
ATOM     31  C   UNL     1      51.882   1.065   7.999  0.00  0.00    +0.000 A 
ATOM     32  C   UNL     1      49.930   2.339   7.373  0.00  0.00    +0.000 A 
ATOM     33  C   UNL     1      51.276   2.022   7.194  0.00  0.00    +0.000 A 
ENDBRANCH  24  28
ENDBRANCH   4  24
TORSDOF 5
ENDMDL
MODEL 5
REMARK VINA RESULT:      -6.6     33.998     36.521
REMARK  Name = 
REMARK  5 active torsions:
REMARK  status: ('A' for Active; 'I' for Inactive)
REMARK    1  A    between atoms: O_5  and  C_10
REMARK    2  A    between atoms: N_9  and  C_20
REMARK    3  A    between atoms: N_9  and  C_25
REMARK    4  A    between atoms: C_10  and  C_11
REMARK    5  A    between atoms: C_18  and  C_19
REMARK                            x       y       z     vdW  Elec       q    Type
REMARK                         _______ _______ _______ _____ _____    ______ ____
ROOT
ATOM      1  F   UNL     1      25.759  24.630   1.007  0.00  0.00    +0.000 F 
ATOM      2  F   UNL     1      27.344  24.643  -1.178  0.00  0.00    +0.000 F 
ATOM      3  C   UNL     1      23.537  23.126  -1.451  0.00  0.00    +0.000 A 
ATOM      4  C   UNL     1      23.971  23.622  -0.202  0.00  0.00    +0.000 A 
ATOM      5  C   UNL     1      24.363  23.149  -2.588  0.00  0.00    +0.000 A 
ATOM      6  C   UNL     1      25.278  24.125  -0.139  0.00  0.00    +0.000 A 
ATOM      7  C   UNL     1      25.653  23.665  -2.491  0.00  0.00    +0.000 A 
ATOM      8  C   UNL     1      26.100  24.149  -1.267  0.00  0.00    +0.000 A 
ENDROOT
BRANCH   3  14
ATOM      9  O   UNL     1      21.211  23.258  -1.326  0.00  0.00    +0.000 OA
ATOM     10  N   UNL     1      22.101  21.213  -1.898  0.00  0.00    +0.000 N 
ATOM     11  C   UNL     1      21.807  19.408  -0.893  0.00  0.00    +0.000 C 
ATOM     12  C   UNL     1      23.021  20.138  -1.535  0.00  0.00    +0.000 C 
ATOM     13  C   UNL     1      20.917  20.373  -1.732  0.00  0.00    +0.000 C 
ATOM     14  C   UNL     1      22.181  22.548  -1.570  0.00  0.00    +0.000 C 
BRANCH  11  16
ATOM     15  N   UNL     1      21.226  18.290   1.243  0.00  0.00    +0.000 NA
ATOM     16  C   UNL     1      21.603  19.592   0.634  0.00  0.00    +0.000 C 
ATOM     17  C   UNL     1      22.878  20.119   1.316  0.00  0.00    +0.000 C 
ATOM     18  C   UNL     1      22.671  20.271   2.823  0.00  0.00    +0.000 C 
ATOM     19  C   UNL     1      20.908  18.474   2.666  0.00  0.00    +0.000 C 
ATOM     20  C   UNL     1      22.123  18.988   3.439  0.00  0.00    +0.000 C 
ATOM     21  H   UNL     1      22.043  17.676   1.198  0.00  0.00    +0.000 HD
ENDBRANCH  11  16
BRANCH  11  22
ATOM     22  O   UNL     1      21.681  18.000  -1.249  0.00  0.00    +0.000 OA
ATOM     23  H   UNL     1      20.816  17.964  -1.699  0.00  0.00    +0.000 HD
ENDBRANCH  11  22
ENDBRANCH   3  14
BRANCH   4  24
ATOM     24  N   UNL     1      23.130  23.520   0.927  0.00  0.00    +0.000 N 
ATOM     25  H   UNL     1      22.653  22.614   1.002  0.00  0.00    +0.000 HD
BRANCH  24  28
ATOM     26  I   UNL     1      22.419  27.267   5.943  0.00  0.00    +0.000 I 
ATOM     27  F   UNL     1      21.950  25.986   0.758  0.00  0.00    +0.000 F 
ATOM     28  C   UNL     1      22.988  24.314   2.081  0.00  0.00    +0.000 A 
ATOM     29  C   UNL     1      22.392  25.583   1.960  0.00  0.00    +0.000 A 
ATOM     30  C   UNL     1      23.431  23.930   3.349  0.00  0.00    +0.000 A 
ATOM     31  C   UNL     1      22.225  26.436   3.047  0.00  0.00    +0.000 A 
ATOM     32  C   UNL     1      23.272  24.777   4.455  0.00  0.00    +0.000 A 
ATOM     33  C   UNL     1      22.667  26.024   4.299  0.00  0.00    +0.000 A 
ENDBRANCH  24  28
ENDBRANCH   4  24
TORSDOF 5
ENDMDL
MODEL 6
REMARK VINA RESULT:      -6.5     34.398     36.094
REMARK  Name = 
REMARK  5 active torsions:
REMARK  status: ('A' for Active; 'I' for Inactive)
REMARK    1  A    between atoms: O_5  and  C_10
REMARK    2  A    between atoms: N_9  and  C_20
REMARK    3  A    between atoms: N_9  and  C_25
REMARK    4  A    between atoms: C_10  and  C_11
REMARK    5  A    between atoms: C_18  and  C_19
REMARK                            x       y       z     vdW  Elec       q    Type
REMARK                         _______ _______ _______ _____ _____    ______ ____
ROOT
ATOM      1  F   UNL     1      19.570  21.198  -1.161  0.00  0.00    +0.000 F 
ATOM      2  F   UNL     1      20.355  20.966  -3.734  0.00  0.00    +0.000 F 
ATOM      3  C   UNL     1      23.188  21.312  -0.781  0.00  0.00    +0.000 A 
ATOM      4  C   UNL     1      21.826  21.323  -0.406  0.00  0.00    +0.000 A 
ATOM      5  C   UNL     1      23.589  21.176  -2.121  0.00  0.00    +0.000 A 
ATOM      6  C   UNL     1      20.883  21.212  -1.437  0.00  0.00    +0.000 A 
ATOM      7  C   UNL     1      22.624  21.058  -3.119  0.00  0.00    +0.000 A 
ATOM      8  C   UNL     1      21.280  21.077  -2.769  0.00  0.00    +0.000 A 
ENDROOT
BRANCH   3  14
ATOM      9  O   UNL     1      24.317  20.611   1.137  0.00  0.00    +0.000 OA
ATOM     10  N   UNL     1      25.002  22.601   0.204  0.00  0.00    +0.000 N 
ATOM     11  C   UNL     1      25.055  24.461   1.149  0.00  0.00    +0.000 C 
ATOM     12  C   UNL     1      24.613  23.936  -0.247  0.00  0.00    +0.000 C 
ATOM     13  C   UNL     1      25.827  23.116   1.295  0.00  0.00    +0.000 C 
ATOM     14  C   UNL     1      24.227  21.464   0.260  0.00  0.00    +0.000 C 
BRANCH  11  16
ATOM     15  N   UNL     1      24.417  24.059   3.511  0.00  0.00    +0.000 NA
ATOM     16  C   UNL     1      23.946  24.627   2.222  0.00  0.00    +0.000 C 
ATOM     17  C   UNL     1      23.574  26.106   2.426  0.00  0.00    +0.000 C 
ATOM     18  C   UNL     1      22.500  26.256   3.504  0.00  0.00    +0.000 C 
ATOM     19  C   UNL     1      23.333  24.096   4.503  0.00  0.00    +0.000 C 
ATOM     20  C   UNL     1      22.896  25.533   4.786  0.00  0.00    +0.000 C 
ATOM     21  H   UNL     1      25.164  24.663   3.865  0.00  0.00    +0.000 HD
ENDBRANCH  11  16
BRANCH  11  22
ATOM     22  O   UNL     1      25.902  25.647   1.116  0.00  0.00    +0.000 OA
ATOM     23  H   UNL     1      25.292  26.344   0.808  0.00  0.00    +0.000 HD
ENDBRANCH  11  22
ENDBRANCH   3  14
BRANCH   4  24
ATOM     24  N   UNL     1      21.469  21.526   0.945  0.00  0.00    +0.000 N 
ATOM     25  H   UNL     1      21.793  22.423   1.324  0.00  0.00    +0.000 HD
BRANCH  24  28
ATOM     26  I   UNL     1      17.560  18.309   4.697  0.00  0.00    +0.000 I 
ATOM     27  F   UNL     1      21.668  18.816   1.288  0.00  0.00    +0.000 F 
ATOM     28  C   UNL     1      20.576  20.857   1.802  0.00  0.00    +0.000 A 
ATOM     29  C   UNL     1      20.692  19.462   1.946  0.00  0.00    +0.000 A 
ATOM     30  C   UNL     1      19.549  21.492   2.506  0.00  0.00    +0.000 A 
ATOM     31  C   UNL     1      19.842  18.722   2.763  0.00  0.00    +0.000 A 
ATOM     32  C   UNL     1      18.683  20.762   3.332  0.00  0.00    +0.000 A 
ATOM     33  C   UNL     1      18.835  19.382   3.459  0.00  0.00    +0.000 A 
ENDBRANCH  24  28
ENDBRANCH   4  24
TORSDOF 5
ENDMDL
MODEL 7
REMARK VINA RESULT:      -6.4     35.823     37.539
REMARK  Name = 
REMARK  5 active torsions:
REMARK  status: ('A' for Active; 'I' for Inactive)
REMARK    1  A    between atoms: O_5  and  C_10
REMARK    2  A    between atoms: N_9  and  C_20
REMARK    3  A    between atoms: N_9  and  C_25
REMARK    4  A    between atoms: C_10  and  C_11
REMARK    5  A    between atoms: C_18  and  C_19
REMARK                            x       y       z     vdW  Elec       q    Type
REMARK                         _______ _______ _______ _____ _____    ______ ____
ROOT
ATOM      1  F   UNL     1      22.063  16.086  34.402  0.00  0.00    +0.000 F 
ATOM      2  F   UNL     1      20.385  14.256  33.341  0.00  0.00    +0.000 F 
ATOM      3  C   UNL     1      22.237  16.967  30.875  0.00  0.00    +0.000 A 
ATOM      4  C   UNL     1      22.504  17.032  32.261  0.00  0.00    +0.000 A 
ATOM      5  C   UNL     1      21.373  16.002  30.329  0.00  0.00    +0.000 A 
ATOM      6  C   UNL     1      21.850  16.099  33.077  0.00  0.00    +0.000 A 
ATOM      7  C   UNL     1      20.748  15.085  31.170  0.00  0.00    +0.000 A 
ATOM      8  C   UNL     1      20.992  15.140  32.536  0.00  0.00    +0.000 A 
ENDROOT
BRANCH   3  14
ATOM      9  O   UNL     1      24.002  17.730  29.552  0.00  0.00    +0.000 OA
ATOM     10  N   UNL     1      22.152  19.092  29.694  0.00  0.00    +0.000 N 
ATOM     11  C   UNL     1      22.117  21.071  30.356  0.00  0.00    +0.000 C 
ATOM     12  C   UNL     1      21.230  19.812  30.570  0.00  0.00    +0.000 C 
ATOM     13  C   UNL     1      22.705  20.320  29.124  0.00  0.00    +0.000 C 
ATOM     14  C   UNL     1      22.870  17.950  29.969  0.00  0.00    +0.000 C 
BRANCH  11  16
ATOM     15  N   UNL     1      23.949  22.587  31.060  0.00  0.00    +0.000 NA
ATOM     16  C   UNL     1      23.191  21.367  31.437  0.00  0.00    +0.000 C 
ATOM     17  C   UNL     1      22.556  21.573  32.823  0.00  0.00    +0.000 C 
ATOM     18  C   UNL     1      23.622  21.889  33.872  0.00  0.00    +0.000 C 
ATOM     19  C   UNL     1      25.050  22.808  32.008  0.00  0.00    +0.000 C 
ATOM     20  C   UNL     1      24.519  23.038  33.423  0.00  0.00    +0.000 C 
ATOM     21  H   UNL     1      23.317  23.387  31.146  0.00  0.00    +0.000 HD
ENDBRANCH  11  16
BRANCH  11  22
ATOM     22  O   UNL     1      21.384  22.289  30.033  0.00  0.00    +0.000 OA
ATOM     23  H   UNL     1      20.524  22.151  30.473  0.00  0.00    +0.000 HD
ENDBRANCH  11  22
ENDBRANCH   3  14
BRANCH   4  24
ATOM     24  N   UNL     1      23.329  18.058  32.772  0.00  0.00    +0.000 N 
ATOM     25  H   UNL     1      22.811  18.899  33.053  0.00  0.00    +0.000 HD
BRANCH  24  28
ATOM     26  I   UNL     1      29.277  18.182  34.848  0.00  0.00    +0.000 I 
ATOM     27  F   UNL     1      23.951  17.996  35.439  0.00  0.00    +0.000 F 
ATOM     28  C   UNL     1      24.675  18.079  33.182  0.00  0.00    +0.000 A 
ATOM     29  C   UNL     1      24.964  18.062  34.559  0.00  0.00    +0.000 A 
ATOM     30  C   UNL     1      25.757  18.145  32.300  0.00  0.00    +0.000 A 
ATOM     31  C   UNL     1      26.266  18.093  35.049  0.00  0.00    +0.000 A 
ATOM     32  C   UNL     1      27.074  18.178  32.776  0.00  0.00    +0.000 A 
ATOM     33  C   UNL     1      27.323  18.149  34.148  0.00  0.00    +0.000 A 
ENDBRANCH  24  28
ENDBRANCH   4  24
TORSDOF 5
ENDMDL
MODEL 8
REMARK VINA RESULT:      -6.2      4.660      7.619
REMARK  Name = 
REMARK  5 active torsions:
REMARK  status: ('A' for Active; 'I' for Inactive)
REMARK    1  A    between atoms: O_5  and  C_10
REMARK    2  A    between atoms: N_9  and  C_20
REMARK    3  A    between atoms: N_9  and  C_25
REMARK    4  A    between atoms: C_10  and  C_11
REMARK    5  A    between atoms: C_18  and  C_19
REMARK                            x       y       z     vdW  Elec       q    Type
REMARK                         _______ _______ _______ _____ _____    ______ ____
ROOT
ATOM      1  F   UNL     1      48.370   2.710  11.334  0.00  0.00    +0.000 F 
ATOM      2  F   UNL     1      45.993   3.535  12.314  0.00  0.00    +0.000 F 
ATOM      3  C   UNL     1      46.517  -0.422  11.348  0.00  0.00    +0.000 A 
ATOM      4  C   UNL     1      47.599   0.464  11.149  0.00  0.00    +0.000 A 
ATOM      5  C   UNL     1      45.288   0.012  11.873  0.00  0.00    +0.000 A 
ATOM      6  C   UNL     1      47.386   1.809  11.480  0.00  0.00    +0.000 A 
ATOM      7  C   UNL     1      45.115   1.355  12.200  0.00  0.00    +0.000 A 
ATOM      8  C   UNL     1      46.166   2.242  12.001  0.00  0.00    +0.000 A 
ENDROOT
BRANCH   3  14
ATOM      9  O   UNL     1      46.365  -2.204   9.849  0.00  0.00    +0.000 OA
ATOM     10  N   UNL     1      47.101  -2.700  11.973  0.00  0.00    +0.000 N 
ATOM     11  C   UNL     1      46.239  -4.061  13.299  0.00  0.00    +0.000 C 
ATOM     12  C   UNL     1      46.830  -2.627  13.407  0.00  0.00    +0.000 C 
ATOM     13  C   UNL     1      46.993  -4.157  11.939  0.00  0.00    +0.000 C 
ATOM     14  C   UNL     1      46.670  -1.847  10.982  0.00  0.00    +0.000 C 
BRANCH  11  16
ATOM     15  N   UNL     1      44.371  -5.454  12.447  0.00  0.00    +0.000 NA
ATOM     16  C   UNL     1      44.700  -4.177  13.131  0.00  0.00    +0.000 C 
ATOM     17  C   UNL     1      43.979  -4.130  14.490  0.00  0.00    +0.000 C 
ATOM     18  C   UNL     1      42.467  -4.272  14.312  0.00  0.00    +0.000 C 
ATOM     19  C   UNL     1      42.929  -5.519  12.170  0.00  0.00    +0.000 C 
ATOM     20  C   UNL     1      42.120  -5.492  13.465  0.00  0.00    +0.000 C 
ATOM     21  H   UNL     1      44.586  -6.219  13.092  0.00  0.00    +0.000 HD
ENDBRANCH  11  16
BRANCH  11  22
ATOM     22  O   UNL     1      46.703  -4.994  14.319  0.00  0.00    +0.000 OA
ATOM     23  H   UNL     1      46.957  -5.779  13.799  0.00  0.00    +0.000 HD
ENDBRANCH  11  22
ENDBRANCH   3  14
BRANCH   4  24
ATOM     24  N   UNL     1      48.794  -0.005  10.560  0.00  0.00    +0.000 N 
ATOM     25  H   UNL     1      48.910  -1.023  10.624  0.00  0.00    +0.000 HD
BRANCH  24  28
ATOM     26  I   UNL     1      52.854   2.710   6.580  0.00  0.00    +0.000 I 
ATOM     27  F   UNL     1      48.056   0.829   8.057  0.00  0.00    +0.000 F 
ATOM     28  C   UNL     1      49.738   0.604   9.713  0.00  0.00    +0.000 A 
ATOM     29  C   UNL     1      49.334   1.008   8.428  0.00  0.00    +0.000 A 
ATOM     30  C   UNL     1      51.076   0.811  10.061  0.00  0.00    +0.000 A 
ATOM     31  C   UNL     1      50.208   1.606   7.524  0.00  0.00    +0.000 A 
ATOM     32  C   UNL     1      51.969   1.411   9.162  0.00  0.00    +0.000 A 
ATOM     33  C   UNL     1      51.531   1.808   7.900  0.00  0.00    +0.000 A 
ENDBRANCH  24  28
ENDBRANCH   4  24
TORSDOF 5
ENDMDL
MODEL 9
REMARK VINA RESULT:      -6.2     35.226     36.820
REMARK  Name = 
REMARK  5 active torsions:
REMARK  status: ('A' for Active; 'I' for Inactive)
REMARK    1  A    between atoms: O_5  and  C_10
REMARK    2  A    between atoms: N_9  and  C_20
REMARK    3  A    between atoms: N_9  and  C_25
REMARK    4  A    between atoms: C_10  and  C_11
REMARK    5  A    between atoms: C_18  and  C_19
REMARK                            x       y       z     vdW  Elec       q    Type
REMARK                         _______ _______ _______ _____ _____    ______ ____
ROOT
ATOM      1  F   UNL     1      19.745  14.956  35.400  0.00  0.00    +0.000 F 
ATOM      2  F   UNL     1      17.304  15.601  34.446  0.00  0.00    +0.000 F 
ATOM      3  C   UNL     1      20.456  15.225  31.842  0.00  0.00    +0.000 A 
ATOM      4  C   UNL     1      20.696  15.013  33.217  0.00  0.00    +0.000 A 
ATOM      5  C   UNL     1      19.179  15.546  31.350  0.00  0.00    +0.000 A 
ATOM      6  C   UNL     1      19.602  15.157  34.081  0.00  0.00    +0.000 A 
ATOM      7  C   UNL     1      18.113  15.672  32.237  0.00  0.00    +0.000 A 
ATOM      8  C   UNL     1      18.333  15.476  33.595  0.00  0.00    +0.000 A 
ENDROOT
BRANCH   3  14
ATOM      9  O   UNL     1      22.223  14.079  30.834  0.00  0.00    +0.000 OA
ATOM     10  N   UNL     1      21.870  16.247  30.145  0.00  0.00    +0.000 N 
ATOM     11  C   UNL     1      23.249  17.811  30.218  0.00  0.00    +0.000 C 
ATOM     12  C   UNL     1      21.737  17.647  30.541  0.00  0.00    +0.000 C 
ATOM     13  C   UNL     1      23.116  16.481  29.417  0.00  0.00    +0.000 C 
ATOM     14  C   UNL     1      21.581  15.123  30.886  0.00  0.00    +0.000 C 
BRANCH  11  16
ATOM     15  N   UNL     1      25.394  18.597  31.182  0.00  0.00    +0.000 NA
ATOM     16  C   UNL     1      24.239  17.690  31.406  0.00  0.00    +0.000 C 
ATOM     17  C   UNL     1      23.566  18.050  32.742  0.00  0.00    +0.000 C 
ATOM     18  C   UNL     1      24.559  17.951  33.900  0.00  0.00    +0.000 C 
ATOM     19  C   UNL     1      26.399  18.401  32.237  0.00  0.00    +0.000 C 
ATOM     20  C   UNL     1      25.828  18.746  33.611  0.00  0.00    +0.000 C 
ATOM     21  H   UNL     1      25.058  19.560  31.267  0.00  0.00    +0.000 HD
ENDBRANCH  11  16
BRANCH  11  22
ATOM     22  O   UNL     1      23.579  18.978  29.408  0.00  0.00    +0.000 OA
ATOM     23  H   UNL     1      23.262  19.721  29.954  0.00  0.00    +0.000 HD
ENDBRANCH  11  22
ENDBRANCH   3  14
BRANCH   4  24
ATOM     24  N   UNL     1      22.008  14.754  33.672  0.00  0.00    +0.000 N 
ATOM     25  H   UNL     1      22.619  15.579  33.652  0.00  0.00    +0.000 HD
BRANCH  24  28
ATOM     26  I   UNL     1      24.687  10.034  36.872  0.00  0.00    +0.000 I 
ATOM     27  F   UNL     1      23.389  15.162  36.001  0.00  0.00    +0.000 F 
ATOM     28  C   UNL     1      22.580  13.663  34.352  0.00  0.00    +0.000 A 
ATOM     29  C   UNL     1      23.297  13.905  35.538  0.00  0.00    +0.000 A 
ATOM     30  C   UNL     1      22.505  12.341  33.906  0.00  0.00    +0.000 A 
ATOM     31  C   UNL     1      23.904  12.885  36.266  0.00  0.00    +0.000 A 
ATOM     32  C   UNL     1      23.111  11.302  34.625  0.00  0.00    +0.000 A 
ATOM     33  C   UNL     1      23.805  11.579  35.803  0.00  0.00    +0.000 A 
ENDBRANCH  24  28
ENDBRANCH   4  24
TORSDOF 5
ENDMDL
