MODEL 1
REMARK VINA RESULT:      -8.1      0.000      0.000
REMARK  Name = COUMESTROL.pdbqt.pdb
REMARK  2 active torsions:
REMARK  status: ('A' for Active; 'I' for Inactive)
REMARK    1  A    between atoms: C_16  and  O_19
REMARK    2  A    between atoms: C_18  and  O_21
REMARK                            x       y       z     vdW  Elec       q    Type
REMARK                         _______ _______ _______ _____ _____    ______ ____
ROOT
ATOM      1  O   UNL     1      46.051  -6.645  11.088  0.00  0.00    +0.000 OA
ATOM      2  O   UNL     1      42.063  -5.866  11.498  0.00  0.00    +0.000 OA
ATOM      3  O   UNL     1      41.765  -6.739   9.380  0.00  0.00    +0.000 OA
ATOM      4  C   UNL     1      43.956  -6.696  10.241  0.00  0.00    +0.000 A 
ATOM      5  C   UNL     1      44.750  -6.355  11.305  0.00  0.00    +0.000 A 
ATOM      6  C   UNL     1      44.827  -7.249   9.270  0.00  0.00    +0.000 A 
ATOM      7  C   UNL     1      44.298  -5.758  12.525  0.00  0.00    +0.000 A 
ATOM      8  C   UNL     1      46.104  -7.196   9.837  0.00  0.00    +0.000 A 
ATOM      9  C   UNL     1      42.917  -5.521  12.591  0.00  0.00    +0.000 A 
ATOM     10  C   UNL     1      42.531  -6.459  10.293  0.00  0.00    +0.000 A 
ATOM     11  C   UNL     1      44.686  -7.787   7.980  0.00  0.00    +0.000 A 
ATOM     12  C   UNL     1      45.113  -5.417  13.596  0.00  0.00    +0.000 A 
ATOM     13  C   UNL     1      47.264  -7.645   9.206  0.00  0.00    +0.000 A 
ATOM     14  C   UNL     1      42.332  -4.946  13.712  0.00  0.00    +0.000 A 
ATOM     15  C   UNL     1      45.829  -8.246   7.318  0.00  0.00    +0.000 A 
ATOM     16  C   UNL     1      47.080  -8.172   7.926  0.00  0.00    +0.000 A 
ATOM     17  C   UNL     1      44.540  -4.839  14.729  0.00  0.00    +0.000 A 
ATOM     18  C   UNL     1      43.162  -4.610  14.777  0.00  0.00    +0.000 A 
ENDROOT
BRANCH  16  19
ATOM     19  O   UNL     1      48.156  -8.640   7.220  0.00  0.00    +0.000 OA
ATOM     20  H   UNL     1      48.202  -8.160   6.375  0.00  0.00    +0.000 HD
ENDBRANCH  16  19
BRANCH  18  21
ATOM     21  O   UNL     1      42.593  -4.045  15.883  0.00  0.00    +0.000 OA
ATOM     22  H   UNL     1      43.212  -4.138  16.628  0.00  0.00    +0.000 HD
ENDBRANCH  18  21
TORSDOF 2
ENDMDL
MODEL 2
REMARK VINA RESULT:      -7.6      3.964      5.343
REMARK  Name = COUMESTROL.pdbqt.pdb
REMARK  2 active torsions:
REMARK  status: ('A' for Active; 'I' for Inactive)
REMARK    1  A    between atoms: C_16  and  O_19
REMARK    2  A    between atoms: C_18  and  O_21
REMARK                            x       y       z     vdW  Elec       q    Type
REMARK                         _______ _______ _______ _____ _____    ______ ____
ROOT
ATOM      1  O   UNL     1      42.748  -3.598  12.806  0.00  0.00    +0.000 OA
ATOM      2  O   UNL     1      45.435  -0.967  11.209  0.00  0.00    +0.000 OA
ATOM      3  O   UNL     1      46.262  -2.717   9.947  0.00  0.00    +0.000 OA
ATOM      4  C   UNL     1      44.470  -3.178  11.402  0.00  0.00    +0.000 A 
ATOM      5  C   UNL     1      43.601  -2.665  12.329  0.00  0.00    +0.000 A 
ATOM      6  C   UNL     1      44.140  -4.551  11.282  0.00  0.00    +0.000 A 
ATOM      7  C   UNL     1      43.562  -1.304  12.772  0.00  0.00    +0.000 A 
ATOM      8  C   UNL     1      43.076  -4.761  12.164  0.00  0.00    +0.000 A 
ATOM      9  C   UNL     1      44.515  -0.462  12.179  0.00  0.00    +0.000 A 
ATOM     10  C   UNL     1      45.456  -2.324  10.781  0.00  0.00    +0.000 A 
ATOM     11  C   UNL     1      44.616  -5.639  10.532  0.00  0.00    +0.000 A 
ATOM     12  C   UNL     1      42.676  -0.796  13.713  0.00  0.00    +0.000 A 
ATOM     13  C   UNL     1      42.445  -5.989  12.357  0.00  0.00    +0.000 A 
ATOM     14  C   UNL     1      44.599   0.885  12.509  0.00  0.00    +0.000 A 
ATOM     15  C   UNL     1      44.005  -6.885  10.700  0.00  0.00    +0.000 A 
ATOM     16  C   UNL     1      42.947  -7.044  11.592  0.00  0.00    +0.000 A 
ATOM     17  C   UNL     1      42.749   0.555  14.055  0.00  0.00    +0.000 A 
ATOM     18  C   UNL     1      43.704   1.379  13.453  0.00  0.00    +0.000 A 
ENDROOT
BRANCH  16  19
ATOM     19  O   UNL     1      42.397  -8.293  11.707  0.00  0.00    +0.000 OA
ATOM     20  H   UNL     1      41.435  -8.216  11.583  0.00  0.00    +0.000 HD
ENDBRANCH  16  19
BRANCH  18  21
ATOM     21  O   UNL     1      43.781   2.702  13.783  0.00  0.00    +0.000 OA
ATOM     22  H   UNL     1      44.622   2.855  14.248  0.00  0.00    +0.000 HD
ENDBRANCH  18  21
TORSDOF 2
ENDMDL
MODEL 3
REMARK VINA RESULT:      -7.5      1.591      3.223
REMARK  Name = COUMESTROL.pdbqt.pdb
REMARK  2 active torsions:
REMARK  status: ('A' for Active; 'I' for Inactive)
REMARK    1  A    between atoms: C_16  and  O_19
REMARK    2  A    between atoms: C_18  and  O_21
REMARK                            x       y       z     vdW  Elec       q    Type
REMARK                         _______ _______ _______ _____ _____    ______ ____
ROOT
ATOM      1  O   UNL     1      44.127  -8.040   8.597  0.00  0.00    +0.000 OA
ATOM      2  O   UNL     1      45.932  -6.079  11.693  0.00  0.00    +0.000 OA
ATOM      3  O   UNL     1      47.964  -6.649  10.752  0.00  0.00    +0.000 OA
ATOM      4  C   UNL     1      46.014  -7.364   9.644  0.00  0.00    +0.000 A 
ATOM      5  C   UNL     1      44.643  -7.373   9.653  0.00  0.00    +0.000 A 
ATOM      6  C   UNL     1      46.398  -8.086   8.487  0.00  0.00    +0.000 A 
ATOM      7  C   UNL     1      43.811  -6.759  10.644  0.00  0.00    +0.000 A 
ATOM      8  C   UNL     1      45.204  -8.481   7.877  0.00  0.00    +0.000 A 
ATOM      9  C   UNL     1      44.503  -6.106  11.674  0.00  0.00    +0.000 A 
ATOM     10  C   UNL     1      46.741  -6.695  10.699  0.00  0.00    +0.000 A 
ATOM     11  C   UNL     1      47.613  -8.451   7.886  0.00  0.00    +0.000 A 
ATOM     12  C   UNL     1      42.422  -6.775  10.640  0.00  0.00    +0.000 A 
ATOM     13  C   UNL     1      45.131  -9.222   6.698  0.00  0.00    +0.000 A 
ATOM     14  C   UNL     1      43.831  -5.465  12.707  0.00  0.00    +0.000 A 
ATOM     15  C   UNL     1      47.577  -9.194   6.702  0.00  0.00    +0.000 A 
ATOM     16  C   UNL     1      46.361  -9.564   6.132  0.00  0.00    +0.000 A 
ATOM     17  C   UNL     1      41.734  -6.136  11.671  0.00  0.00    +0.000 A 
ATOM     18  C   UNL     1      42.440  -5.489  12.689  0.00  0.00    +0.000 A 
ENDROOT
BRANCH  16  19
ATOM     19  O   UNL     1      46.399 -10.292   4.972  0.00  0.00    +0.000 OA
ATOM     20  H   UNL     1      46.883  -9.777   4.303  0.00  0.00    +0.000 HD
ENDBRANCH  16  19
BRANCH  18  21
ATOM     21  O   UNL     1      41.772  -4.861  13.702  0.00  0.00    +0.000 OA
ATOM     22  H   UNL     1      42.371  -4.208  14.106  0.00  0.00    +0.000 HD
ENDBRANCH  18  21
TORSDOF 2
ENDMDL
MODEL 4
REMARK VINA RESULT:      -7.4      3.906      5.304
REMARK  Name = COUMESTROL.pdbqt.pdb
REMARK  2 active torsions:
REMARK  status: ('A' for Active; 'I' for Inactive)
REMARK    1  A    between atoms: C_16  and  O_19
REMARK    2  A    between atoms: C_18  and  O_21
REMARK                            x       y       z     vdW  Elec       q    Type
REMARK                         _______ _______ _______ _____ _____    ______ ____
ROOT
ATOM      1  O   UNL     1      44.495  -3.137  10.887  0.00  0.00    +0.000 OA
ATOM      2  O   UNL     1      43.684  -1.558  14.566  0.00  0.00    +0.000 OA
ATOM      3  O   UNL     1      42.981  -3.662  15.215  0.00  0.00    +0.000 OA
ATOM      4  C   UNL     1      43.752  -3.406  13.004  0.00  0.00    +0.000 A 
ATOM      5  C   UNL     1      44.255  -2.536  12.072  0.00  0.00    +0.000 A 
ATOM      6  C   UNL     1      43.665  -4.662  12.355  0.00  0.00    +0.000 A 
ATOM      7  C   UNL     1      44.514  -1.144  12.285  0.00  0.00    +0.000 A 
ATOM      8  C   UNL     1      44.133  -4.446  11.055  0.00  0.00    +0.000 A 
ATOM      9  C   UNL     1      44.211  -0.676  13.572  0.00  0.00    +0.000 A 
ATOM     10  C   UNL     1      43.434  -2.939  14.335  0.00  0.00    +0.000 A 
ATOM     11  C   UNL     1      43.247  -5.954  12.712  0.00  0.00    +0.000 A 
ATOM     12  C   UNL     1      45.025  -0.273  11.331  0.00  0.00    +0.000 A 
ATOM     13  C   UNL     1      44.216  -5.434  10.074  0.00  0.00    +0.000 A 
ATOM     14  C   UNL     1      44.409   0.652  13.926  0.00  0.00    +0.000 A 
ATOM     15  C   UNL     1      43.316  -6.969  11.753  0.00  0.00    +0.000 A 
ATOM     16  C   UNL     1      43.791  -6.704  10.470  0.00  0.00    +0.000 A 
ATOM     17  C   UNL     1      45.230   1.063  11.673  0.00  0.00    +0.000 A 
ATOM     18  C   UNL     1      44.921   1.512  12.961  0.00  0.00    +0.000 A 
ENDROOT
BRANCH  16  19
ATOM     19  O   UNL     1      43.832  -7.745   9.581  0.00  0.00    +0.000 OA
ATOM     20  H   UNL     1      42.933  -7.891   9.238  0.00  0.00    +0.000 HD
ENDBRANCH  16  19
BRANCH  18  21
ATOM     21  O   UNL     1      45.119   2.820  13.303  0.00  0.00    +0.000 OA
ATOM     22  H   UNL     1      45.003   2.907  14.265  0.00  0.00    +0.000 HD
ENDBRANCH  18  21
TORSDOF 2
ENDMDL
MODEL 5
REMARK VINA RESULT:      -7.4     35.766     36.944
REMARK  Name = COUMESTROL.pdbqt.pdb
REMARK  2 active torsions:
REMARK  status: ('A' for Active; 'I' for Inactive)
REMARK    1  A    between atoms: C_16  and  O_19
REMARK    2  A    between atoms: C_18  and  O_21
REMARK                            x       y       z     vdW  Elec       q    Type
REMARK                         _______ _______ _______ _____ _____    ______ ____
ROOT
ATOM      1  O   UNL     1      20.839  21.375   3.802  0.00  0.00    +0.000 OA
ATOM      2  O   UNL     1      23.151  20.139   0.670  0.00  0.00    +0.000 OA
ATOM      3  O   UNL     1      21.677  18.381   0.392  0.00  0.00    +0.000 OA
ATOM      4  C   UNL     1      21.239  19.902   2.135  0.00  0.00    +0.000 A 
ATOM      5  C   UNL     1      21.657  21.036   2.782  0.00  0.00    +0.000 A 
ATOM      6  C   UNL     1      20.059  19.489   2.800  0.00  0.00    +0.000 A 
ATOM      7  C   UNL     1      22.818  21.805   2.451  0.00  0.00    +0.000 A 
ATOM      8  C   UNL     1      19.854  20.426   3.818  0.00  0.00    +0.000 A 
ATOM      9  C   UNL     1      23.560  21.319   1.365  0.00  0.00    +0.000 A 
ATOM     10  C   UNL     1      21.993  19.388   1.014  0.00  0.00    +0.000 A 
ATOM     11  C   UNL     1      19.142  18.435   2.663  0.00  0.00    +0.000 A 
ATOM     12  C   UNL     1      23.230  22.954   3.116  0.00  0.00    +0.000 A 
ATOM     13  C   UNL     1      18.789  20.389   4.718  0.00  0.00    +0.000 A 
ATOM     14  C   UNL     1      24.712  21.960   0.928  0.00  0.00    +0.000 A 
ATOM     15  C   UNL     1      18.062  18.367   3.549  0.00  0.00    +0.000 A 
ATOM     16  C   UNL     1      17.900  19.325   4.547  0.00  0.00    +0.000 A 
ATOM     17  C   UNL     1      24.385  23.608   2.688  0.00  0.00    +0.000 A 
ATOM     18  C   UNL     1      25.112  23.108   1.603  0.00  0.00    +0.000 A 
ENDROOT
BRANCH  16  19
ATOM     19  O   UNL     1      16.821  19.197   5.380  0.00  0.00    +0.000 OA
ATOM     20  H   UNL     1      16.367  20.057   5.428  0.00  0.00    +0.000 HD
ENDBRANCH  16  19
BRANCH  18  21
ATOM     21  O   UNL     1      26.244  23.744   1.179  0.00  0.00    +0.000 OA
ATOM     22  H   UNL     1      26.036  24.685   1.044  0.00  0.00    +0.000 HD
ENDBRANCH  18  21
TORSDOF 2
ENDMDL
MODEL 6
REMARK VINA RESULT:      -7.3      3.308      7.206
REMARK  Name = COUMESTROL.pdbqt.pdb
REMARK  2 active torsions:
REMARK  status: ('A' for Active; 'I' for Inactive)
REMARK    1  A    between atoms: C_16  and  O_19
REMARK    2  A    between atoms: C_18  and  O_21
REMARK                            x       y       z     vdW  Elec       q    Type
REMARK                         _______ _______ _______ _____ _____    ______ ____
ROOT
ATOM      1  O   UNL     1      42.693  -2.421  11.653  0.00  0.00    +0.000 OA
ATOM      2  O   UNL     1      45.828  -4.930  10.904  0.00  0.00    +0.000 OA
ATOM      3  O   UNL     1      47.110  -3.596  12.289  0.00  0.00    +0.000 OA
ATOM      4  C   UNL     1      44.858  -2.987  11.972  0.00  0.00    +0.000 A 
ATOM      5  C   UNL     1      43.675  -3.298  11.353  0.00  0.00    +0.000 A 
ATOM      6  C   UNL     1      44.603  -1.815  12.727  0.00  0.00    +0.000 A 
ATOM      7  C   UNL     1      43.458  -4.413  10.482  0.00  0.00    +0.000 A 
ATOM      8  C   UNL     1      43.259  -1.506  12.499  0.00  0.00    +0.000 A 
ATOM      9  C   UNL     1      44.581  -5.228  10.273  0.00  0.00    +0.000 A 
ATOM     10  C   UNL     1      46.024  -3.817  11.768  0.00  0.00    +0.000 A 
ATOM     11  C   UNL     1      45.350  -0.982  13.575  0.00  0.00    +0.000 A 
ATOM     12  C   UNL     1      42.254  -4.717   9.860  0.00  0.00    +0.000 A 
ATOM     13  C   UNL     1      42.597  -0.415  13.060  0.00  0.00    +0.000 A 
ATOM     14  C   UNL     1      44.523  -6.347   9.452  0.00  0.00    +0.000 A 
ATOM     15  C   UNL     1      44.717   0.122  14.154  0.00  0.00    +0.000 A 
ATOM     16  C   UNL     1      43.374   0.389  13.896  0.00  0.00    +0.000 A 
ATOM     17  C   UNL     1      42.181  -5.837   9.033  0.00  0.00    +0.000 A 
ATOM     18  C   UNL     1      43.310  -6.638   8.837  0.00  0.00    +0.000 A 
ENDROOT
BRANCH  16  19
ATOM     19  O   UNL     1      42.819   1.487  14.497  0.00  0.00    +0.000 OA
ATOM     20  H   UNL     1      43.328   1.686  15.302  0.00  0.00    +0.000 HD
ENDBRANCH  16  19
BRANCH  18  21
ATOM     21  O   UNL     1      43.246  -7.737   8.027  0.00  0.00    +0.000 OA
ATOM     22  H   UNL     1      43.982  -8.331   8.256  0.00  0.00    +0.000 HD
ENDBRANCH  18  21
TORSDOF 2
ENDMDL
MODEL 7
REMARK VINA RESULT:      -7.2      1.575      7.091
REMARK  Name = COUMESTROL.pdbqt.pdb
REMARK  2 active torsions:
REMARK  status: ('A' for Active; 'I' for Inactive)
REMARK    1  A    between atoms: C_16  and  O_19
REMARK    2  A    between atoms: C_18  and  O_21
REMARK                            x       y       z     vdW  Elec       q    Type
REMARK                         _______ _______ _______ _____ _____    ______ ____
ROOT
ATOM      1  O   UNL     1      43.883  -7.741   9.286  0.00  0.00    +0.000 OA
ATOM      2  O   UNL     1      47.941  -7.782   8.824  0.00  0.00    +0.000 OA
ATOM      3  O   UNL     1      48.083  -6.497  10.739  0.00  0.00    +0.000 OA
ATOM      4  C   UNL     1      45.935  -7.126  10.007  0.00  0.00    +0.000 A 
ATOM      5  C   UNL     1      45.213  -7.804   9.060  0.00  0.00    +0.000 A 
ATOM      6  C   UNL     1      44.983  -6.588  10.908  0.00  0.00    +0.000 A 
ATOM      7  C   UNL     1      45.761  -8.512   7.943  0.00  0.00    +0.000 A 
ATOM      8  C   UNL     1      43.736  -6.993  10.423  0.00  0.00    +0.000 A 
ATOM      9  C   UNL     1      47.160  -8.481   7.852  0.00  0.00    +0.000 A 
ATOM     10  C   UNL     1      47.377  -7.084   9.928  0.00  0.00    +0.000 A 
ATOM     11  C   UNL     1      45.028  -5.808  12.075  0.00  0.00    +0.000 A 
ATOM     12  C   UNL     1      45.018  -9.196   6.989  0.00  0.00    +0.000 A 
ATOM     13  C   UNL     1      42.517  -6.675  11.021  0.00  0.00    +0.000 A 
ATOM     14  C   UNL     1      47.835  -9.123   6.821  0.00  0.00    +0.000 A 
ATOM     15  C   UNL     1      43.825  -5.469  12.701  0.00  0.00    +0.000 A 
ATOM     16  C   UNL     1      42.606  -5.898  12.178  0.00  0.00    +0.000 A 
ATOM     17  C   UNL     1      45.682  -9.845   5.949  0.00  0.00    +0.000 A 
ATOM     18  C   UNL     1      47.077  -9.804   5.875  0.00  0.00    +0.000 A 
ENDROOT
BRANCH  16  19
ATOM     19  O   UNL     1      41.467  -5.530  12.843  0.00  0.00    +0.000 OA
ATOM     20  H   UNL     1      40.705  -5.696  12.261  0.00  0.00    +0.000 HD
ENDBRANCH  16  19
BRANCH  18  21
ATOM     21  O   UNL     1      47.734 -10.438   4.858  0.00  0.00    +0.000 OA
ATOM     22  H   UNL     1      47.082 -10.692   4.182  0.00  0.00    +0.000 HD
ENDBRANCH  18  21
TORSDOF 2
ENDMDL
MODEL 8
REMARK VINA RESULT:      -7.2      1.324      6.258
REMARK  Name = COUMESTROL.pdbqt.pdb
REMARK  2 active torsions:
REMARK  status: ('A' for Active; 'I' for Inactive)
REMARK    1  A    between atoms: C_16  and  O_19
REMARK    2  A    between atoms: C_18  and  O_21
REMARK                            x       y       z     vdW  Elec       q    Type
REMARK                         _______ _______ _______ _____ _____    ______ ____
ROOT
ATOM      1  O   UNL     1      46.266  -6.496  10.920  0.00  0.00    +0.000 OA
ATOM      2  O   UNL     1      43.709  -7.630   7.943  0.00  0.00    +0.000 OA
ATOM      3  O   UNL     1      42.028  -6.541   9.095  0.00  0.00    +0.000 OA
ATOM      4  C   UNL     1      44.186  -6.512  10.035  0.00  0.00    +0.000 A 
ATOM      5  C   UNL     1      45.489  -6.911   9.896  0.00  0.00    +0.000 A 
ATOM      6  C   UNL     1      44.133  -5.782  11.249  0.00  0.00    +0.000 A 
ATOM      7  C   UNL     1      46.014  -7.681   8.808  0.00  0.00    +0.000 A 
ATOM      8  C   UNL     1      45.436  -5.800  11.756  0.00  0.00    +0.000 A 
ATOM      9  C   UNL     1      45.076  -8.032   7.826  0.00  0.00    +0.000 A 
ATOM     10  C   UNL     1      43.207  -6.865   9.032  0.00  0.00    +0.000 A 
ATOM     11  C   UNL     1      43.138  -5.110  11.977  0.00  0.00    +0.000 A 
ATOM     12  C   UNL     1      47.338  -8.080   8.679  0.00  0.00    +0.000 A 
ATOM     13  C   UNL     1      45.824  -5.191  12.948  0.00  0.00    +0.000 A 
ATOM     14  C   UNL     1      45.437  -8.778   6.712  0.00  0.00    +0.000 A 
ATOM     15  C   UNL     1      43.493  -4.488  13.178  0.00  0.00    +0.000 A 
ATOM     16  C   UNL     1      44.806  -4.534  13.642  0.00  0.00    +0.000 A 
ATOM     17  C   UNL     1      47.715  -8.829   7.565  0.00  0.00    +0.000 A 
ATOM     18  C   UNL     1      46.767  -9.170   6.596  0.00  0.00    +0.000 A 
ENDROOT
BRANCH  16  19
ATOM     19  O   UNL     1      45.082  -3.903  14.825  0.00  0.00    +0.000 OA
ATOM     20  H   UNL     1      44.244  -3.598  15.214  0.00  0.00    +0.000 HD
ENDBRANCH  16  19
BRANCH  18  21
ATOM     21  O   UNL     1      47.129  -9.904   5.502  0.00  0.00    +0.000 OA
ATOM     22  H   UNL     1      46.774  -9.468   4.708  0.00  0.00    +0.000 HD
ENDBRANCH  18  21
TORSDOF 2
ENDMDL
MODEL 9
REMARK VINA RESULT:      -6.9     35.659     37.698
REMARK  Name = COUMESTROL.pdbqt.pdb
REMARK  2 active torsions:
REMARK  status: ('A' for Active; 'I' for Inactive)
REMARK    1  A    between atoms: C_16  and  O_19
REMARK    2  A    between atoms: C_18  and  O_21
REMARK                            x       y       z     vdW  Elec       q    Type
REMARK                         _______ _______ _______ _____ _____    ______ ____
ROOT
ATOM      1  O   UNL     1      22.434  23.630   4.422  0.00  0.00    +0.000 OA
ATOM      2  O   UNL     1      24.335  21.893   1.251  0.00  0.00    +0.000 OA
ATOM      3  O   UNL     1      25.810  23.671   1.276  0.00  0.00    +0.000 OA
ATOM      4  C   UNL     1      24.091  23.660   2.885  0.00  0.00    +0.000 A 
ATOM      5  C   UNL     1      23.003  22.990   3.378  0.00  0.00    +0.000 A 
ATOM      6  C   UNL     1      24.224  24.823   3.685  0.00  0.00    +0.000 A 
ATOM      7  C   UNL     1      22.490  21.751   2.876  0.00  0.00    +0.000 A 
ATOM      8  C   UNL     1      23.182  24.760   4.615  0.00  0.00    +0.000 A 
ATOM      9  C   UNL     1      23.195  21.216   1.787  0.00  0.00    +0.000 A 
ATOM     10  C   UNL     1      24.829  23.124   1.764  0.00  0.00    +0.000 A 
ATOM     11  C   UNL     1      25.100  25.919   3.731  0.00  0.00    +0.000 A 
ATOM     12  C   UNL     1      21.384  21.080   3.384  0.00  0.00    +0.000 A 
ATOM     13  C   UNL     1      22.946  25.719   5.599  0.00  0.00    +0.000 A 
ATOM     14  C   UNL     1      22.815  20.019   1.194  0.00  0.00    +0.000 A 
ATOM     15  C   UNL     1      24.893  26.901   4.705  0.00  0.00    +0.000 A 
ATOM     16  C   UNL     1      23.840  26.793   5.611  0.00  0.00    +0.000 A 
ATOM     17  C   UNL     1      20.992  19.878   2.798  0.00  0.00    +0.000 A 
ATOM     18  C   UNL     1      21.706  19.360   1.714  0.00  0.00    +0.000 A 
ENDROOT
BRANCH  16  19
ATOM     19  O   UNL     1      23.697  27.790   6.538  0.00  0.00    +0.000 OA
ATOM     20  H   UNL     1      22.842  28.229   6.387  0.00  0.00    +0.000 HD
ENDBRANCH  16  19
BRANCH  18  21
ATOM     21  O   UNL     1      21.327  18.182   1.135  0.00  0.00    +0.000 OA
ATOM     22  H   UNL     1      20.480  17.906   1.526  0.00  0.00    +0.000 HD
ENDBRANCH  18  21
TORSDOF 2
ENDMDL
