MODEL 1
REMARK VINA RESULT:      -8.2      0.000      0.000
REMARK  Name = CP466722.pdbqt.pdb
REMARK  3 active torsions:
REMARK  status: ('A' for Active; 'I' for Inactive)
REMARK    1  A    between atoms: C_5  and  C_23
REMARK    2  A    between atoms: C_14  and  O_16
REMARK    3  A    between atoms: C_15  and  O_18
REMARK                            x       y       z     vdW  Elec       q    Type
REMARK                         _______ _______ _______ _____ _____    ______ ____
ROOT
ATOM      1  N   UNL     1      43.416  -5.578  11.683  0.00  0.00    +0.000 N 
ATOM      2  N   UNL     1      44.308  -5.662  10.668  0.00  0.00    +0.000 NA
ATOM      3  N   UNL     1      43.181  -7.628  10.890  0.00  0.00    +0.000 NA
ATOM      4  C   UNL     1      42.730  -6.790  11.787  0.00  0.00    +0.000 A 
ATOM      5  C   UNL     1      44.141  -6.913  10.213  0.00  0.00    +0.000 A 
ATOM      6  C   UNL     1      43.279  -4.412  12.509  0.00  0.00    +0.000 A 
ATOM      7  N   UNL     1      42.441  -4.511  13.576  0.00  0.00    +0.000 NA
ATOM      8  C   UNL     1      42.332  -3.431  14.357  0.00  0.00    +0.000 A 
ATOM      9  N   UNL     1      42.981  -2.276  14.179  0.00  0.00    +0.000 NA
ATOM     10  C   UNL     1      43.800  -2.185  13.130  0.00  0.00    +0.000 A 
ATOM     11  C   UNL     1      43.999  -3.235  12.224  0.00  0.00    +0.000 A 
ATOM     12  C   UNL     1      44.487  -0.993  12.942  0.00  0.00    +0.000 A 
ATOM     13  C   UNL     1      44.867  -3.019  11.127  0.00  0.00    +0.000 A 
ATOM     14  C   UNL     1      45.519  -1.808  10.927  0.00  0.00    +0.000 A 
ATOM     15  C   UNL     1      45.369  -0.804  11.876  0.00  0.00    +0.000 A 
ATOM     16  N   UNL     1      41.749  -7.046  12.675  0.00  0.00    +0.000 N 
ATOM     17  H   UNL     1      41.485  -8.013  12.831  0.00  0.00    +0.000 HD
ATOM     18  H   UNL     1      41.618  -6.424  13.472  0.00  0.00    +0.000 HD
ENDROOT
BRANCH   5  19
ATOM     19  C   UNL     1      44.904  -7.491   9.103  0.00  0.00    +0.000 A 
ATOM     20  N   UNL     1      44.213  -7.947   8.022  0.00  0.00    +0.000 NA
ATOM     21  C   UNL     1      44.939  -8.476   7.012  0.00  0.00    +0.000 A 
ATOM     22  C   UNL     1      46.319  -8.576   7.017  0.00  0.00    +0.000 A 
ATOM     23  C   UNL     1      46.997  -8.101   8.131  0.00  0.00    +0.000 A 
ATOM     24  C   UNL     1      46.289  -7.550   9.193  0.00  0.00    +0.000 A 
ENDBRANCH   5  19
BRANCH  14  25
ATOM     25  O   UNL     1      46.358  -1.691   9.852  0.00  0.00    +0.000 OA
ATOM     26  C   UNL     1      47.008  -2.912   9.600  0.00  0.00    +0.000 C 
ENDBRANCH  14  25
BRANCH  15  27
ATOM     27  O   UNL     1      46.006   0.400  11.737  0.00  0.00    +0.000 OA
ATOM     28  C   UNL     1      45.215   1.431  12.274  0.00  0.00    +0.000 C 
ENDBRANCH  15  27
TORSDOF 3
ENDMDL
MODEL 2
REMARK VINA RESULT:      -8.1      2.646      4.733
REMARK  Name = CP466722.pdbqt.pdb
REMARK  3 active torsions:
REMARK  status: ('A' for Active; 'I' for Inactive)
REMARK    1  A    between atoms: C_5  and  C_23
REMARK    2  A    between atoms: C_14  and  O_16
REMARK    3  A    between atoms: C_15  and  O_18
REMARK                            x       y       z     vdW  Elec       q    Type
REMARK                         _______ _______ _______ _____ _____    ______ ____
ROOT
ATOM      1  N   UNL     1      44.046  -1.345  12.624  0.00  0.00    +0.000 N 
ATOM      2  N   UNL     1      44.246  -2.532  12.005  0.00  0.00    +0.000 NA
ATOM      3  N   UNL     1      42.524  -2.698  13.486  0.00  0.00    +0.000 NA
ATOM      4  C   UNL     1      42.977  -1.471  13.514  0.00  0.00    +0.000 A 
ATOM      5  C   UNL     1      43.313  -3.327  12.550  0.00  0.00    +0.000 A 
ATOM      6  C   UNL     1      44.866  -0.191  12.387  0.00  0.00    +0.000 A 
ATOM      7  N   UNL     1      44.639   0.894  13.174  0.00  0.00    +0.000 NA
ATOM      8  C   UNL     1      45.420   1.960  12.967  0.00  0.00    +0.000 A 
ATOM      9  N   UNL     1      46.400   2.040  12.063  0.00  0.00    +0.000 NA
ATOM     10  C   UNL     1      46.617   0.973  11.293  0.00  0.00    +0.000 A 
ATOM     11  C   UNL     1      45.866  -0.206  11.394  0.00  0.00    +0.000 A 
ATOM     12  C   UNL     1      47.640   1.041  10.357  0.00  0.00    +0.000 A 
ATOM     13  C   UNL     1      46.160  -1.267  10.505  0.00  0.00    +0.000 A 
ATOM     14  C   UNL     1      47.161  -1.173   9.545  0.00  0.00    +0.000 A 
ATOM     15  C   UNL     1      47.945  -0.026   9.509  0.00  0.00    +0.000 A 
ATOM     16  N   UNL     1      42.488  -0.474  14.277  0.00  0.00    +0.000 N 
ATOM     17  H   UNL     1      41.881  -0.718  15.052  0.00  0.00    +0.000 HD
ATOM     18  H   UNL     1      43.035   0.377  14.401  0.00  0.00    +0.000 HD
ENDROOT
BRANCH   5  19
ATOM     19  C   UNL     1      43.133  -4.740  12.203  0.00  0.00    +0.000 A 
ATOM     20  N   UNL     1      41.943  -5.326  12.508  0.00  0.00    +0.000 NA
ATOM     21  C   UNL     1      41.802  -6.629  12.179  0.00  0.00    +0.000 A 
ATOM     22  C   UNL     1      42.781  -7.384  11.559  0.00  0.00    +0.000 A 
ATOM     23  C   UNL     1      43.984  -6.759  11.257  0.00  0.00    +0.000 A 
ATOM     24  C   UNL     1      44.172  -5.420  11.580  0.00  0.00    +0.000 A 
ENDBRANCH   5  19
BRANCH  14  25
ATOM     25  O   UNL     1      47.394  -2.255   8.740  0.00  0.00    +0.000 OA
ATOM     26  C   UNL     1      47.263  -3.448   9.471  0.00  0.00    +0.000 C 
ENDBRANCH  14  25
BRANCH  15  27
ATOM     27  O   UNL     1      48.957   0.109   8.597  0.00  0.00    +0.000 OA
ATOM     28  C   UNL     1      49.142   1.465   8.275  0.00  0.00    +0.000 C 
ENDBRANCH  15  27
TORSDOF 3
ENDMDL
MODEL 3
REMARK VINA RESULT:      -7.8      3.610      5.340
REMARK  Name = CP466722.pdbqt.pdb
REMARK  3 active torsions:
REMARK  status: ('A' for Active; 'I' for Inactive)
REMARK    1  A    between atoms: C_5  and  C_23
REMARK    2  A    between atoms: C_14  and  O_16
REMARK    3  A    between atoms: C_15  and  O_18
REMARK                            x       y       z     vdW  Elec       q    Type
REMARK                         _______ _______ _______ _____ _____    ______ ____
ROOT
ATOM      1  N   UNL     1      46.408  -7.901   9.092  0.00  0.00    +0.000 N 
ATOM      2  N   UNL     1      45.269  -8.392   8.551  0.00  0.00    +0.000 NA
ATOM      3  N   UNL     1      47.081  -9.173   7.413  0.00  0.00    +0.000 NA
ATOM      4  C   UNL     1      47.502  -8.406   8.386  0.00  0.00    +0.000 A 
ATOM      5  C   UNL     1      45.711  -9.154   7.538  0.00  0.00    +0.000 A 
ATOM      6  C   UNL     1      46.417  -6.977  10.191  0.00  0.00    +0.000 A 
ATOM      7  N   UNL     1      47.623  -6.460  10.548  0.00  0.00    +0.000 NA
ATOM      8  C   UNL     1      47.626  -5.582  11.557  0.00  0.00    +0.000 A 
ATOM      9  N   UNL     1      46.547  -5.171  12.230  0.00  0.00    +0.000 NA
ATOM     10  C   UNL     1      45.367  -5.682  11.876  0.00  0.00    +0.000 A 
ATOM     11  C   UNL     1      45.221  -6.620  10.845  0.00  0.00    +0.000 A 
ATOM     12  C   UNL     1      44.239  -5.254  12.563  0.00  0.00    +0.000 A 
ATOM     13  C   UNL     1      43.926  -7.122  10.574  0.00  0.00    +0.000 A 
ATOM     14  C   UNL     1      42.808  -6.715  11.294  0.00  0.00    +0.000 A 
ATOM     15  C   UNL     1      42.961  -5.729  12.261  0.00  0.00    +0.000 A 
ATOM     16  N   UNL     1      48.792  -8.145   8.674  0.00  0.00    +0.000 N 
ATOM     17  H   UNL     1      49.492  -8.358   7.972  0.00  0.00    +0.000 HD
ATOM     18  H   UNL     1      49.021  -7.371   9.298  0.00  0.00    +0.000 HD
ENDROOT
BRANCH   5  19
ATOM     19  C   UNL     1      44.836  -9.901   6.631  0.00  0.00    +0.000 A 
ATOM     20  N   UNL     1      43.492  -9.727   6.752  0.00  0.00    +0.000 NA
ATOM     21  C   UNL     1      42.707 -10.428   5.904  0.00  0.00    +0.000 A 
ATOM     22  C   UNL     1      43.186 -11.295   4.938  0.00  0.00    +0.000 A 
ATOM     23  C   UNL     1      44.562 -11.450   4.836  0.00  0.00    +0.000 A 
ATOM     24  C   UNL     1      45.406 -10.749   5.689  0.00  0.00    +0.000 A 
ENDBRANCH   5  19
BRANCH  14  25
ATOM     25  O   UNL     1      41.590  -7.234  10.951  0.00  0.00    +0.000 OA
ATOM     26  C   UNL     1      40.952  -6.411  10.007  0.00  0.00    +0.000 C 
ENDBRANCH  14  25
BRANCH  15  27
ATOM     27  O   UNL     1      41.889  -5.278  12.984  0.00  0.00    +0.000 OA
ATOM     28  C   UNL     1      42.331  -4.617  14.144  0.00  0.00    +0.000 C 
ENDBRANCH  15  27
TORSDOF 3
ENDMDL
MODEL 4
REMARK VINA RESULT:      -7.8      2.969      4.797
REMARK  Name = CP466722.pdbqt.pdb
REMARK  3 active torsions:
REMARK  status: ('A' for Active; 'I' for Inactive)
REMARK    1  A    between atoms: C_5  and  C_23
REMARK    2  A    between atoms: C_14  and  O_16
REMARK    3  A    between atoms: C_15  and  O_18
REMARK                            x       y       z     vdW  Elec       q    Type
REMARK                         _______ _______ _______ _____ _____    ______ ____
ROOT
ATOM      1  N   UNL     1      45.634  -2.904  10.727  0.00  0.00    +0.000 N 
ATOM      2  N   UNL     1      44.506  -3.383  11.302  0.00  0.00    +0.000 NA
ATOM      3  N   UNL     1      45.525  -5.018  10.088  0.00  0.00    +0.000 NA
ATOM      4  C   UNL     1      46.245  -3.930  10.002  0.00  0.00    +0.000 A 
ATOM      5  C   UNL     1      44.469  -4.661  10.894  0.00  0.00    +0.000 A 
ATOM      6  C   UNL     1      46.055  -1.538  10.849  0.00  0.00    +0.000 A 
ATOM      7  N   UNL     1      47.132  -1.159  10.110  0.00  0.00    +0.000 NA
ATOM      8  C   UNL     1      47.509   0.120  10.208  0.00  0.00    +0.000 A 
ATOM      9  N   UNL     1      46.911   1.050  10.959  0.00  0.00    +0.000 NA
ATOM     10  C   UNL     1      45.855   0.673  11.682  0.00  0.00    +0.000 A 
ATOM     11  C   UNL     1      45.362  -0.639  11.684  0.00  0.00    +0.000 A 
ATOM     12  C   UNL     1      45.221   1.632  12.459  0.00  0.00    +0.000 A 
ATOM     13  C   UNL     1      44.255  -0.938  12.514  0.00  0.00    +0.000 A 
ATOM     14  C   UNL     1      43.651   0.023  13.317  0.00  0.00    +0.000 A 
ATOM     15  C   UNL     1      44.106   1.334  13.245  0.00  0.00    +0.000 A 
ATOM     16  N   UNL     1      47.405  -3.810   9.326  0.00  0.00    +0.000 N 
ATOM     17  H   UNL     1      47.638  -4.526   8.646  0.00  0.00    +0.000 HD
ATOM     18  H   UNL     1      47.777  -2.882   9.128  0.00  0.00    +0.000 HD
ENDROOT
BRANCH   5  19
ATOM     19  C   UNL     1      43.409  -5.607  11.255  0.00  0.00    +0.000 A 
ATOM     20  N   UNL     1      42.342  -5.720  10.417  0.00  0.00    +0.000 NA
ATOM     21  C   UNL     1      41.378  -6.598  10.772  0.00  0.00    +0.000 A 
ATOM     22  C   UNL     1      41.417  -7.375  11.916  0.00  0.00    +0.000 A 
ATOM     23  C   UNL     1      42.519  -7.240  12.749  0.00  0.00    +0.000 A 
ATOM     24  C   UNL     1      43.533  -6.348  12.424  0.00  0.00    +0.000 A 
ENDBRANCH   5  19
BRANCH  14  25
ATOM     25  O   UNL     1      42.571  -0.346  14.072  0.00  0.00    +0.000 OA
ATOM     26  C   UNL     1      42.567  -1.736  14.277  0.00  0.00    +0.000 C 
ENDBRANCH  14  25
BRANCH  15  27
ATOM     27  O   UNL     1      43.533   2.322  14.000  0.00  0.00    +0.000 OA
ATOM     28  C   UNL     1      44.387   2.681  15.058  0.00  0.00    +0.000 C 
ENDBRANCH  15  27
TORSDOF 3
ENDMDL
MODEL 5
REMARK VINA RESULT:      -7.5      3.471      6.062
REMARK  Name = CP466722.pdbqt.pdb
REMARK  3 active torsions:
REMARK  status: ('A' for Active; 'I' for Inactive)
REMARK    1  A    between atoms: C_5  and  C_23
REMARK    2  A    between atoms: C_14  and  O_16
REMARK    3  A    between atoms: C_15  and  O_18
REMARK                            x       y       z     vdW  Elec       q    Type
REMARK                         _______ _______ _______ _____ _____    ______ ____
ROOT
ATOM      1  N   UNL     1      46.302  -2.472  10.361  0.00  0.00    +0.000 N 
ATOM      2  N   UNL     1      46.896  -1.258  10.280  0.00  0.00    +0.000 NA
ATOM      3  N   UNL     1      48.006  -2.766   8.983  0.00  0.00    +0.000 NA
ATOM      4  C   UNL     1      46.993  -3.372   9.546  0.00  0.00    +0.000 A 
ATOM      5  C   UNL     1      47.923  -1.472   9.442  0.00  0.00    +0.000 A 
ATOM      6  C   UNL     1      45.169  -2.733  11.203  0.00  0.00    +0.000 A 
ATOM      7  N   UNL     1      44.756  -4.025  11.291  0.00  0.00    +0.000 NA
ATOM      8  C   UNL     1      43.715  -4.270  12.094  0.00  0.00    +0.000 A 
ATOM      9  N   UNL     1      43.060  -3.356  12.816  0.00  0.00    +0.000 NA
ATOM     10  C   UNL     1      43.469  -2.089  12.724  0.00  0.00    +0.000 A 
ATOM     11  C   UNL     1      44.539  -1.691  11.912  0.00  0.00    +0.000 A 
ATOM     12  C   UNL     1      42.802  -1.133  13.477  0.00  0.00    +0.000 A 
ATOM     13  C   UNL     1      44.869  -0.315  11.864  0.00  0.00    +0.000 A 
ATOM     14  C   UNL     1      44.169   0.639  12.593  0.00  0.00    +0.000 A 
ATOM     15  C   UNL     1      43.160   0.217  13.451  0.00  0.00    +0.000 A 
ATOM     16  N   UNL     1      46.655  -4.664   9.367  0.00  0.00    +0.000 N 
ATOM     17  H   UNL     1      47.344  -5.286   8.957  0.00  0.00    +0.000 HD
ATOM     18  H   UNL     1      45.997  -5.104  10.009  0.00  0.00    +0.000 HD
ENDROOT
BRANCH   5  19
ATOM     19  C   UNL     1      48.884  -0.440   9.043  0.00  0.00    +0.000 A 
ATOM     20  N   UNL     1      50.211  -0.729   9.145  0.00  0.00    +0.000 NA
ATOM     21  C   UNL     1      51.077   0.238   8.772  0.00  0.00    +0.000 A 
ATOM     22  C   UNL     1      50.697   1.481   8.298  0.00  0.00    +0.000 A 
ATOM     23  C   UNL     1      49.338   1.746   8.202  0.00  0.00    +0.000 A 
ATOM     24  C   UNL     1      48.412   0.780   8.576  0.00  0.00    +0.000 A 
ENDBRANCH   5  19
BRANCH  14  25
ATOM     25  O   UNL     1      44.568   1.945  12.506  0.00  0.00    +0.000 OA
ATOM     26  C   UNL     1      45.726   2.157  13.274  0.00  0.00    +0.000 C 
ENDBRANCH  14  25
BRANCH  15  27
ATOM     27  O   UNL     1      42.454   1.114  14.206  0.00  0.00    +0.000 OA
ATOM     28  C   UNL     1      41.284   0.514  14.703  0.00  0.00    +0.000 C 
ENDBRANCH  15  27
TORSDOF 3
ENDMDL
MODEL 6
REMARK VINA RESULT:      -7.4      3.854      6.752
REMARK  Name = CP466722.pdbqt.pdb
REMARK  3 active torsions:
REMARK  status: ('A' for Active; 'I' for Inactive)
REMARK    1  A    between atoms: C_5  and  C_23
REMARK    2  A    between atoms: C_14  and  O_16
REMARK    3  A    between atoms: C_15  and  O_18
REMARK                            x       y       z     vdW  Elec       q    Type
REMARK                         _______ _______ _______ _____ _____    ______ ____
ROOT
ATOM      1  N   UNL     1      44.574   0.149  12.754  0.00  0.00    +0.000 N 
ATOM      2  N   UNL     1      45.570  -0.370  11.999  0.00  0.00    +0.000 NA
ATOM      3  N   UNL     1      45.673   1.904  11.978  0.00  0.00    +0.000 NA
ATOM      4  C   UNL     1      44.670   1.543  12.736  0.00  0.00    +0.000 A 
ATOM      5  C   UNL     1      46.212   0.716  11.543  0.00  0.00    +0.000 A 
ATOM      6  C   UNL     1      43.586  -0.659  13.409  0.00  0.00    +0.000 A 
ATOM      7  N   UNL     1      42.565  -0.003  14.023  0.00  0.00    +0.000 NA
ATOM      8  C   UNL     1      41.633  -0.758  14.613  0.00  0.00    +0.000 A 
ATOM      9  N   UNL     1      41.619  -2.094  14.639  0.00  0.00    +0.000 NA
ATOM     10  C   UNL     1      42.623  -2.733  14.035  0.00  0.00    +0.000 A 
ATOM     11  C   UNL     1      43.673  -2.065  13.390  0.00  0.00    +0.000 A 
ATOM     12  C   UNL     1      42.614  -4.121  14.048  0.00  0.00    +0.000 A 
ATOM     13  C   UNL     1      44.705  -2.841  12.810  0.00  0.00    +0.000 A 
ATOM     14  C   UNL     1      44.705  -4.230  12.862  0.00  0.00    +0.000 A 
ATOM     15  C   UNL     1      43.619  -4.876  13.440  0.00  0.00    +0.000 A 
ATOM     16  N   UNL     1      43.854   2.380  13.406  0.00  0.00    +0.000 N 
ATOM     17  H   UNL     1      43.852   3.359  13.143  0.00  0.00    +0.000 HD
ATOM     18  H   UNL     1      42.975   2.028  13.785  0.00  0.00    +0.000 HD
ENDROOT
BRANCH   5  19
ATOM     19  C   UNL     1      47.380   0.668  10.658  0.00  0.00    +0.000 A 
ATOM     20  N   UNL     1      48.331   1.631  10.802  0.00  0.00    +0.000 NA
ATOM     21  C   UNL     1      49.396   1.566   9.974  0.00  0.00    +0.000 A 
ATOM     22  C   UNL     1      49.571   0.592   9.007  0.00  0.00    +0.000 A 
ATOM     23  C   UNL     1      48.585  -0.379   8.884  0.00  0.00    +0.000 A 
ATOM     24  C   UNL     1      47.472  -0.348   9.715  0.00  0.00    +0.000 A 
ENDBRANCH   5  19
BRANCH  14  25
ATOM     25  O   UNL     1      45.730  -4.904  12.256  0.00  0.00    +0.000 OA
ATOM     26  C   UNL     1      45.528  -4.959  10.866  0.00  0.00    +0.000 C 
ENDBRANCH  14  25
BRANCH  15  27
ATOM     27  O   UNL     1      43.560  -6.243  13.499  0.00  0.00    +0.000 OA
ATOM     28  C   UNL     1      42.477  -6.715  12.737  0.00  0.00    +0.000 C 
ENDBRANCH  15  27
TORSDOF 3
ENDMDL
MODEL 7
REMARK VINA RESULT:      -7.3     34.680     35.803
REMARK  Name = CP466722.pdbqt.pdb
REMARK  3 active torsions:
REMARK  status: ('A' for Active; 'I' for Inactive)
REMARK    1  A    between atoms: C_5  and  C_23
REMARK    2  A    between atoms: C_14  and  O_16
REMARK    3  A    between atoms: C_15  and  O_18
REMARK                            x       y       z     vdW  Elec       q    Type
REMARK                         _______ _______ _______ _____ _____    ______ ____
ROOT
ATOM      1  N   UNL     1      22.804  21.131   1.575  0.00  0.00    +0.000 N 
ATOM      2  N   UNL     1      22.036  21.295   2.678  0.00  0.00    +0.000 NA
ATOM      3  N   UNL     1      21.378  19.441   1.530  0.00  0.00    +0.000 NA
ATOM      4  C   UNL     1      22.389  19.981   0.899  0.00  0.00    +0.000 A 
ATOM      5  C   UNL     1      21.184  20.260   2.619  0.00  0.00    +0.000 A 
ATOM      6  C   UNL     1      23.836  22.053   1.196  0.00  0.00    +0.000 A 
ATOM      7  N   UNL     1      24.438  21.840  -0.004  0.00  0.00    +0.000 NA
ATOM      8  C   UNL     1      25.384  22.714  -0.365  0.00  0.00    +0.000 A 
ATOM      9  N   UNL     1      25.774  23.774   0.348  0.00  0.00    +0.000 NA
ATOM     10  C   UNL     1      25.180  23.978   1.525  0.00  0.00    +0.000 A 
ATOM     11  C   UNL     1      24.183  23.133   2.032  0.00  0.00    +0.000 A 
ATOM     12  C   UNL     1      25.571  25.081   2.271  0.00  0.00    +0.000 A 
ATOM     13  C   UNL     1      23.643  23.424   3.307  0.00  0.00    +0.000 A 
ATOM     14  C   UNL     1      24.069  24.511   4.062  0.00  0.00    +0.000 A 
ATOM     15  C   UNL     1      25.004  25.379   3.512  0.00  0.00    +0.000 A 
ATOM     16  N   UNL     1      22.954  19.502  -0.226  0.00  0.00    +0.000 N 
ATOM     17  H   UNL     1      22.441  18.813  -0.764  0.00  0.00    +0.000 HD
ATOM     18  H   UNL     1      23.581  20.099  -0.766  0.00  0.00    +0.000 HD
ENDROOT
BRANCH   5  19
ATOM     19  C   UNL     1      20.132  20.006   3.607  0.00  0.00    +0.000 A 
ATOM     20  N   UNL     1      19.286  21.026   3.916  0.00  0.00    +0.000 NA
ATOM     21  C   UNL     1      18.325  20.767   4.830  0.00  0.00    +0.000 A 
ATOM     22  C   UNL     1      18.156  19.545   5.454  0.00  0.00    +0.000 A 
ATOM     23  C   UNL     1      19.032  18.521   5.117  0.00  0.00    +0.000 A 
ATOM     24  C   UNL     1      20.035  18.745   4.183  0.00  0.00    +0.000 A 
ENDBRANCH   5  19
BRANCH  14  25
ATOM     25  O   UNL     1      23.478  24.732   5.276  0.00  0.00    +0.000 OA
ATOM     26  C   UNL     1      22.576  25.807   5.195  0.00  0.00    +0.000 C 
ENDBRANCH  14  25
BRANCH  15  27
ATOM     27  O   UNL     1      25.443  26.475   4.205  0.00  0.00    +0.000 OA
ATOM     28  C   UNL     1      26.598  27.001   3.599  0.00  0.00    +0.000 C 
ENDBRANCH  15  27
TORSDOF 3
ENDMDL
MODEL 8
REMARK VINA RESULT:      -7.1      4.169      7.385
REMARK  Name = CP466722.pdbqt.pdb
REMARK  3 active torsions:
REMARK  status: ('A' for Active; 'I' for Inactive)
REMARK    1  A    between atoms: C_5  and  C_23
REMARK    2  A    between atoms: C_14  and  O_16
REMARK    3  A    between atoms: C_15  and  O_18
REMARK                            x       y       z     vdW  Elec       q    Type
REMARK                         _______ _______ _______ _____ _____    ______ ____
ROOT
ATOM      1  N   UNL     1      46.109   0.860  11.663  0.00  0.00    +0.000 N 
ATOM      2  N   UNL     1      47.094   0.426  10.841  0.00  0.00    +0.000 NA
ATOM      3  N   UNL     1      47.496   2.573  11.486  0.00  0.00    +0.000 NA
ATOM      4  C   UNL     1      46.388   2.171  12.054  0.00  0.00    +0.000 A 
ATOM      5  C   UNL     1      47.912   1.485  10.754  0.00  0.00    +0.000 A 
ATOM      6  C   UNL     1      44.966   0.061  12.004  0.00  0.00    +0.000 A 
ATOM      7  N   UNL     1      43.988   0.667  12.728  0.00  0.00    +0.000 NA
ATOM      8  C   UNL     1      42.914  -0.072  13.025  0.00  0.00    +0.000 A 
ATOM      9  N   UNL     1      42.723  -1.344  12.662  0.00  0.00    +0.000 NA
ATOM     10  C   UNL     1      43.686  -1.933  11.952  0.00  0.00    +0.000 A 
ATOM     11  C   UNL     1      44.870  -1.280  11.583  0.00  0.00    +0.000 A 
ATOM     12  C   UNL     1      43.494  -3.251  11.562  0.00  0.00    +0.000 A 
ATOM     13  C   UNL     1      45.840  -2.011  10.857  0.00  0.00    +0.000 A 
ATOM     14  C   UNL     1      45.653  -3.343  10.504  0.00  0.00    +0.000 A 
ATOM     15  C   UNL     1      44.443  -3.951  10.813  0.00  0.00    +0.000 A 
ATOM     16  N   UNL     1      45.630   2.902  12.895  0.00  0.00    +0.000 N 
ATOM     17  H   UNL     1      45.781   3.905  12.927  0.00  0.00    +0.000 HD
ATOM     18  H   UNL     1      44.681   2.596  13.109  0.00  0.00    +0.000 HD
ENDROOT
BRANCH   5  19
ATOM     19  C   UNL     1      49.140   1.510   9.953  0.00  0.00    +0.000 A 
ATOM     20  N   UNL     1      50.313   1.200  10.572  0.00  0.00    +0.000 NA
ATOM     21  C   UNL     1      51.430   1.231   9.814  0.00  0.00    +0.000 A 
ATOM     22  C   UNL     1      51.448   1.551   8.468  0.00  0.00    +0.000 A 
ATOM     23  C   UNL     1      50.236   1.860   7.863  0.00  0.00    +0.000 A 
ATOM     24  C   UNL     1      49.063   1.842   8.606  0.00  0.00    +0.000 A 
ENDBRANCH   5  19
BRANCH  14  25
ATOM     25  O   UNL     1      46.634  -3.968   9.782  0.00  0.00    +0.000 OA
ATOM     26  C   UNL     1      47.699  -3.085   9.532  0.00  0.00    +0.000 C 
ENDBRANCH  14  25
BRANCH  15  27
ATOM     27  O   UNL     1      44.200  -5.254  10.471  0.00  0.00    +0.000 OA
ATOM     28  C   UNL     1      42.828  -5.537  10.581  0.00  0.00    +0.000 C 
ENDBRANCH  15  27
TORSDOF 3
ENDMDL
MODEL 9
REMARK VINA RESULT:      -6.7      4.758      7.294
REMARK  Name = CP466722.pdbqt.pdb
REMARK  3 active torsions:
REMARK  status: ('A' for Active; 'I' for Inactive)
REMARK    1  A    between atoms: C_5  and  C_23
REMARK    2  A    between atoms: C_14  and  O_16
REMARK    3  A    between atoms: C_15  and  O_18
REMARK                            x       y       z     vdW  Elec       q    Type
REMARK                         _______ _______ _______ _____ _____    ______ ____
ROOT
ATOM      1  N   UNL     1      45.886   1.545  12.449  0.00  0.00    +0.000 N 
ATOM      2  N   UNL     1      46.623   0.730  11.659  0.00  0.00    +0.000 NA
ATOM      3  N   UNL     1      47.505   2.829  11.662  0.00  0.00    +0.000 NA
ATOM      4  C   UNL     1      46.457   2.820  12.444  0.00  0.00    +0.000 A 
ATOM      5  C   UNL     1      47.590   1.537  11.198  0.00  0.00    +0.000 A 
ATOM      6  C   UNL     1      44.694   1.114  13.123  0.00  0.00    +0.000 A 
ATOM      7  N   UNL     1      43.978   2.070  13.773  0.00  0.00    +0.000 NA
ATOM      8  C   UNL     1      42.856   1.670  14.381  0.00  0.00    +0.000 A 
ATOM      9  N   UNL     1      42.382   0.421  14.392  0.00  0.00    +0.000 NA
ATOM     10  C   UNL     1      43.089  -0.512  13.752  0.00  0.00    +0.000 A 
ATOM     11  C   UNL     1      44.290  -0.235  13.085  0.00  0.00    +0.000 A 
ATOM     12  C   UNL     1      42.601  -1.812  13.749  0.00  0.00    +0.000 A 
ATOM     13  C   UNL     1      44.976  -1.307  12.466  0.00  0.00    +0.000 A 
ATOM     14  C   UNL     1      44.497  -2.612  12.502  0.00  0.00    +0.000 A 
ATOM     15  C   UNL     1      43.268  -2.855  13.104  0.00  0.00    +0.000 A 
ATOM     16  N   UNL     1      45.996   3.873  13.147  0.00  0.00    +0.000 N 
ATOM     17  H   UNL     1      46.327   4.798  12.895  0.00  0.00    +0.000 HD
ATOM     18  H   UNL     1      45.059   3.838  13.547  0.00  0.00    +0.000 HD
ENDROOT
BRANCH   5  19
ATOM     19  C   UNL     1      48.649   1.108  10.279  0.00  0.00    +0.000 A 
ATOM     20  N   UNL     1      49.245  -0.094  10.508  0.00  0.00    +0.000 NA
ATOM     21  C   UNL     1      50.218  -0.467   9.647  0.00  0.00    +0.000 A 
ATOM     22  C   UNL     1      50.631   0.291   8.566  0.00  0.00    +0.000 A 
ATOM     23  C   UNL     1      50.003   1.511   8.356  0.00  0.00    +0.000 A 
ATOM     24  C   UNL     1      48.998   1.934   9.218  0.00  0.00    +0.000 A 
ENDBRANCH   5  19
BRANCH  14  25
ATOM     25  O   UNL     1      45.213  -3.585  11.859  0.00  0.00    +0.000 OA
ATOM     26  C   UNL     1      45.783  -3.077  10.679  0.00  0.00    +0.000 C 
ENDBRANCH  14  25
BRANCH  15  27
ATOM     27  O   UNL     1      42.743  -4.118  13.149  0.00  0.00    +0.000 OA
ATOM     28  C   UNL     1      42.857  -4.645  14.447  0.00  0.00    +0.000 C 
ENDBRANCH  15  27
TORSDOF 3
ENDMDL
