MODEL 1
REMARK VINA RESULT:      -7.0      0.000      0.000
REMARK  Name = Curcumin.pdbqt.pdb
REMARK  8 active torsions:
REMARK  status: ('A' for Active; 'I' for Inactive)
REMARK    1  A    between atoms: C_2  and  C_4
REMARK    2  A    between atoms: C_5  and  C_6
REMARK    3  A    between atoms: C_8  and  O_12
REMARK    4  A    between atoms: C_9  and  O_14
REMARK    5  A    between atoms: C_16  and  C_18
REMARK    6  A    between atoms: C_19  and  C_20
REMARK    7  A    between atoms: C_22  and  O_26
REMARK    8  A    between atoms: C_23  and  O_28
REMARK                            x       y       z     vdW  Elec       q    Type
REMARK                         _______ _______ _______ _____ _____    ______ ____
ROOT
ATOM      1  C   UNL     1      47.636   0.911  10.413  0.00  0.00    +0.000 C 
ATOM      2  C   UNL     1      48.043   0.334   9.175  0.00  0.00    +0.000 C 
ATOM      3  O   UNL     1      47.530  -0.708   8.795  0.00  0.00    +0.000 OA
ATOM      4  C   UNL     1      47.231   1.485  11.653  0.00  0.00    +0.000 C 
ATOM      5  O   UNL     1      47.934   2.330  12.189  0.00  0.00    +0.000 OA
ENDROOT
BRANCH   2   6
ATOM      6  C   UNL     1      49.053   0.984   8.379  0.00  0.00    +0.000 C 
ATOM      7  C   UNL     1      49.897   1.523   7.715  0.00  0.00    +0.000 C 
BRANCH   7   8
ATOM      8  C   UNL     1      50.896   2.165   6.926  0.00  0.00    +0.000 A 
ATOM      9  C   UNL     1      50.673   2.387   5.568  0.00  0.00    +0.000 A 
ATOM     10  C   UNL     1      51.642   3.014   4.779  0.00  0.00    +0.000 A 
ATOM     11  C   UNL     1      52.840   3.415   5.378  0.00  0.00    +0.000 A 
ATOM     12  C   UNL     1      53.066   3.194   6.737  0.00  0.00    +0.000 A 
ATOM     13  C   UNL     1      52.093   2.568   7.511  0.00  0.00    +0.000 A 
BRANCH  10  14
ATOM     14  O   UNL     1      51.492   3.267   3.438  0.00  0.00    +0.000 OA
ATOM     15  C   UNL     1      50.540   4.233   3.096  0.00  0.00    +0.000 C 
ENDBRANCH  10  14
BRANCH  11  16
ATOM     16  O   UNL     1      53.845   4.035   4.689  0.00  0.00    +0.000 OA
ATOM     17  H   UNL     1      54.592   4.237   5.278  0.00  0.00    +0.000 HD
ENDBRANCH  11  16
ENDBRANCH   7   8
ENDBRANCH   2   6
BRANCH   4  18
ATOM     18  C   UNL     1      45.997   1.065  12.266  0.00  0.00    +0.000 C 
ATOM     19  C   UNL     1      44.968   0.717  12.781  0.00  0.00    +0.000 C 
BRANCH  19  20
ATOM     20  C   UNL     1      43.750   0.306  13.396  0.00  0.00    +0.000 A 
ATOM     21  C   UNL     1      43.462  -1.053  13.525  0.00  0.00    +0.000 A 
ATOM     22  C   UNL     1      42.271  -1.473  14.124  0.00  0.00    +0.000 A 
ATOM     23  C   UNL     1      41.378  -0.506  14.592  0.00  0.00    +0.000 A 
ATOM     24  C   UNL     1      41.660   0.853  14.466  0.00  0.00    +0.000 A 
ATOM     25  C   UNL     1      42.849   1.259  13.866  0.00  0.00    +0.000 A 
BRANCH  22  26
ATOM     26  O   UNL     1      41.910  -2.788  14.291  0.00  0.00    +0.000 OA
ATOM     27  C   UNL     1      42.964  -3.715  14.251  0.00  0.00    +0.000 C 
ENDBRANCH  22  26
BRANCH  23  28
ATOM     28  O   UNL     1      40.207  -0.897  15.182  0.00  0.00    +0.000 OA
ATOM     29  H   UNL     1      39.611  -1.244  14.494  0.00  0.00    +0.000 HD
ENDBRANCH  23  28
ENDBRANCH  19  20
ENDBRANCH   4  18
TORSDOF 8
ENDMDL
MODEL 2
REMARK VINA RESULT:      -6.9      6.934     10.490
REMARK  Name = Curcumin.pdbqt.pdb
REMARK  8 active torsions:
REMARK  status: ('A' for Active; 'I' for Inactive)
REMARK    1  A    between atoms: C_2  and  C_4
REMARK    2  A    between atoms: C_5  and  C_6
REMARK    3  A    between atoms: C_8  and  O_12
REMARK    4  A    between atoms: C_9  and  O_14
REMARK    5  A    between atoms: C_16  and  C_18
REMARK    6  A    between atoms: C_19  and  C_20
REMARK    7  A    between atoms: C_22  and  O_26
REMARK    8  A    between atoms: C_23  and  O_28
REMARK                            x       y       z     vdW  Elec       q    Type
REMARK                         _______ _______ _______ _____ _____    ______ ____
ROOT
ATOM      1  C   UNL     1      44.184  -0.787  13.592  0.00  0.00    +0.000 C 
ATOM      2  C   UNL     1      44.796   0.478  13.358  0.00  0.00    +0.000 C 
ATOM      3  O   UNL     1      45.519   0.630  12.384  0.00  0.00    +0.000 OA
ATOM      4  C   UNL     1      43.576  -2.054  13.828  0.00  0.00    +0.000 C 
ATOM      5  O   UNL     1      43.119  -2.313  14.932  0.00  0.00    +0.000 OA
ENDROOT
BRANCH   2   6
ATOM      6  C   UNL     1      44.557   1.570  14.268  0.00  0.00    +0.000 C 
ATOM      7  C   UNL     1      44.356   2.480  15.026  0.00  0.00    +0.000 C 
BRANCH   7   8
ATOM      8  C   UNL     1      44.117   3.559  15.928  0.00  0.00    +0.000 A 
ATOM      9  C   UNL     1      43.480   3.321  17.144  0.00  0.00    +0.000 A 
ATOM     10  C   UNL     1      43.238   4.366  18.040  0.00  0.00    +0.000 A 
ATOM     11  C   UNL     1      43.649   5.657  17.692  0.00  0.00    +0.000 A 
ATOM     12  C   UNL     1      44.286   5.898  16.476  0.00  0.00    +0.000 A 
ATOM     13  C   UNL     1      44.521   4.848  15.593  0.00  0.00    +0.000 A 
BRANCH  10  14
ATOM     14  O   UNL     1      42.618   4.207  19.254  0.00  0.00    +0.000 OA
ATOM     15  C   UNL     1      43.443   3.840  20.324  0.00  0.00    +0.000 C 
ENDBRANCH  10  14
BRANCH  11  16
ATOM     16  O   UNL     1      43.456   6.742  18.502  0.00  0.00    +0.000 OA
ATOM     17  H   UNL     1      43.295   6.461  19.419  0.00  0.00    +0.000 HD
ENDBRANCH  11  16
ENDBRANCH   7   8
ENDBRANCH   2   6
BRANCH   4  18
ATOM     18  C   UNL     1      43.503  -3.021  12.762  0.00  0.00    +0.000 C 
ATOM     19  C   UNL     1      43.445  -3.831  11.876  0.00  0.00    +0.000 C 
BRANCH  19  20
ATOM     20  C   UNL     1      43.378  -4.794  10.827  0.00  0.00    +0.000 A 
ATOM     21  C   UNL     1      44.427  -5.693  10.643  0.00  0.00    +0.000 A 
ATOM     22  C   UNL     1      44.377  -6.644   9.619  0.00  0.00    +0.000 A 
ATOM     23  C   UNL     1      43.255  -6.674   8.786  0.00  0.00    +0.000 A 
ATOM     24  C   UNL     1      42.203  -5.777   8.966  0.00  0.00    +0.000 A 
ATOM     25  C   UNL     1      42.266  -4.836   9.989  0.00  0.00    +0.000 A 
BRANCH  22  26
ATOM     26  O   UNL     1      45.365  -7.565   9.368  0.00  0.00    +0.000 OA
ATOM     27  C   UNL     1      46.671  -7.052   9.319  0.00  0.00    +0.000 C 
ENDBRANCH  22  26
BRANCH  23  28
ATOM     28  O   UNL     1      43.187  -7.597   7.778  0.00  0.00    +0.000 OA
ATOM     29  H   UNL     1      42.250  -7.778   7.584  0.00  0.00    +0.000 HD
ENDBRANCH  23  28
ENDBRANCH  19  20
ENDBRANCH   4  18
TORSDOF 8
ENDMDL
MODEL 3
REMARK VINA RESULT:      -6.5     34.191     37.637
REMARK  Name = Curcumin.pdbqt.pdb
REMARK  8 active torsions:
REMARK  status: ('A' for Active; 'I' for Inactive)
REMARK    1  A    between atoms: C_2  and  C_4
REMARK    2  A    between atoms: C_5  and  C_6
REMARK    3  A    between atoms: C_8  and  O_12
REMARK    4  A    between atoms: C_9  and  O_14
REMARK    5  A    between atoms: C_16  and  C_18
REMARK    6  A    between atoms: C_19  and  C_20
REMARK    7  A    between atoms: C_22  and  O_26
REMARK    8  A    between atoms: C_23  and  O_28
REMARK                            x       y       z     vdW  Elec       q    Type
REMARK                         _______ _______ _______ _____ _____    ______ ____
ROOT
ATOM      1  C   UNL     1      21.887  26.756   5.583  0.00  0.00    +0.000 C 
ATOM      2  C   UNL     1      20.927  27.781   5.338  0.00  0.00    +0.000 C 
ATOM      3  O   UNL     1      20.625  28.066   4.189  0.00  0.00    +0.000 OA
ATOM      4  C   UNL     1      22.849  25.734   5.826  0.00  0.00    +0.000 C 
ATOM      5  O   UNL     1      23.385  25.653   6.922  0.00  0.00    +0.000 OA
ENDROOT
BRANCH   2   6
ATOM      6  C   UNL     1      20.317  28.471   6.447  0.00  0.00    +0.000 C 
ATOM      7  C   UNL     1      19.807  29.046   7.370  0.00  0.00    +0.000 C 
BRANCH   7   8
ATOM      8  C   UNL     1      19.203  29.728   8.468  0.00  0.00    +0.000 A 
ATOM      9  C   UNL     1      19.860  29.789   9.694  0.00  0.00    +0.000 A 
ATOM     10  C   UNL     1      19.283  30.453  10.781  0.00  0.00    +0.000 A 
ATOM     11  C   UNL     1      18.031  31.054  10.613  0.00  0.00    +0.000 A 
ATOM     12  C   UNL     1      17.371  30.994   9.386  0.00  0.00    +0.000 A 
ATOM     13  C   UNL     1      17.957  30.330   8.313  0.00  0.00    +0.000 A 
BRANCH  10  14
ATOM     14  O   UNL     1      19.871  30.556  12.017  0.00  0.00    +0.000 OA
ATOM     15  C   UNL     1      19.827  29.409  12.817  0.00  0.00    +0.000 C 
ENDBRANCH  10  14
BRANCH  11  16
ATOM     16  O   UNL     1      17.388  31.725  11.616  0.00  0.00    +0.000 OA
ATOM     17  H   UNL     1      16.682  32.287  11.256  0.00  0.00    +0.000 HD
ENDBRANCH  11  16
ENDBRANCH   7   8
ENDBRANCH   2   6
BRANCH   4  18
ATOM     18  C   UNL     1      23.184  24.804   4.778  0.00  0.00    +0.000 C 
ATOM     19  C   UNL     1      23.465  24.024   3.907  0.00  0.00    +0.000 C 
BRANCH  19  20
ATOM     20  C   UNL     1      23.799  23.098   2.877  0.00  0.00    +0.000 A 
ATOM     21  C   UNL     1      23.067  21.919   2.740  0.00  0.00    +0.000 A 
ATOM     22  C   UNL     1      23.382  21.000   1.735  0.00  0.00    +0.000 A 
ATOM     23  C   UNL     1      24.443  21.286   0.872  0.00  0.00    +0.000 A 
ATOM     24  C   UNL     1      25.179  22.463   1.005  0.00  0.00    +0.000 A 
ATOM     25  C   UNL     1      24.855  23.370   2.010  0.00  0.00    +0.000 A 
BRANCH  22  26
ATOM     26  O   UNL     1      22.713  19.817   1.530  0.00  0.00    +0.000 OA
ATOM     27  C   UNL     1      21.918  19.379   2.600  0.00  0.00    +0.000 C 
ENDBRANCH  22  26
BRANCH  23  28
ATOM     28  O   UNL     1      24.768  20.399  -0.118  0.00  0.00    +0.000 OA
ATOM     29  H   UNL     1      24.176  19.628  -0.051  0.00  0.00    +0.000 HD
ENDBRANCH  23  28
ENDBRANCH  19  20
ENDBRANCH   4  18
TORSDOF 8
ENDMDL
MODEL 4
REMARK VINA RESULT:      -6.3      5.655      7.571
REMARK  Name = Curcumin.pdbqt.pdb
REMARK  8 active torsions:
REMARK  status: ('A' for Active; 'I' for Inactive)
REMARK    1  A    between atoms: C_2  and  C_4
REMARK    2  A    between atoms: C_5  and  C_6
REMARK    3  A    between atoms: C_8  and  O_12
REMARK    4  A    between atoms: C_9  and  O_14
REMARK    5  A    between atoms: C_16  and  C_18
REMARK    6  A    between atoms: C_19  and  C_20
REMARK    7  A    between atoms: C_22  and  O_26
REMARK    8  A    between atoms: C_23  and  O_28
REMARK                            x       y       z     vdW  Elec       q    Type
REMARK                         _______ _______ _______ _____ _____    ______ ____
ROOT
ATOM      1  C   UNL     1      45.295   1.008  12.461  0.00  0.00    +0.000 C 
ATOM      2  C   UNL     1      46.461   1.791  12.223  0.00  0.00    +0.000 C 
ATOM      3  O   UNL     1      47.470   1.257  11.787  0.00  0.00    +0.000 OA
ATOM      4  C   UNL     1      44.130   0.223  12.702  0.00  0.00    +0.000 C 
ATOM      5  O   UNL     1      43.238   0.662  13.414  0.00  0.00    +0.000 OA
ENDROOT
BRANCH   2   6
ATOM      6  C   UNL     1      46.443   3.206  12.495  0.00  0.00    +0.000 C 
ATOM      7  C   UNL     1      46.429   4.385  12.722  0.00  0.00    +0.000 C 
BRANCH   7   8
ATOM      8  C   UNL     1      46.413   5.787  12.990  0.00  0.00    +0.000 A 
ATOM      9  C   UNL     1      46.545   6.696  11.942  0.00  0.00    +0.000 A 
ATOM     10  C   UNL     1      46.531   8.073  12.186  0.00  0.00    +0.000 A 
ATOM     11  C   UNL     1      46.382   8.520  13.503  0.00  0.00    +0.000 A 
ATOM     12  C   UNL     1      46.250   7.612  14.553  0.00  0.00    +0.000 A 
ATOM     13  C   UNL     1      46.265   6.244  14.296  0.00  0.00    +0.000 A 
BRANCH  10  14
ATOM     14  O   UNL     1      46.654   9.026  11.207  0.00  0.00    +0.000 OA
ATOM     15  C   UNL     1      47.956   9.459  10.929  0.00  0.00    +0.000 C 
ENDBRANCH  10  14
BRANCH  11  16
ATOM     16  O   UNL     1      46.357   9.845  13.839  0.00  0.00    +0.000 OA
ATOM     17  H   UNL     1      45.469  10.108  14.133  0.00  0.00    +0.000 HD
ENDBRANCH  11  16
ENDBRANCH   7   8
ENDBRANCH   2   6
BRANCH   4  18
ATOM     18  C   UNL     1      44.011  -1.083  12.105  0.00  0.00    +0.000 C 
ATOM     19  C   UNL     1      43.909  -2.171  11.604  0.00  0.00    +0.000 C 
BRANCH  19  20
ATOM     20  C   UNL     1      43.784  -3.459  11.008  0.00  0.00    +0.000 A 
ATOM     21  C   UNL     1      44.826  -4.379  11.120  0.00  0.00    +0.000 A 
ATOM     22  C   UNL     1      44.720  -5.647  10.542  0.00  0.00    +0.000 A 
ATOM     23  C   UNL     1      43.550  -5.974   9.851  0.00  0.00    +0.000 A 
ATOM     24  C   UNL     1      42.505  -5.057   9.735  0.00  0.00    +0.000 A 
ATOM     25  C   UNL     1      42.624  -3.798  10.316  0.00  0.00    +0.000 A 
BRANCH  22  26
ATOM     26  O   UNL     1      45.697  -6.611  10.605  0.00  0.00    +0.000 OA
ATOM     27  C   UNL     1      46.872  -6.239  11.277  0.00  0.00    +0.000 C 
ENDBRANCH  22  26
BRANCH  23  28
ATOM     28  O   UNL     1      43.427  -7.209   9.277  0.00  0.00    +0.000 OA
ATOM     29  H   UNL     1      43.173  -7.096   8.343  0.00  0.00    +0.000 HD
ENDBRANCH  23  28
ENDBRANCH  19  20
ENDBRANCH   4  18
TORSDOF 8
ENDMDL
MODEL 5
REMARK VINA RESULT:      -6.2      7.162     10.467
REMARK  Name = Curcumin.pdbqt.pdb
REMARK  8 active torsions:
REMARK  status: ('A' for Active; 'I' for Inactive)
REMARK    1  A    between atoms: C_2  and  C_4
REMARK    2  A    between atoms: C_5  and  C_6
REMARK    3  A    between atoms: C_8  and  O_12
REMARK    4  A    between atoms: C_9  and  O_14
REMARK    5  A    between atoms: C_16  and  C_18
REMARK    6  A    between atoms: C_19  and  C_20
REMARK    7  A    between atoms: C_22  and  O_26
REMARK    8  A    between atoms: C_23  and  O_28
REMARK                            x       y       z     vdW  Elec       q    Type
REMARK                         _______ _______ _______ _____ _____    ______ ____
ROOT
ATOM      1  C   UNL     1      44.831  -5.251   9.871  0.00  0.00    +0.000 C 
ATOM      2  C   UNL     1      46.066  -5.850   9.487  0.00  0.00    +0.000 C 
ATOM      3  O   UNL     1      47.096  -5.194   9.532  0.00  0.00    +0.000 OA
ATOM      4  C   UNL     1      43.596  -4.651  10.252  0.00  0.00    +0.000 C 
ATOM      5  O   UNL     1      42.541  -5.173   9.923  0.00  0.00    +0.000 OA
ENDROOT
BRANCH   2   6
ATOM      6  C   UNL     1      46.093  -7.223   9.051  0.00  0.00    +0.000 C 
ATOM      7  C   UNL     1      46.115  -8.368   8.690  0.00  0.00    +0.000 C 
BRANCH   7   8
ATOM      8  C   UNL     1      46.140  -9.728   8.259  0.00  0.00    +0.000 A 
ATOM      9  C   UNL     1      45.233 -10.169   7.297  0.00  0.00    +0.000 A 
ATOM     10  C   UNL     1      45.243 -11.498   6.863  0.00  0.00    +0.000 A 
ATOM     11  C   UNL     1      46.180 -12.377   7.414  0.00  0.00    +0.000 A 
ATOM     12  C   UNL     1      47.088 -11.939   8.378  0.00  0.00    +0.000 A 
ATOM     13  C   UNL     1      47.067 -10.613   8.801  0.00  0.00    +0.000 A 
BRANCH  10  14
ATOM     14  O   UNL     1      44.384 -12.003   5.920  0.00  0.00    +0.000 OA
ATOM     15  C   UNL     1      43.094 -12.314   6.365  0.00  0.00    +0.000 C 
ENDBRANCH  10  14
BRANCH  11  16
ATOM     16  O   UNL     1      46.266 -13.693   7.054  0.00  0.00    +0.000 OA
ATOM     17  H   UNL     1      47.100 -14.082   7.368  0.00  0.00    +0.000 HD
ENDBRANCH  11  16
ENDBRANCH   7   8
ENDBRANCH   2   6
BRANCH   4  18
ATOM     18  C   UNL     1      43.600  -3.433  11.022  0.00  0.00    +0.000 C 
ATOM     19  C   UNL     1      43.606  -2.419  11.668  0.00  0.00    +0.000 C 
BRANCH  19  20
ATOM     20  C   UNL     1      43.615  -1.219  12.436  0.00  0.00    +0.000 A 
ATOM     21  C   UNL     1      42.473  -0.838  13.140  0.00  0.00    +0.000 A 
ATOM     22  C   UNL     1      42.465   0.337  13.898  0.00  0.00    +0.000 A 
ATOM     23  C   UNL     1      43.623   1.118  13.937  0.00  0.00    +0.000 A 
ATOM     24  C   UNL     1      44.767   0.741  13.235  0.00  0.00    +0.000 A 
ATOM     25  C   UNL     1      44.762  -0.430  12.484  0.00  0.00    +0.000 A 
BRANCH  22  26
ATOM     26  O   UNL     1      41.385   0.785  14.620  0.00  0.00    +0.000 OA
ATOM     27  C   UNL     1      40.365  -0.156  14.829  0.00  0.00    +0.000 C 
ENDBRANCH  22  26
BRANCH  23  28
ATOM     28  O   UNL     1      43.635   2.271  14.673  0.00  0.00    +0.000 OA
ATOM     29  H   UNL     1      42.778   2.359  15.129  0.00  0.00    +0.000 HD
ENDBRANCH  23  28
ENDBRANCH  19  20
ENDBRANCH   4  18
TORSDOF 8
ENDMDL
MODEL 6
REMARK VINA RESULT:      -6.2     34.507     36.921
REMARK  Name = Curcumin.pdbqt.pdb
REMARK  8 active torsions:
REMARK  status: ('A' for Active; 'I' for Inactive)
REMARK    1  A    between atoms: C_2  and  C_4
REMARK    2  A    between atoms: C_5  and  C_6
REMARK    3  A    between atoms: C_8  and  O_12
REMARK    4  A    between atoms: C_9  and  O_14
REMARK    5  A    between atoms: C_16  and  C_18
REMARK    6  A    between atoms: C_19  and  C_20
REMARK    7  A    between atoms: C_22  and  O_26
REMARK    8  A    between atoms: C_23  and  O_28
REMARK                            x       y       z     vdW  Elec       q    Type
REMARK                         _______ _______ _______ _____ _____    ______ ____
ROOT
ATOM      1  C   UNL     1      21.693  26.924   5.554  0.00  0.00    +0.000 C 
ATOM      2  C   UNL     1      22.731  25.982   5.809  0.00  0.00    +0.000 C 
ATOM      3  O   UNL     1      23.300  25.985   6.891  0.00  0.00    +0.000 OA
ATOM      4  C   UNL     1      20.658  27.869   5.300  0.00  0.00    +0.000 C 
ATOM      5  O   UNL     1      20.303  28.086   4.150  0.00  0.00    +0.000 OA
ENDROOT
BRANCH   2   6
ATOM      6  C   UNL     1      23.102  25.031   4.792  0.00  0.00    +0.000 C 
ATOM      7  C   UNL     1      23.409  24.237   3.944  0.00  0.00    +0.000 C 
BRANCH   7   8
ATOM      8  C   UNL     1      23.774  23.297   2.935  0.00  0.00    +0.000 A 
ATOM      9  C   UNL     1      24.923  23.505   2.175  0.00  0.00    +0.000 A 
ATOM     10  C   UNL     1      25.297  22.593   1.182  0.00  0.00    +0.000 A 
ATOM     11  C   UNL     1      24.494  21.468   0.967  0.00  0.00    +0.000 A 
ATOM     12  C   UNL     1      23.344  21.258   1.727  0.00  0.00    +0.000 A 
ATOM     13  C   UNL     1      22.983  22.174   2.712  0.00  0.00    +0.000 A 
BRANCH  10  14
ATOM     14  O   UNL     1      26.413  22.731   0.396  0.00  0.00    +0.000 OA
ATOM     15  C   UNL     1      26.363  23.738  -0.574  0.00  0.00    +0.000 C 
ENDBRANCH  10  14
BRANCH  11  16
ATOM     16  O   UNL     1      24.778  20.523   0.021  0.00  0.00    +0.000 OA
ATOM     17  H   UNL     1      25.614  20.729  -0.430  0.00  0.00    +0.000 HD
ENDBRANCH  11  16
ENDBRANCH   7   8
ENDBRANCH   2   6
BRANCH   4  18
ATOM     18  C   UNL     1      20.036  28.562   6.399  0.00  0.00    +0.000 C 
ATOM     19  C   UNL     1      19.516  29.144   7.313  0.00  0.00    +0.000 C 
BRANCH  19  20
ATOM     20  C   UNL     1      18.901  29.837   8.396  0.00  0.00    +0.000 A 
ATOM     21  C   UNL     1      19.505  29.839   9.652  0.00  0.00    +0.000 A 
ATOM     22  C   UNL     1      18.915  30.514  10.724  0.00  0.00    +0.000 A 
ATOM     23  C   UNL     1      17.708  31.187  10.511  0.00  0.00    +0.000 A 
ATOM     24  C   UNL     1      17.099  31.188   9.257  0.00  0.00    +0.000 A 
ATOM     25  C   UNL     1      17.698  30.512   8.198  0.00  0.00    +0.000 A 
BRANCH  22  26
ATOM     26  O   UNL     1      19.442  30.566  11.992  0.00  0.00    +0.000 OA
ATOM     27  C   UNL     1      20.666  31.242  12.110  0.00  0.00    +0.000 C 
ENDBRANCH  22  26
BRANCH  23  28
ATOM     28  O   UNL     1      17.114  31.853  11.547  0.00  0.00    +0.000 OA
ATOM     29  H   UNL     1      17.499  32.747  11.605  0.00  0.00    +0.000 HD
ENDBRANCH  23  28
ENDBRANCH  19  20
ENDBRANCH   4  18
TORSDOF 8
ENDMDL
MODEL 7
REMARK VINA RESULT:      -6.1      6.400      9.257
REMARK  Name = Curcumin.pdbqt.pdb
REMARK  8 active torsions:
REMARK  status: ('A' for Active; 'I' for Inactive)
REMARK    1  A    between atoms: C_2  and  C_4
REMARK    2  A    between atoms: C_5  and  C_6
REMARK    3  A    between atoms: C_8  and  O_12
REMARK    4  A    between atoms: C_9  and  O_14
REMARK    5  A    between atoms: C_16  and  C_18
REMARK    6  A    between atoms: C_19  and  C_20
REMARK    7  A    between atoms: C_22  and  O_26
REMARK    8  A    between atoms: C_23  and  O_28
REMARK                            x       y       z     vdW  Elec       q    Type
REMARK                         _______ _______ _______ _____ _____    ______ ____
ROOT
ATOM      1  C   UNL     1      44.305  -0.300  12.766  0.00  0.00    +0.000 C 
ATOM      2  C   UNL     1      45.369  -0.892  12.025  0.00  0.00    +0.000 C 
ATOM      3  O   UNL     1      46.414  -0.277  11.871  0.00  0.00    +0.000 OA
ATOM      4  C   UNL     1      43.241   0.294  13.505  0.00  0.00    +0.000 C 
ATOM      5  O   UNL     1      42.108  -0.156  13.406  0.00  0.00    +0.000 OA
ENDROOT
BRANCH   2   6
ATOM      6  C   UNL     1      45.206  -2.210  11.466  0.00  0.00    +0.000 C 
ATOM      7  C   UNL     1      45.071  -3.309  11.002  0.00  0.00    +0.000 C 
BRANCH   7   8
ATOM      8  C   UNL     1      44.909  -4.615  10.450  0.00  0.00    +0.000 A 
ATOM      9  C   UNL     1      43.630  -5.114  10.212  0.00  0.00    +0.000 A 
ATOM     10  C   UNL     1      43.451  -6.392   9.671  0.00  0.00    +0.000 A 
ATOM     11  C   UNL     1      44.582  -7.158   9.373  0.00  0.00    +0.000 A 
ATOM     12  C   UNL     1      45.863  -6.660   9.609  0.00  0.00    +0.000 A 
ATOM     13  C   UNL     1      46.026  -5.387  10.149  0.00  0.00    +0.000 A 
BRANCH  10  14
ATOM     14  O   UNL     1      42.225  -6.949   9.409  0.00  0.00    +0.000 OA
ATOM     15  C   UNL     1      41.142  -6.414  10.117  0.00  0.00    +0.000 C 
ENDBRANCH  10  14
BRANCH  11  16
ATOM     16  O   UNL     1      44.508  -8.416   8.842  0.00  0.00    +0.000 OA
ATOM     17  H   UNL     1      44.706  -9.086   9.518  0.00  0.00    +0.000 HD
ENDBRANCH  11  16
ENDBRANCH   7   8
ENDBRANCH   2   6
BRANCH   4  18
ATOM     18  C   UNL     1      43.507   1.421  14.363  0.00  0.00    +0.000 C 
ATOM     19  C   UNL     1      43.734   2.359  15.078  0.00  0.00    +0.000 C 
BRANCH  19  20
ATOM     20  C   UNL     1      44.006   3.471  15.927  0.00  0.00    +0.000 A 
ATOM     21  C   UNL     1      43.339   3.594  17.145  0.00  0.00    +0.000 A 
ATOM     22  C   UNL     1      43.595   4.678  17.990  0.00  0.00    +0.000 A 
ATOM     23  C   UNL     1      44.531   5.635  17.588  0.00  0.00    +0.000 A 
ATOM     24  C   UNL     1      45.200   5.517  16.371  0.00  0.00    +0.000 A 
ATOM     25  C   UNL     1      44.936   4.433  15.540  0.00  0.00    +0.000 A 
BRANCH  22  26
ATOM     26  O   UNL     1      42.983   4.875  19.204  0.00  0.00    +0.000 OA
ATOM     27  C   UNL     1      41.615   5.182  19.150  0.00  0.00    +0.000 C 
ENDBRANCH  22  26
BRANCH  23  28
ATOM     28  O   UNL     1      44.794   6.704  18.400  0.00  0.00    +0.000 OA
ATOM     29  H   UNL     1      45.554   6.483  18.969  0.00  0.00    +0.000 HD
ENDBRANCH  23  28
ENDBRANCH  19  20
ENDBRANCH   4  18
TORSDOF 8
ENDMDL
MODEL 8
REMARK VINA RESULT:      -6.1      6.172      7.407
REMARK  Name = Curcumin.pdbqt.pdb
REMARK  8 active torsions:
REMARK  status: ('A' for Active; 'I' for Inactive)
REMARK    1  A    between atoms: C_2  and  C_4
REMARK    2  A    between atoms: C_5  and  C_6
REMARK    3  A    between atoms: C_8  and  O_12
REMARK    4  A    between atoms: C_9  and  O_14
REMARK    5  A    between atoms: C_16  and  C_18
REMARK    6  A    between atoms: C_19  and  C_20
REMARK    7  A    between atoms: C_22  and  O_26
REMARK    8  A    between atoms: C_23  and  O_28
REMARK                            x       y       z     vdW  Elec       q    Type
REMARK                         _______ _______ _______ _____ _____    ______ ____
ROOT
ATOM      1  C   UNL     1      45.738  -0.298  13.097  0.00  0.00    +0.000 C 
ATOM      2  C   UNL     1      45.775   0.814  12.206  0.00  0.00    +0.000 C 
ATOM      3  O   UNL     1      45.437   0.667  11.041  0.00  0.00    +0.000 OA
ATOM      4  C   UNL     1      45.705  -1.412  13.986  0.00  0.00    +0.000 C 
ATOM      5  O   UNL     1      46.321  -1.365  15.041  0.00  0.00    +0.000 OA
ENDROOT
BRANCH   2   6
ATOM      6  C   UNL     1      46.207   2.102  12.685  0.00  0.00    +0.000 C 
ATOM      7  C   UNL     1      46.565   3.177  13.085  0.00  0.00    +0.000 C 
BRANCH   7   8
ATOM      8  C   UNL     1      46.992   4.452  13.562  0.00  0.00    +0.000 A 
ATOM      9  C   UNL     1      46.457   5.614  13.011  0.00  0.00    +0.000 A 
ATOM     10  C   UNL     1      46.864   6.873  13.465  0.00  0.00    +0.000 A 
ATOM     11  C   UNL     1      47.819   6.942  14.484  0.00  0.00    +0.000 A 
ATOM     12  C   UNL     1      48.356   5.780  15.038  0.00  0.00    +0.000 A 
ATOM     13  C   UNL     1      47.942   4.534  14.575  0.00  0.00    +0.000 A 
BRANCH  10  14
ATOM     14  O   UNL     1      46.381   8.059  12.972  0.00  0.00    +0.000 OA
ATOM     15  C   UNL     1      46.533   8.261  11.596  0.00  0.00    +0.000 C 
ENDBRANCH  10  14
BRANCH  11  16
ATOM     16  O   UNL     1      48.278   8.125  14.994  0.00  0.00    +0.000 OA
ATOM     17  H   UNL     1      49.006   7.970  15.619  0.00  0.00    +0.000 HD
ENDBRANCH  11  16
ENDBRANCH   7   8
ENDBRANCH   2   6
BRANCH   4  18
ATOM     18  C   UNL     1      44.946  -2.584  13.635  0.00  0.00    +0.000 C 
ATOM     19  C   UNL     1      44.310  -3.563  13.346  0.00  0.00    +0.000 C 
BRANCH  19  20
ATOM     20  C   UNL     1      43.556  -4.723  13.007  0.00  0.00    +0.000 A 
ATOM     21  C   UNL     1      42.761  -4.725  11.861  0.00  0.00    +0.000 A 
ATOM     22  C   UNL     1      42.015  -5.854  11.514  0.00  0.00    +0.000 A 
ATOM     23  C   UNL     1      42.082  -6.981  12.338  0.00  0.00    +0.000 A 
ATOM     24  C   UNL     1      42.875  -6.986  13.485  0.00  0.00    +0.000 A 
ATOM     25  C   UNL     1      43.612  -5.854  13.819  0.00  0.00    +0.000 A 
BRANCH  22  26
ATOM     26  O   UNL     1      41.209  -5.940  10.405  0.00  0.00    +0.000 OA
ATOM     27  C   UNL     1      41.557  -5.098   9.337  0.00  0.00    +0.000 C 
ENDBRANCH  22  26
BRANCH  23  28
ATOM     28  O   UNL     1      41.359  -8.097  12.016  0.00  0.00    +0.000 OA
ATOM     29  H   UNL     1      41.294  -8.157  11.046  0.00  0.00    +0.000 HD
ENDBRANCH  23  28
ENDBRANCH  19  20
ENDBRANCH   4  18
TORSDOF 8
ENDMDL
MODEL 9
REMARK VINA RESULT:      -6.0     21.649     28.277
REMARK  Name = Curcumin.pdbqt.pdb
REMARK  8 active torsions:
REMARK  status: ('A' for Active; 'I' for Inactive)
REMARK    1  A    between atoms: C_2  and  C_4
REMARK    2  A    between atoms: C_5  and  C_6
REMARK    3  A    between atoms: C_8  and  O_12
REMARK    4  A    between atoms: C_9  and  O_14
REMARK    5  A    between atoms: C_16  and  C_18
REMARK    6  A    between atoms: C_19  and  C_20
REMARK    7  A    between atoms: C_22  and  O_26
REMARK    8  A    between atoms: C_23  and  O_28
REMARK                            x       y       z     vdW  Elec       q    Type
REMARK                         _______ _______ _______ _____ _____    ______ ____
ROOT
ATOM      1  C   UNL     1      26.838  -5.065  25.801  0.00  0.00    +0.000 C 
ATOM      2  C   UNL     1      27.665  -4.345  26.712  0.00  0.00    +0.000 C 
ATOM      3  O   UNL     1      28.867  -4.564  26.742  0.00  0.00    +0.000 OA
ATOM      4  C   UNL     1      26.013  -5.788  24.892  0.00  0.00    +0.000 C 
ATOM      5  O   UNL     1      24.802  -5.813  25.061  0.00  0.00    +0.000 OA
ENDROOT
BRANCH   2   6
ATOM      6  C   UNL     1      27.079  -3.362  27.588  0.00  0.00    +0.000 C 
ATOM      7  C   UNL     1      26.592  -2.544  28.321  0.00  0.00    +0.000 C 
BRANCH   7   8
ATOM      8  C   UNL     1      26.014  -1.571  29.190  0.00  0.00    +0.000 A 
ATOM      9  C   UNL     1      25.144  -1.972  30.201  0.00  0.00    +0.000 A 
ATOM     10  C   UNL     1      24.569  -1.032  31.062  0.00  0.00    +0.000 A 
ATOM     11  C   UNL     1      24.884   0.319  30.888  0.00  0.00    +0.000 A 
ATOM     12  C   UNL     1      25.755   0.723  29.876  0.00  0.00    +0.000 A 
ATOM     13  C   UNL     1      26.320  -0.223  29.026  0.00  0.00    +0.000 A 
BRANCH  10  14
ATOM     14  O   UNL     1      23.705  -1.352  32.079  0.00  0.00    +0.000 OA
ATOM     15  C   UNL     1      24.270  -1.991  33.189  0.00  0.00    +0.000 C 
ENDBRANCH  10  14
BRANCH  11  16
ATOM     16  O   UNL     1      24.371   1.310  31.679  0.00  0.00    +0.000 OA
ATOM     17  H   UNL     1      25.085   1.841  32.070  0.00  0.00    +0.000 HD
ENDBRANCH  11  16
ENDBRANCH   7   8
ENDBRANCH   2   6
BRANCH   4  18
ATOM     18  C   UNL     1      26.611  -6.484  23.782  0.00  0.00    +0.000 C 
ATOM     19  C   UNL     1      27.109  -7.062  22.853  0.00  0.00    +0.000 C 
BRANCH  19  20
ATOM     20  C   UNL     1      27.700  -7.743  21.749  0.00  0.00    +0.000 A 
ATOM     21  C   UNL     1      28.009  -7.041  20.585  0.00  0.00    +0.000 A 
ATOM     22  C   UNL     1      28.589  -7.694  19.494  0.00  0.00    +0.000 A 
ATOM     23  C   UNL     1      28.853  -9.063  19.594  0.00  0.00    +0.000 A 
ATOM     24  C   UNL     1      28.545  -9.770  20.756  0.00  0.00    +0.000 A 
ATOM     25  C   UNL     1      27.968  -9.107  21.835  0.00  0.00    +0.000 A 
BRANCH  22  26
ATOM     26  O   UNL     1      28.924  -7.079  18.312  0.00  0.00    +0.000 OA
ATOM     27  C   UNL     1      29.959  -6.134  18.394  0.00  0.00    +0.000 C 
ENDBRANCH  22  26
BRANCH  23  28
ATOM     28  O   UNL     1      29.419  -9.720  18.537  0.00  0.00    +0.000 OA
ATOM     29  H   UNL     1      28.974  -9.436  17.718  0.00  0.00    +0.000 HD
ENDBRANCH  23  28
ENDBRANCH  19  20
ENDBRANCH   4  18
TORSDOF 8
ENDMDL
