REMARK  Name = Cyclosporin_A.pdbqt.pdb
REMARK  4 active torsions:
REMARK  status: ('A' for Active; 'I' for Inactive)
REMARK    1  A    between atoms: N_13  and  C_36
REMARK    2  A    between atoms: C_36  and  O_70
REMARK    3  A    between atoms: C_72  and  C_73
REMARK    4  A    between atoms: C_75  and  C_76
REMARK                            x       y       z     vdW  Elec       q    Type
REMARK                         _______ _______ _______ _____ _____    ______ ____
ROOT
ATOM      1  O   UNL     1       9.942  -4.378   2.054  0.00  0.00    +0.000 OA
ATOM      2  O   UNL     1      14.862  -3.339   1.041  0.00  0.00    +0.000 OA
ATOM      3  O   UNL     1      14.453  -0.425  -2.735  0.00  0.00    +0.000 OA
ATOM      4  O   UNL     1       6.766  -4.637  -1.668  0.00  0.00    +0.000 OA
ATOM      5  O   UNL     1      14.640   0.683   2.211  0.00  0.00    +0.000 OA
ATOM      6  O   UNL     1       6.361   8.072   0.221  0.00  0.00    +0.000 OA
ATOM      7  O   UNL     1       5.166  -2.053   3.007  0.00  0.00    +0.000 OA
ATOM      8  O   UNL     1       4.135   4.259  -1.964  0.00  0.00    +0.000 OA
ATOM      9  O   UNL     1      11.153   7.894   0.916  0.00  0.00    +0.000 OA
ATOM     10  O   UNL     1       3.307   0.966   0.347  0.00  0.00    +0.000 OA
ATOM     11  O   UNL     1      12.373   4.304   2.972  0.00  0.00    +0.000 OA
ATOM     12  N   UNL     1      12.955  -3.352   0.704  0.00  0.00    +0.000 NA
ATOM     13  N   UNL     1       9.977  -3.445  -0.163  0.00  0.00    +0.000 NA
ATOM     14  N   UNL     1      14.877  -1.499  -1.121  0.00  0.00    +0.000 NA
ATOM     15  N   UNL     1      14.535   1.535  -0.232  0.00  0.00    +0.000 NA
ATOM     16  N   UNL     1       6.997  -2.656  -0.264  0.00  0.00    +0.000 NA
ATOM     17  N   UNL     1       8.022   7.147  -1.168  0.00  0.00    +0.000 N 
ATOM     18  N   UNL     1       6.169   4.674  -0.883  0.00  0.00    +0.000 N 
ATOM     19  N   UNL     1       4.673   2.346   0.001  0.00  0.00    +0.000 NA
ATOM     20  N   UNL     1       6.315  -0.509   1.794  0.00  0.00    +0.000 NA
ATOM     21  N   UNL     1      12.150   2.878   0.952  0.00  0.00    +0.000 NA
ATOM     22  N   UNL     1      10.106   5.734   0.650  0.00  0.00    +0.000 NA
ATOM     23  C   UNL     1      11.896  -3.477   1.555  0.00  0.00    +0.000 C 
ATOM     24  C   UNL     1      13.711  -2.040  -0.757  0.00  0.00    +0.000 C 
ATOM     25  C   UNL     1       8.933  -4.192  -0.673  0.00  0.00    +0.000 C 
ATOM     26  C   UNL     1      11.997  -4.025   2.821  0.00  0.00    +0.000 C 
ATOM     27  C   UNL     1      13.350  -2.598  -2.080  0.00  0.00    +0.000 C 
ATOM     28  C   UNL     1      10.633  -3.698   1.046  0.00  0.00    +0.000 C 
ATOM     29  C   UNL     1      14.046  -2.539   0.456  0.00  0.00    +0.000 C 
ATOM     30  C   UNL     1      15.227   0.484  -0.575  0.00  0.00    +0.000 C 
ATOM     31  C   UNL     1      14.491  -0.262  -1.447  0.00  0.00    +0.000 C 
ATOM     32  C   UNL     1       7.610  -3.630  -1.081  0.00  0.00    +0.000 C 
ATOM     33  C   UNL     1      13.358  -4.460   2.799  0.00  0.00    +0.000 C 
ATOM     34  C   UNL     1      10.857  -4.728   3.028  0.00  0.00    +0.000 C 
ATOM     35  C   UNL     1      13.830  -3.912   1.616  0.00  0.00    +0.000 C 
ATOM     36  C   UNL     1      14.790  -1.779  -2.512  0.00  0.00    +0.000 C 
ATOM     37  C   UNL     1       6.126  -2.928   0.821  0.00  0.00    +0.000 C 
ATOM     38  C   UNL     1       5.959   5.930  -0.374  0.00  0.00    +0.000 A 
ATOM     39  C   UNL     1      14.128   1.065   0.943  0.00  0.00    +0.000 C 
ATOM     40  C   UNL     1       9.177   7.607  -0.486  0.00  0.00    +0.000 C 
ATOM     41  C   UNL     1       4.930   2.534  -1.316  0.00  0.00    +0.000 C 
ATOM     42  C   UNL     1      15.786   2.336  -0.259  0.00  0.00    +0.000 C 
ATOM     43  C   UNL     1       4.864   6.425   0.398  0.00  0.00    +0.000 A 
ATOM     44  C   UNL     1       9.266   9.278  -1.181  0.00  0.00    +0.000 C 
ATOM     45  C   UNL     1      13.010   1.978   1.318  0.00  0.00    +0.000 C 
ATOM     46  C   UNL     1       3.602   2.935  -1.899  0.00  0.00    +0.000 C 
ATOM     47  C   UNL     1       5.655  -4.275   0.849  0.00  0.00    +0.000 C 
ATOM     48  C   UNL     1       6.849   6.994  -0.478  0.00  0.00    +0.000 A 
ATOM     49  C   UNL     1       5.881  -1.978   1.758  0.00  0.00    +0.000 C 
ATOM     50  C   UNL     1       5.219   3.889  -1.339  0.00  0.00    +0.000 C 
ATOM     51  C   UNL     1      10.104   7.091   0.389  0.00  0.00    +0.000 C 
ATOM     52  C   UNL     1       5.543   0.270   0.822  0.00  0.00    +0.000 C 
ATOM     53  C   UNL     1       3.644   5.695   0.893  0.00  0.00    +0.000 C 
ATOM     54  C   UNL     1       5.153   7.721   0.741  0.00  0.00    +0.000 A 
ATOM     55  C   UNL     1       4.645   0.976  -0.020  0.00  0.00    +0.000 C 
ATOM     56  C   UNL     1      10.925   5.124   1.444  0.00  0.00    +0.000 C 
ATOM     57  C   UNL     1      13.665   1.443   2.394  0.00  0.00    +0.000 C 
ATOM     58  C   UNL     1       8.286   8.407  -1.583  0.00  0.00    +0.000 C 
ATOM     59  C   UNL     1       5.751  -5.338   0.304  0.00  0.00    +0.000 C 
ATOM     60  C   UNL     1      11.822   3.927   1.692  0.00  0.00    +0.000 C 
ATOM     61  C   UNL     1       3.107   2.361  -0.043  0.00  0.00    +0.000 C 
ATOM     62  C   UNL     1       5.620  -0.914   2.840  0.00  0.00    +0.000 C 
ATOM     63  C   UNL     1      11.613   5.217   2.608  0.00  0.00    +0.000 C 
ATOM     64  H   UNL     1       7.664  -1.938   0.020  0.00  0.00    +0.000 HD
ATOM     65  H   UNL     1       7.076   4.257  -0.688  0.00  0.00    +0.000 HD
ATOM     66  H   UNL     1      11.909   2.915  -0.035  0.00  0.00    +0.000 HD
ATOM     67  H   UNL     1       9.663   5.216  -0.103  0.00  0.00    +0.000 HD
ATOM     68  C   UNL     1       8.840  -5.482  -0.500  0.00  0.00    +0.000 C 
ATOM     69  C   UNL     1       7.801  -6.454  -0.518  0.00  0.00    +0.000 C 
ATOM     70  C   UNL     1       6.524  -5.777  -0.820  0.00  0.00    +0.000 C 
ATOM     71  C   UNL     1      13.674  -3.946  -3.016  0.00  0.00    +0.000 C 
ATOM     72  C   UNL     1      12.821  -4.580  -3.819  0.00  0.00    +0.000 C 
ATOM     73  C   UNL     1      14.610  -2.922  -3.186  0.00  0.00    +0.000 C 
ATOM     74  C   UNL     1      16.500   1.198  -0.746  0.00  0.00    +0.000 C 
ATOM     75  C   UNL     1      17.221   2.055   0.074  0.00  0.00    +0.000 C 
ATOM     76  C   UNL     1      18.410   2.876  -0.469  0.00  0.00    +0.000 C 
ATOM     77  C   UNL     1      16.405   2.833   0.873  0.00  0.00    +0.000 C 
ATOM     78  C   UNL     1       2.218   2.361  -2.462  0.00  0.00    +0.000 C 
ATOM     79  C   UNL     1       1.328   2.773  -3.361  0.00  0.00    +0.000 C 
ATOM     80  C   UNL     1       2.224   2.205  -1.075  0.00  0.00    +0.000 C 
ATOM     81  C   UNL     1      10.311   9.873  -0.601  0.00  0.00    +0.000 C 
ATOM     82  C   UNL     1      10.713  11.273  -0.928  0.00  0.00    +0.000 C 
ATOM     83  C   UNL     1      11.035   9.083   0.325  0.00  0.00    +0.000 C 
ENDROOT
BRANCH  69  84
ATOM     84  C   UNL     1       7.861  -7.748   0.051  0.00  0.00    +0.000 C 
ATOM     85  C   UNL     1       7.920  -8.847   0.532  0.00  0.00    +0.000 C 
BRANCH  85  86
ATOM     86  C   UNL     1       7.999 -10.250   1.143  0.00  0.00    +0.000 C 
ATOM     87  C   UNL     1       8.071 -11.471   1.670  0.00  0.00    +0.000 C 
ENDBRANCH  85  86
ENDBRANCH  69  84
BRANCH  13  88
ATOM     88  C   UNL     1      10.227  -2.154  -0.783  0.00  0.00    +0.000 C 
BRANCH  88  89
ATOM     89  O   UNL     1      10.437  -0.981  -1.365  0.00  0.00    +0.000 OA
ATOM     90  H   UNL     1      10.231  -1.039  -2.315  0.00  0.00    +0.000 HD
ENDBRANCH  88  89
ENDBRANCH  13  88
TORSDOF 4
