MODEL 1
REMARK VINA RESULT:     -10.7      0.000      0.000
REMARK  Name = Cyclosporin_A.pdbqt.pdb
REMARK  4 active torsions:
REMARK  status: ('A' for Active; 'I' for Inactive)
REMARK    1  A    between atoms: N_13  and  C_36
REMARK    2  A    between atoms: C_36  and  O_70
REMARK    3  A    between atoms: C_72  and  C_73
REMARK    4  A    between atoms: C_75  and  C_76
REMARK                            x       y       z     vdW  Elec       q    Type
REMARK                         _______ _______ _______ _____ _____    ______ ____
ROOT
ATOM      1  O   UNL     1      30.634  20.682  38.900  0.00  0.00    +0.000 OA
ATOM      2  O   UNL     1      32.991  25.202  38.331  0.00  0.00    +0.000 OA
ATOM      3  O   UNL     1      32.317  26.037  33.665  0.00  0.00    +0.000 OA
ATOM      4  O   UNL     1      30.722  17.486  35.187  0.00  0.00    +0.000 OA
ATOM      5  O   UNL     1      29.468  27.373  37.643  0.00  0.00    +0.000 OA
ATOM      6  O   UNL     1      20.538  24.381  31.446  0.00  0.00    +0.000 OA
ATOM      7  O   UNL     1      25.962  18.129  38.018  0.00  0.00    +0.000 OA
ATOM      8  O   UNL     1      23.028  20.186  30.754  0.00  0.00    +0.000 OA
ATOM      9  O   UNL     1      22.957  28.321  32.895  0.00  0.00    +0.000 OA
ATOM     10  O   UNL     1      23.942  17.952  34.077  0.00  0.00    +0.000 OA
ATOM     11  O   UNL     1      25.305  27.585  36.437  0.00  0.00    +0.000 OA
ATOM     12  N   UNL     1      32.115  23.581  37.735  0.00  0.00    +0.000 NA
ATOM     13  N   UNL     1      30.948  20.970  36.532  0.00  0.00    +0.000 NA
ATOM     14  N   UNL     1      32.617  25.980  35.626  0.00  0.00    +0.000 NA
ATOM     15  N   UNL     1      29.862  27.474  35.086  0.00  0.00    +0.000 NA
ATOM     16  N   UNL     1      28.811  18.932  35.641  0.00  0.00    +0.000 NA
ATOM     17  N   UNL     1      22.707  25.082  30.857  0.00  0.00    +0.000 N 
ATOM     18  N   UNL     1      23.359  22.220  31.864  0.00  0.00    +0.000 N 
ATOM     19  N   UNL     1      23.840  19.802  33.400  0.00  0.00    +0.000 NA
ATOM     20  N   UNL     1      26.001  19.790  36.465  0.00  0.00    +0.000 NA
ATOM     21  N   UNL     1      27.089  26.382  35.201  0.00  0.00    +0.000 NA
ATOM     22  N   UNL     1      24.060  26.234  33.404  0.00  0.00    +0.000 NA
ATOM     23  C   UNL     1      31.261  22.735  38.381  0.00  0.00    +0.000 C 
ATOM     24  C   UNL     1      32.216  24.761  35.996  0.00  0.00    +0.000 C 
ATOM     25  C   UNL     1      31.142  19.636  36.228  0.00  0.00    +0.000 C 
ATOM     26  C   UNL     1      31.159  22.662  39.759  0.00  0.00    +0.000 C 
ATOM     27  C   UNL     1      32.998  24.002  34.994  0.00  0.00    +0.000 C 
ATOM     28  C   UNL     1      30.958  21.511  37.822  0.00  0.00    +0.000 C 
ATOM     29  C   UNL     1      32.228  24.902  37.342  0.00  0.00    +0.000 C 
ATOM     30  C   UNL     1      31.142  27.426  35.332  0.00  0.00    +0.000 C 
ATOM     31  C   UNL     1      31.660  26.306  34.752  0.00  0.00    +0.000 C 
ATOM     32  C   UNL     1      30.199  18.807  35.419  0.00  0.00    +0.000 C 
ATOM     33  C   UNL     1      32.218  23.544  40.137  0.00  0.00    +0.000 C 
ATOM     34  C   UNL     1      30.957  21.357  40.061  0.00  0.00    +0.000 C 
ATOM     35  C   UNL     1      32.594  24.100  38.924  0.00  0.00    +0.000 C 
ATOM     36  C   UNL     1      33.377  25.594  34.489  0.00  0.00    +0.000 C 
ATOM     37  C   UNL     1      28.063  18.187  36.587  0.00  0.00    +0.000 C 
ATOM     38  C   UNL     1      22.121  22.798  31.755  0.00  0.00    +0.000 A 
ATOM     39  C   UNL     1      29.468  27.014  36.269  0.00  0.00    +0.000 C 
ATOM     40  C   UNL     1      22.705  26.369  31.453  0.00  0.00    +0.000 C 
ATOM     41  C   UNL     1      24.417  19.966  32.186  0.00  0.00    +0.000 C 
ATOM     42  C   UNL     1      29.975  28.946  34.920  0.00  0.00    +0.000 C 
ATOM     43  C   UNL     1      20.836  22.256  32.063  0.00  0.00    +0.000 A 
ATOM     44  C   UNL     1      21.853  27.284  30.142  0.00  0.00    +0.000 C 
ATOM     45  C   UNL     1      28.043  26.638  36.043  0.00  0.00    +0.000 C 
ATOM     46  C   UNL     1      23.663  19.023  31.287  0.00  0.00    +0.000 C 
ATOM     47  C   UNL     1      28.765  17.058  37.107  0.00  0.00    +0.000 C 
ATOM     48  C   UNL     1      21.882  24.109  31.353  0.00  0.00    +0.000 A 
ATOM     49  C   UNL     1      26.839  18.617  36.984  0.00  0.00    +0.000 C 
ATOM     50  C   UNL     1      23.609  20.950  31.639  0.00  0.00    +0.000 C 
ATOM     51  C   UNL     1      23.197  26.951  32.598  0.00  0.00    +0.000 C 
ATOM     52  C   UNL     1      25.446  19.470  35.146  0.00  0.00    +0.000 C 
ATOM     53  C   UNL     1      20.485  20.902  32.622  0.00  0.00    +0.000 C 
ATOM     54  C   UNL     1      19.911  23.249  31.868  0.00  0.00    +0.000 A 
ATOM     55  C   UNL     1      24.819  19.021  33.956  0.00  0.00    +0.000 C 
ATOM     56  C   UNL     1      24.597  26.665  34.499  0.00  0.00    +0.000 C 
ATOM     57  C   UNL     1      28.314  27.008  37.332  0.00  0.00    +0.000 C 
ATOM     58  C   UNL     1      22.125  25.948  29.996  0.00  0.00    +0.000 C 
ATOM     59  C   UNL     1      29.819  16.488  37.084  0.00  0.00    +0.000 C 
ATOM     60  C   UNL     1      25.835  26.775  35.367  0.00  0.00    +0.000 C 
ATOM     61  C   UNL     1      23.000  18.512  33.109  0.00  0.00    +0.000 C 
ATOM     62  C   UNL     1      25.461  19.113  37.460  0.00  0.00    +0.000 C 
ATOM     63  C   UNL     1      24.395  27.419  35.608  0.00  0.00    +0.000 C 
ATOM     64  H   UNL     1      28.532  19.912  35.696  0.00  0.00    +0.000 HD
ATOM     65  H   UNL     1      24.065  22.762  32.357  0.00  0.00    +0.000 HD
ATOM     66  H   UNL     1      27.362  26.089  34.266  0.00  0.00    +0.000 HD
ATOM     67  H   UNL     1      24.521  25.495  32.881  0.00  0.00    +0.000 HD
ATOM     68  C   UNL     1      31.944  18.868  36.912  0.00  0.00    +0.000 C 
ATOM     69  C   UNL     1      32.089  17.471  37.143  0.00  0.00    +0.000 C 
ATOM     70  C   UNL     1      31.042  16.755  36.387  0.00  0.00    +0.000 C 
ATOM     71  C   UNL     1      34.551  23.418  34.778  0.00  0.00    +0.000 C 
ATOM     72  C   UNL     1      34.895  22.271  34.195  0.00  0.00    +0.000 C 
ATOM     73  C   UNL     1      34.395  24.737  34.341  0.00  0.00    +0.000 C 
ATOM     74  C   UNL     1      31.392  28.852  35.078  0.00  0.00    +0.000 C 
ATOM     75  C   UNL     1      30.808  30.015  35.562  0.00  0.00    +0.000 C 
ATOM     76  C   UNL     1      31.098  31.388  34.917  0.00  0.00    +0.000 C 
ATOM     77  C   UNL     1      29.459  29.862  35.818  0.00  0.00    +0.000 C 
ATOM     78  C   UNL     1      23.572  17.498  30.809  0.00  0.00    +0.000 C 
ATOM     79  C   UNL     1      23.186  16.887  29.693  0.00  0.00    +0.000 C 
ATOM     80  C   UNL     1      23.084  17.577  32.114  0.00  0.00    +0.000 C 
ATOM     81  C   UNL     1      21.738  28.542  30.573  0.00  0.00    +0.000 C 
ATOM     82  C   UNL     1      21.091  29.609  29.753  0.00  0.00    +0.000 C 
ATOM     83  C   UNL     1      22.295  28.811  31.847  0.00  0.00    +0.000 C 
ENDROOT
BRANCH  69  84
ATOM     84  C   UNL     1      32.805  16.873  38.207  0.00  0.00    +0.000 C 
ATOM     85  C   UNL     1      33.419  16.364  39.105  0.00  0.00    +0.000 C 
BRANCH  85  86
ATOM     86  C   UNL     1      34.205  15.713  40.247  0.00  0.00    +0.000 C 
ATOM     87  C   UNL     1      34.892  15.151  41.241  0.00  0.00    +0.000 C 
ENDBRANCH  85  86
ENDBRANCH  69  84
BRANCH  13  88
ATOM     88  C   UNL     1      30.424  21.817  35.473  0.00  0.00    +0.000 C 
BRANCH  88  89
ATOM     89  O   UNL     1      29.940  22.569  34.494  0.00  0.00    +0.000 OA
ATOM     90  H   UNL     1      30.656  23.090  34.089  0.00  0.00    +0.000 HD
ENDBRANCH  88  89
ENDBRANCH  13  88
TORSDOF 4
ENDMDL
MODEL 2
REMARK VINA RESULT:      -9.4     31.893     38.564
REMARK  Name = Cyclosporin_A.pdbqt.pdb
REMARK  4 active torsions:
REMARK  status: ('A' for Active; 'I' for Inactive)
REMARK    1  A    between atoms: N_13  and  C_36
REMARK    2  A    between atoms: C_36  and  O_70
REMARK    3  A    between atoms: C_72  and  C_73
REMARK    4  A    between atoms: C_75  and  C_76
REMARK                            x       y       z     vdW  Elec       q    Type
REMARK                         _______ _______ _______ _____ _____    ______ ____
ROOT
ATOM      1  O   UNL     1      25.927 -10.917  13.725  0.00  0.00    +0.000 OA
ATOM      2  O   UNL     1      27.533  -6.601  15.984  0.00  0.00    +0.000 OA
ATOM      3  O   UNL     1      26.293  -3.315  12.731  0.00  0.00    +0.000 OA
ATOM      4  O   UNL     1      26.117 -11.240   8.840  0.00  0.00    +0.000 OA
ATOM      5  O   UNL     1      23.682  -5.100  16.696  0.00  0.00    +0.000 OA
ATOM      6  O   UNL     1      14.721  -5.380   9.860  0.00  0.00    +0.000 OA
ATOM      7  O   UNL     1      21.613 -13.232  11.455  0.00  0.00    +0.000 OA
ATOM      8  O   UNL     1      17.715  -7.848   6.825  0.00  0.00    +0.000 OA
ATOM      9  O   UNL     1      16.670  -2.698  13.394  0.00  0.00    +0.000 OA
ATOM     10  O   UNL     1      19.266 -11.406   8.168  0.00  0.00    +0.000 OA
ATOM     11  O   UNL     1      19.434  -4.952  15.819  0.00  0.00    +0.000 OA
ATOM     12  N   UNL     1      26.849  -7.684  14.532  0.00  0.00    +0.000 NA
ATOM     13  N   UNL     1      25.962  -9.242  11.999  0.00  0.00    +0.000 NA
ATOM     14  N   UNL     1      26.787  -4.461  14.274  0.00  0.00    +0.000 NA
ATOM     15  N   UNL     1      23.805  -3.446  14.707  0.00  0.00    +0.000 NA
ATOM     16  N   UNL     1      24.069 -10.700  10.049  0.00  0.00    +0.000 NA
ATOM     17  N   UNL     1      16.697  -4.100   9.825  0.00  0.00    +0.000 N 
ATOM     18  N   UNL     1      17.854  -6.837   8.932  0.00  0.00    +0.000 N 
ATOM     19  N   UNL     1      18.829  -9.566   8.727  0.00  0.00    +0.000 NA
ATOM     20  N   UNL     1      21.258 -11.000  11.198  0.00  0.00    +0.000 NA
ATOM     21  N   UNL     1      21.246  -4.862  14.124  0.00  0.00    +0.000 NA
ATOM     22  N   UNL     1      18.110  -4.452  12.568  0.00  0.00    +0.000 NA
ATOM     23  C   UNL     1      26.195  -8.881  14.539  0.00  0.00    +0.000 C 
ATOM     24  C   UNL     1      26.607  -5.712  13.840  0.00  0.00    +0.000 C 
ATOM     25  C   UNL     1      26.318 -10.081  10.961  0.00  0.00    +0.000 C 
ATOM     26  C   UNL     1      26.239  -9.767  15.600  0.00  0.00    +0.000 C 
ATOM     27  C   UNL     1      27.390  -5.584  12.590  0.00  0.00    +0.000 C 
ATOM     28  C   UNL     1      26.020  -9.571  13.357  0.00  0.00    +0.000 C 
ATOM     29  C   UNL     1      26.730  -6.390  15.005  0.00  0.00    +0.000 C 
ATOM     30  C   UNL     1      25.096  -3.405  14.887  0.00  0.00    +0.000 C 
ATOM     31  C   UNL     1      25.713  -3.857  13.759  0.00  0.00    +0.000 C 
ATOM     32  C   UNL     1      25.432 -10.425   9.808  0.00  0.00    +0.000 C 
ATOM     33  C   UNL     1      27.190  -9.108  16.438  0.00  0.00    +0.000 C 
ATOM     34  C   UNL     1      26.260 -11.011  15.062  0.00  0.00    +0.000 C 
ATOM     35  C   UNL     1      27.361  -7.890  15.799  0.00  0.00    +0.000 C 
ATOM     36  C   UNL     1      27.481  -3.964  13.137  0.00  0.00    +0.000 C 
ATOM     37  C   UNL     1      23.533 -11.976  10.359  0.00  0.00    +0.000 C 
ATOM     38  C   UNL     1      16.539  -6.534   9.179  0.00  0.00    +0.000 A 
ATOM     39  C   UNL     1      23.600  -4.575  15.379  0.00  0.00    +0.000 C 
ATOM     40  C   UNL     1      16.565  -3.435  11.071  0.00  0.00    +0.000 C 
ATOM     41  C   UNL     1      19.255  -8.621   7.855  0.00  0.00    +0.000 C 
ATOM     42  C   UNL     1      23.685  -2.167  15.453  0.00  0.00    +0.000 C 
ATOM     43  C   UNL     1      15.384  -7.368   9.091  0.00  0.00    +0.000 A 
ATOM     44  C   UNL     1      15.465  -2.090  10.556  0.00  0.00    +0.000 C 
ATOM     45  C   UNL     1      22.229  -4.988  14.961  0.00  0.00    +0.000 C 
ATOM     46  C   UNL     1      18.563  -8.968   6.565  0.00  0.00    +0.000 C 
ATOM     47  C   UNL     1      24.439 -13.050  10.108  0.00  0.00    +0.000 C 
ATOM     48  C   UNL     1      16.075  -5.305   9.635  0.00  0.00    +0.000 A 
ATOM     49  C   UNL     1      22.304 -12.085  10.923  0.00  0.00    +0.000 C 
ATOM     50  C   UNL     1      18.262  -7.664   7.996  0.00  0.00    +0.000 C 
ATOM     51  C   UNL     1      17.076  -3.563  12.341  0.00  0.00    +0.000 C 
ATOM     52  C   UNL     1      20.630 -10.574   9.945  0.00  0.00    +0.000 C 
ATOM     53  C   UNL     1      15.290  -8.827   8.729  0.00  0.00    +0.000 C 
ATOM     54  C   UNL     1      14.309  -6.631   9.519  0.00  0.00    +0.000 A 
ATOM     55  C   UNL     1      19.961 -10.338   8.715  0.00  0.00    +0.000 C 
ATOM     56  C   UNL     1      18.682  -4.662  13.709  0.00  0.00    +0.000 C 
ATOM     57  C   UNL     1      22.568  -5.408  16.219  0.00  0.00    +0.000 C 
ATOM     58  C   UNL     1      15.913  -3.012   9.645  0.00  0.00    +0.000 C 
ATOM     59  C   UNL     1      25.558 -13.302   9.759  0.00  0.00    +0.000 C 
ATOM     60  C   UNL     1      19.970  -4.869  14.481  0.00  0.00    +0.000 C 
ATOM     61  C   UNL     1      18.162 -10.560   7.716  0.00  0.00    +0.000 C 
ATOM     62  C   UNL     1      20.922 -12.214  11.589  0.00  0.00    +0.000 C 
ATOM     63  C   UNL     1      18.482  -4.754  15.046  0.00  0.00    +0.000 C 
ATOM     64  H   UNL     1      23.657 -10.008  10.676  0.00  0.00    +0.000 HD
ATOM     65  H   UNL     1      18.518  -6.576   9.656  0.00  0.00    +0.000 HD
ATOM     66  H   UNL     1      21.466  -4.495  13.202  0.00  0.00    +0.000 HD
ATOM     67  H   UNL     1      18.620  -4.647  11.711  0.00  0.00    +0.000 HD
ATOM     68  C   UNL     1      27.287 -10.950  11.059  0.00  0.00    +0.000 C 
ATOM     69  C   UNL     1      27.655 -12.163  10.413  0.00  0.00    +0.000 C 
ATOM     70  C   UNL     1      26.656 -12.467   9.370  0.00  0.00    +0.000 C 
ATOM     71  C   UNL     1      28.982  -5.646  12.082  0.00  0.00    +0.000 C 
ATOM     72  C   UNL     1      29.431  -6.148  10.933  0.00  0.00    +0.000 C 
ATOM     73  C   UNL     1      28.594  -4.375  12.516  0.00  0.00    +0.000 C 
ATOM     74  C   UNL     1      25.109  -2.086  15.536  0.00  0.00    +0.000 C 
ATOM     75  C   UNL     1      24.413  -1.555  16.613  0.00  0.00    +0.000 C 
ATOM     76  C   UNL     1      24.435  -0.042  16.917  0.00  0.00    +0.000 C 
ATOM     77  C   UNL     1      23.132  -2.063  16.716  0.00  0.00    +0.000 C 
ATOM     78  C   UNL     1      18.649  -9.907   5.271  0.00  0.00    +0.000 C 
ATOM     79  C   UNL     1      18.248  -9.800   4.007  0.00  0.00    +0.000 C 
ATOM     80  C   UNL     1      18.284 -10.698   6.362  0.00  0.00    +0.000 C 
ATOM     81  C   UNL     1      15.211  -1.371  11.652  0.00  0.00    +0.000 C 
ATOM     82  C   UNL     1      14.338  -0.160  11.624  0.00  0.00    +0.000 C 
ATOM     83  C   UNL     1      15.844  -1.810  12.840  0.00  0.00    +0.000 C 
ENDROOT
BRANCH  69  84
ATOM     84  C   UNL     1      28.551 -13.136  10.916  0.00  0.00    +0.000 C 
ATOM     85  C   UNL     1      29.317 -13.956  11.345  0.00  0.00    +0.000 C 
BRANCH  85  86
ATOM     86  C   UNL     1      30.297 -14.999  11.892  0.00  0.00    +0.000 C 
ATOM     87  C   UNL     1      31.150 -15.902  12.372  0.00  0.00    +0.000 C 
ENDBRANCH  85  86
ENDBRANCH  69  84
BRANCH  13  88
ATOM     88  C   UNL     1      25.220  -8.042  11.649  0.00  0.00    +0.000 C 
BRANCH  88  89
ATOM     89  O   UNL     1      24.524  -6.961  11.324  0.00  0.00    +0.000 OA
ATOM     90  H   UNL     1      24.624  -6.774  10.374  0.00  0.00    +0.000 HD
ENDBRANCH  88  89
ENDBRANCH  13  88
TORSDOF 4
ENDMDL
MODEL 3
REMARK VINA RESULT:      -9.3     23.944     28.073
REMARK  Name = Cyclosporin_A.pdbqt.pdb
REMARK  4 active torsions:
REMARK  status: ('A' for Active; 'I' for Inactive)
REMARK    1  A    between atoms: N_13  and  C_36
REMARK    2  A    between atoms: C_36  and  O_70
REMARK    3  A    between atoms: C_72  and  C_73
REMARK    4  A    between atoms: C_75  and  C_76
REMARK                            x       y       z     vdW  Elec       q    Type
REMARK                         _______ _______ _______ _____ _____    ______ ____
ROOT
ATOM      1  O   UNL     1      47.505   4.780  22.286  0.00  0.00    +0.000 OA
ATOM      2  O   UNL     1      51.208   5.577  18.826  0.00  0.00    +0.000 OA
ATOM      3  O   UNL     1      48.663   7.015  15.035  0.00  0.00    +0.000 OA
ATOM      4  O   UNL     1      43.143   3.161  20.749  0.00  0.00    +0.000 OA
ATOM      5  O   UNL     1      50.760   9.747  18.758  0.00  0.00    +0.000 OA
ATOM      6  O   UNL     1      41.207  15.732  18.885  0.00  0.00    +0.000 OA
ATOM      7  O   UNL     1      43.269   7.128  24.666  0.00  0.00    +0.000 OA
ATOM      8  O   UNL     1      39.018  11.330  19.199  0.00  0.00    +0.000 OA
ATOM      9  O   UNL     1      45.766  15.963  17.259  0.00  0.00    +0.000 OA
ATOM     10  O   UNL     1      39.910   8.996  22.459  0.00  0.00    +0.000 OA
ATOM     11  O   UNL     1      48.408  13.332  19.426  0.00  0.00    +0.000 OA
ATOM     12  N   UNL     1      49.383   5.386  19.447  0.00  0.00    +0.000 NA
ATOM     13  N   UNL     1      46.400   4.902  20.152  0.00  0.00    +0.000 NA
ATOM     14  N   UNL     1      49.938   6.570  16.489  0.00  0.00    +0.000 NA
ATOM     15  N   UNL     1      49.449   9.712  16.525  0.00  0.00    +0.000 NA
ATOM     16  N   UNL     1      43.581   5.509  21.246  0.00  0.00    +0.000 NA
ATOM     17  N   UNL     1      42.245  14.446  17.208  0.00  0.00    +0.000 N 
ATOM     18  N   UNL     1      41.201  12.157  19.025  0.00  0.00    +0.000 N 
ATOM     19  N   UNL     1      40.704  10.221  21.132  0.00  0.00    +0.000 NA
ATOM     20  N   UNL     1      43.466   8.204  22.671  0.00  0.00    +0.000 NA
ATOM     21  N   UNL     1      47.606  11.296  18.253  0.00  0.00    +0.000 NA
ATOM     22  N   UNL     1      45.135  13.808  18.147  0.00  0.00    +0.000 NA
ATOM     23  C   UNL     1      48.842   5.522  20.691  0.00  0.00    +0.000 C 
ATOM     24  C   UNL     1      49.170   6.146  17.496  0.00  0.00    +0.000 C 
ATOM     25  C   UNL     1      45.400   3.992  20.432  0.00  0.00    +0.000 C 
ATOM     26  C   UNL     1      49.582   5.442  21.857  0.00  0.00    +0.000 C 
ATOM     27  C   UNL     1      48.384   5.159  16.722  0.00  0.00    +0.000 C 
ATOM     28  C   UNL     1      47.550   5.099  20.925  0.00  0.00    +0.000 C 
ATOM     29  C   UNL     1      50.084   6.102  18.494  0.00  0.00    +0.000 C 
ATOM     30  C   UNL     1      50.109   8.631  16.213  0.00  0.00    +0.000 C 
ATOM     31  C   UNL     1      49.224   7.608  16.045  0.00  0.00    +0.000 C 
ATOM     32  C   UNL     1      43.951   4.336  20.554  0.00  0.00    +0.000 C 
ATOM     33  C   UNL     1      50.854   5.072  21.322  0.00  0.00    +0.000 C 
ATOM     34  C   UNL     1      48.799   4.814  22.768  0.00  0.00    +0.000 C 
ATOM     35  C   UNL     1      50.655   5.200  19.956  0.00  0.00    +0.000 C 
ATOM     36  C   UNL     1      49.312   5.830  15.449  0.00  0.00    +0.000 C 
ATOM     37  C   UNL     1      43.334   5.594  22.639  0.00  0.00    +0.000 C 
ATOM     38  C   UNL     1      40.999  13.504  19.190  0.00  0.00    +0.000 A 
ATOM     39  C   UNL     1      49.688   9.657  17.832  0.00  0.00    +0.000 C 
ATOM     40  C   UNL     1      43.471  15.150  17.101  0.00  0.00    +0.000 C 
ATOM     41  C   UNL     1      40.325   9.957  19.858  0.00  0.00    +0.000 C 
ATOM     42  C   UNL     1      50.389  10.497  15.685  0.00  0.00    +0.000 C 
ATOM     43  C   UNL     1      40.275  14.195  20.208  0.00  0.00    +0.000 A 
ATOM     44  C   UNL     1      42.934  16.486  16.002  0.00  0.00    +0.000 C 
ATOM     45  C   UNL     1      48.692  10.605  18.410  0.00  0.00    +0.000 C 
ATOM     46  C   UNL     1      38.826  10.091  19.883  0.00  0.00    +0.000 C 
ATOM     47  C   UNL     1      43.185   4.322  23.269  0.00  0.00    +0.000 C 
ATOM     48  C   UNL     1      41.538  14.498  18.380  0.00  0.00    +0.000 A 
ATOM     49  C   UNL     1      43.345   6.797  23.265  0.00  0.00    +0.000 C 
ATOM     50  C   UNL     1      40.314  11.232  19.316  0.00  0.00    +0.000 C 
ATOM     51  C   UNL     1      44.764  14.994  17.543  0.00  0.00    +0.000 C 
ATOM     52  C   UNL     1      42.217   8.579  22.001  0.00  0.00    +0.000 C 
ATOM     53  C   UNL     1      39.551  13.636  21.404  0.00  0.00    +0.000 C 
ATOM     54  C   UNL     1      40.433  15.539  19.988  0.00  0.00    +0.000 A 
ATOM     55  C   UNL     1      40.928   8.925  21.519  0.00  0.00    +0.000 C 
ATOM     56  C   UNL     1      46.316  13.533  18.599  0.00  0.00    +0.000 C 
ATOM     57  C   UNL     1      49.836  10.491  19.153  0.00  0.00    +0.000 C 
ATOM     58  C   UNL     1      42.060  15.497  16.377  0.00  0.00    +0.000 C 
ATOM     59  C   UNL     1      43.234   3.140  23.073  0.00  0.00    +0.000 C 
ATOM     60  C   UNL     1      47.439  12.523  18.725  0.00  0.00    +0.000 C 
ATOM     61  C   UNL     1      39.301  10.167  21.829  0.00  0.00    +0.000 C 
ATOM     62  C   UNL     1      43.382   8.157  23.987  0.00  0.00    +0.000 C 
ATOM     63  C   UNL     1      47.408  14.040  19.219  0.00  0.00    +0.000 C 
ATOM     64  H   UNL     1      44.156   6.303  20.964  0.00  0.00    +0.000 HD
ATOM     65  H   UNL     1      42.163  11.862  18.880  0.00  0.00    +0.000 HD
ATOM     66  H   UNL     1      46.959  10.987  17.532  0.00  0.00    +0.000 HD
ATOM     67  H   UNL     1      44.516  13.050  17.875  0.00  0.00    +0.000 HD
ATOM     68  C   UNL     1      45.636   2.835  20.988  0.00  0.00    +0.000 C 
ATOM     69  C   UNL     1      44.896   1.881  21.740  0.00  0.00    +0.000 C 
ATOM     70  C   UNL     1      43.512   2.371  21.896  0.00  0.00    +0.000 C 
ATOM     71  C   UNL     1      48.519   3.584  16.173  0.00  0.00    +0.000 C 
ATOM     72  C   UNL     1      47.539   2.686  16.086  0.00  0.00    +0.000 C 
ATOM     73  C   UNL     1      49.077   4.520  15.298  0.00  0.00    +0.000 C 
ATOM     74  C   UNL     1      51.023   9.286  15.267  0.00  0.00    +0.000 C 
ATOM     75  C   UNL     1      51.851  10.395  15.367  0.00  0.00    +0.000 C 
ATOM     76  C   UNL     1      52.510  11.022  14.119  0.00  0.00    +0.000 C 
ATOM     77  C   UNL     1      51.331  11.371  16.196  0.00  0.00    +0.000 C 
ATOM     78  C   UNL     1      37.471   9.313  20.228  0.00  0.00    +0.000 C 
ATOM     79  C   UNL     1      36.219   9.364  19.780  0.00  0.00    +0.000 C 
ATOM     80  C   UNL     1      38.106   9.639  21.428  0.00  0.00    +0.000 C 
ATOM     81  C   UNL     1      43.994  17.278  15.824  0.00  0.00    +0.000 C 
ATOM     82  C   UNL     1      43.942  18.495  14.962  0.00  0.00    +0.000 C 
ATOM     83  C   UNL     1      45.182  16.875  16.482  0.00  0.00    +0.000 C 
ENDROOT
BRANCH  69  84
ATOM     84  C   UNL     1      45.439   0.861  22.557  0.00  0.00    +0.000 C 
ATOM     85  C   UNL     1      45.893  -0.008  23.251  0.00  0.00    +0.000 C 
BRANCH  85  86
ATOM     86  C   UNL     1      46.467  -1.117  24.139  0.00  0.00    +0.000 C 
ATOM     87  C   UNL     1      46.966  -2.084  24.907  0.00  0.00    +0.000 C 
ENDBRANCH  85  86
ENDBRANCH  69  84
BRANCH  13  88
ATOM     88  C   UNL     1      46.109   5.913  19.148  0.00  0.00    +0.000 C 
BRANCH  88  89
ATOM     89  O   UNL     1      45.823   6.841  18.246  0.00  0.00    +0.000 OA
ATOM     90  H   UNL     1      46.540   6.898  17.588  0.00  0.00    +0.000 HD
ENDBRANCH  88  89
ENDBRANCH  13  88
TORSDOF 4
ENDMDL
MODEL 4
REMARK VINA RESULT:      -9.2      3.980      6.296
REMARK  Name = Cyclosporin_A.pdbqt.pdb
REMARK  4 active torsions:
REMARK  status: ('A' for Active; 'I' for Inactive)
REMARK    1  A    between atoms: N_13  and  C_36
REMARK    2  A    between atoms: C_36  and  O_70
REMARK    3  A    between atoms: C_72  and  C_73
REMARK    4  A    between atoms: C_75  and  C_76
REMARK                            x       y       z     vdW  Elec       q    Type
REMARK                         _______ _______ _______ _____ _____    ______ ____
ROOT
ATOM      1  O   UNL     1      29.169  26.460  38.592  0.00  0.00    +0.000 OA
ATOM      2  O   UNL     1      33.804  27.687  36.770  0.00  0.00    +0.000 OA
ATOM      3  O   UNL     1      33.506  26.079  32.271  0.00  0.00    +0.000 OA
ATOM      4  O   UNL     1      26.981  22.397  36.945  0.00  0.00    +0.000 OA
ATOM      5  O   UNL     1      32.402  30.655  34.159  0.00  0.00    +0.000 OA
ATOM      6  O   UNL     1      23.205  30.425  27.642  0.00  0.00    +0.000 OA
ATOM      7  O   UNL     1      23.888  26.988  37.614  0.00  0.00    +0.000 OA
ATOM      8  O   UNL     1      22.442  26.016  29.703  0.00  0.00    +0.000 OA
ATOM      9  O   UNL     1      27.655  32.338  27.798  0.00  0.00    +0.000 OA
ATOM     10  O   UNL     1      21.958  25.884  33.779  0.00  0.00    +0.000 OA
ATOM     11  O   UNL     1      29.237  32.468  31.808  0.00  0.00    +0.000 OA
ATOM     12  N   UNL     1      32.066  26.834  36.743  0.00  0.00    +0.000 NA
ATOM     13  N   UNL     1      29.438  25.192  36.566  0.00  0.00    +0.000 NA
ATOM     14  N   UNL     1      33.829  26.931  34.034  0.00  0.00    +0.000 NA
ATOM     15  N   UNL     1      32.605  29.122  32.082  0.00  0.00    +0.000 NA
ATOM     16  N   UNL     1      26.443  24.621  36.102  0.00  0.00    +0.000 NA
ATOM     17  N   UNL     1      25.287  29.338  27.477  0.00  0.00    +0.000 N 
ATOM     18  N   UNL     1      24.053  27.710  29.814  0.00  0.00    +0.000 N 
ATOM     19  N   UNL     1      23.000  26.744  32.343  0.00  0.00    +0.000 NA
ATOM     20  N   UNL     1      24.864  27.177  35.568  0.00  0.00    +0.000 NA
ATOM     21  N   UNL     1      29.779  30.045  31.846  0.00  0.00    +0.000 NA
ATOM     22  N   UNL     1      27.225  30.679  29.500  0.00  0.00    +0.000 NA
ATOM     23  C   UNL     1      30.914  27.126  37.414  0.00  0.00    +0.000 C 
ATOM     24  C   UNL     1      32.775  26.585  34.777  0.00  0.00    +0.000 C 
ATOM     25  C   UNL     1      28.729  24.079  36.972  0.00  0.00    +0.000 C 
ATOM     26  C   UNL     1      30.879  27.878  38.574  0.00  0.00    +0.000 C 
ATOM     27  C   UNL     1      32.837  25.130  34.512  0.00  0.00    +0.000 C 
ATOM     28  C   UNL     1      29.872  26.222  37.407  0.00  0.00    +0.000 C 
ATOM     29  C   UNL     1      32.961  27.392  35.848  0.00  0.00    +0.000 C 
ATOM     30  C   UNL     1      33.581  28.509  32.692  0.00  0.00    +0.000 C 
ATOM     31  C   UNL     1      33.238  27.201  32.867  0.00  0.00    +0.000 C 
ATOM     32  C   UNL     1      27.424  23.647  36.386  0.00  0.00    +0.000 C 
ATOM     33  C   UNL     1      32.278  28.046  38.808  0.00  0.00    +0.000 C 
ATOM     34  C   UNL     1      29.919  27.330  39.359  0.00  0.00    +0.000 C 
ATOM     35  C   UNL     1      32.841  27.533  37.649  0.00  0.00    +0.000 C 
ATOM     36  C   UNL     1      34.100  25.650  33.480  0.00  0.00    +0.000 C 
ATOM     37  C   UNL     1      25.457  25.080  37.011  0.00  0.00    +0.000 C 
ATOM     38  C   UNL     1      23.452  28.709  29.091  0.00  0.00    +0.000 A 
ATOM     39  C   UNL     1      32.087  29.689  33.167  0.00  0.00    +0.000 C 
ATOM     40  C   UNL     1      26.135  30.472  27.395  0.00  0.00    +0.000 C 
ATOM     41  C   UNL     1      23.471  25.871  31.420  0.00  0.00    +0.000 C 
ATOM     42  C   UNL     1      33.609  29.899  31.310  0.00  0.00    +0.000 C 
ATOM     43  C   UNL     1      22.136  29.251  29.212  0.00  0.00    +0.000 A 
ATOM     44  C   UNL     1      25.968  30.819  25.625  0.00  0.00    +0.000 C 
ATOM     45  C   UNL     1      30.732  30.127  32.722  0.00  0.00    +0.000 C 
ATOM     46  C   UNL     1      22.236  25.214  30.867  0.00  0.00    +0.000 C 
ATOM     47  C   UNL     1      25.322  24.255  38.168  0.00  0.00    +0.000 C 
ATOM     48  C   UNL     1      24.067  29.452  28.089  0.00  0.00    +0.000 A 
ATOM     49  C   UNL     1      24.807  26.249  36.785  0.00  0.00    +0.000 C 
ATOM     50  C   UNL     1      23.430  26.649  30.274  0.00  0.00    +0.000 C 
ATOM     51  C   UNL     1      26.957  31.180  28.240  0.00  0.00    +0.000 C 
ATOM     52  C   UNL     1      24.147  26.576  34.439  0.00  0.00    +0.000 C 
ATOM     53  C   UNL     1      21.048  28.894  30.189  0.00  0.00    +0.000 C 
ATOM     54  C   UNL     1      22.034  30.290  28.322  0.00  0.00    +0.000 A 
ATOM     55  C   UNL     1      23.302  26.002  33.455  0.00  0.00    +0.000 C 
ATOM     56  C   UNL     1      27.983  31.241  30.385  0.00  0.00    +0.000 C 
ATOM     57  C   UNL     1      31.259  30.903  33.719  0.00  0.00    +0.000 C 
ATOM     58  C   UNL     1      25.326  29.746  26.188  0.00  0.00    +0.000 C 
ATOM     59  C   UNL     1      25.776  23.294  38.721  0.00  0.00    +0.000 C 
ATOM     60  C   UNL     1      29.067  31.084  31.434  0.00  0.00    +0.000 C 
ATOM     61  C   UNL     1      21.519  26.242  32.431  0.00  0.00    +0.000 C 
ATOM     62  C   UNL     1      24.084  27.588  36.549  0.00  0.00    +0.000 C 
ATOM     63  C   UNL     1      28.375  32.425  30.915  0.00  0.00    +0.000 C 
ATOM     64  H   UNL     1      26.848  25.425  35.622  0.00  0.00    +0.000 HD
ATOM     65  H   UNL     1      24.973  27.923  30.193  0.00  0.00    +0.000 HD
ATOM     66  H   UNL     1      29.744  29.205  31.274  0.00  0.00    +0.000 HD
ATOM     67  H   UNL     1      27.082  29.674  29.532  0.00  0.00    +0.000 HD
ATOM     68  C   UNL     1      28.909  23.514  38.134  0.00  0.00    +0.000 C 
ATOM     69  C   UNL     1      28.156  22.677  39.003  0.00  0.00    +0.000 C 
ATOM     70  C   UNL     1      26.846  22.403  38.380  0.00  0.00    +0.000 C 
ATOM     71  C   UNL     1      33.655  23.777  35.058  0.00  0.00    +0.000 C 
ATOM     72  C   UNL     1      33.161  22.548  35.190  0.00  0.00    +0.000 C 
ATOM     73  C   UNL     1      34.337  24.461  34.047  0.00  0.00    +0.000 C 
ATOM     74  C   UNL     1      34.656  29.132  31.908  0.00  0.00    +0.000 C 
ATOM     75  C   UNL     1      34.969  30.452  31.614  0.00  0.00    +0.000 C 
ATOM     76  C   UNL     1      36.016  30.809  30.537  0.00  0.00    +0.000 C 
ATOM     77  C   UNL     1      33.846  31.248  31.496  0.00  0.00    +0.000 C 
ATOM     78  C   UNL     1      21.173  24.046  31.128  0.00  0.00    +0.000 C 
ATOM     79  C   UNL     1      20.416  23.275  30.352  0.00  0.00    +0.000 C 
ATOM     80  C   UNL     1      20.930  25.071  32.044  0.00  0.00    +0.000 C 
ATOM     81  C   UNL     1      26.700  31.909  25.383  0.00  0.00    +0.000 C 
ATOM     82  C   UNL     1      26.819  32.502  24.018  0.00  0.00    +0.000 C 
ATOM     83  C   UNL     1      27.383  32.453  26.498  0.00  0.00    +0.000 C 
ENDROOT
BRANCH  69  84
ATOM     84  C   UNL     1      28.401  22.471  40.382  0.00  0.00    +0.000 C 
ATOM     85  C   UNL     1      28.612  22.305  41.552  0.00  0.00    +0.000 C 
BRANCH  85  86
ATOM     86  C   UNL     1      28.885  22.096  43.046  0.00  0.00    +0.000 C 
ATOM     87  C   UNL     1      29.123  21.920  44.344  0.00  0.00    +0.000 C 
ENDBRANCH  85  86
ENDBRANCH  69  84
BRANCH  13  88
ATOM     88  C   UNL     1      29.499  25.449  35.136  0.00  0.00    +0.000 C 
BRANCH  88  89
ATOM     89  O   UNL     1      29.532  25.695  33.833  0.00  0.00    +0.000 OA
ATOM     90  H   UNL     1      28.803  25.227  33.388  0.00  0.00    +0.000 HD
ENDBRANCH  88  89
ENDBRANCH  13  88
TORSDOF 4
ENDMDL
MODEL 5
REMARK VINA RESULT:      -9.0     32.006     37.288
REMARK  Name = Cyclosporin_A.pdbqt.pdb
REMARK  4 active torsions:
REMARK  status: ('A' for Active; 'I' for Inactive)
REMARK    1  A    between atoms: N_13  and  C_36
REMARK    2  A    between atoms: C_36  and  O_70
REMARK    3  A    between atoms: C_72  and  C_73
REMARK    4  A    between atoms: C_75  and  C_76
REMARK                            x       y       z     vdW  Elec       q    Type
REMARK                         _______ _______ _______ _____ _____    ______ ____
ROOT
ATOM      1  O   UNL     1      21.220  25.348  -1.064  0.00  0.00    +0.000 OA
ATOM      2  O   UNL     1      21.270  28.679   2.837  0.00  0.00    +0.000 OA
ATOM      3  O   UNL     1      25.697  28.060   4.550  0.00  0.00    +0.000 OA
ATOM      4  O   UNL     1      23.778  21.189  -0.654  0.00  0.00    +0.000 OA
ATOM      5  O   UNL     1      24.001  31.309   1.043  0.00  0.00    +0.000 OA
ATOM      6  O   UNL     1      33.260  28.777  -4.869  0.00  0.00    +0.000 OA
ATOM      7  O   UNL     1      23.902  23.908  -5.521  0.00  0.00    +0.000 OA
ATOM      8  O   UNL     1      31.878  24.108  -4.121  0.00  0.00    +0.000 OA
ATOM      9  O   UNL     1      31.473  32.233  -1.981  0.00  0.00    +0.000 OA
ATOM     10  O   UNL     1      28.228  22.948  -5.606  0.00  0.00    +0.000 OA
ATOM     11  O   UNL     1      27.165  32.149  -1.806  0.00  0.00    +0.000 OA
ATOM     12  N   UNL     1      21.944  27.227   1.746  0.00  0.00    +0.000 NA
ATOM     13  N   UNL     1      23.113  24.747   0.294  0.00  0.00    +0.000 NA
ATOM     14  N   UNL     1      23.878  28.584   3.955  0.00  0.00    +0.000 NA
ATOM     15  N   UNL     1      25.981  30.455   2.477  0.00  0.00    +0.000 NA
ATOM     16  N   UNL     1      24.606  23.134  -1.871  0.00  0.00    +0.000 NA
ATOM     17  N   UNL     1      32.778  28.675  -2.566  0.00  0.00    +0.000 N 
ATOM     18  N   UNL     1      31.114  26.242  -3.538  0.00  0.00    +0.000 N 
ATOM     19  N   UNL     1      29.164  24.432  -4.704  0.00  0.00    +0.000 NA
ATOM     20  N   UNL     1      25.476  24.894  -4.207  0.00  0.00    +0.000 NA
ATOM     21  N   UNL     1      27.104  30.196  -0.274  0.00  0.00    +0.000 NA
ATOM     22  N   UNL     1      30.132  30.227  -2.078  0.00  0.00    +0.000 NA
ATOM     23  C   UNL     1      21.687  26.887   0.450  0.00  0.00    +0.000 C 
ATOM     24  C   UNL     1      23.562  27.698   3.006  0.00  0.00    +0.000 C 
ATOM     25  C   UNL     1      23.047  23.385   0.074  0.00  0.00    +0.000 C 
ATOM     26  C   UNL     1      20.562  27.303  -0.238  0.00  0.00    +0.000 C 
ATOM     27  C   UNL     1      23.886  26.479   3.782  0.00  0.00    +0.000 C 
ATOM     28  C   UNL     1      22.108  25.664  -0.031  0.00  0.00    +0.000 C 
ATOM     29  C   UNL     1      22.441  28.270   2.507  0.00  0.00    +0.000 C 
ATOM     30  C   UNL     1      25.117  30.172   3.411  0.00  0.00    +0.000 C 
ATOM     31  C   UNL     1      25.156  28.831   3.655  0.00  0.00    +0.000 C 
ATOM     32  C   UNL     1      24.069  22.598  -0.680  0.00  0.00    +0.000 C 
ATOM     33  C   UNL     1      19.855  27.964   0.813  0.00  0.00    +0.000 C 
ATOM     34  C   UNL     1      20.189  26.266  -1.027  0.00  0.00    +0.000 C 
ATOM     35  C   UNL     1      20.784  27.973   1.842  0.00  0.00    +0.000 C 
ATOM     36  C   UNL     1      24.390  27.664   4.910  0.00  0.00    +0.000 C 
ATOM     37  C   UNL     1      24.059  22.959  -3.167  0.00  0.00    +0.000 C 
ATOM     38  C   UNL     1      31.931  27.043  -4.294  0.00  0.00    +0.000 A 
ATOM     39  C   UNL     1      25.103  30.528   1.482  0.00  0.00    +0.000 C 
ATOM     40  C   UNL     1      32.491  30.043  -2.329  0.00  0.00    +0.000 C 
ATOM     41  C   UNL     1      29.927  24.033  -3.657  0.00  0.00    +0.000 C 
ATOM     42  C   UNL     1      26.312  31.711   3.199  0.00  0.00    +0.000 C 
ATOM     43  C   UNL     1      32.229  26.975  -5.689  0.00  0.00    +0.000 A 
ATOM     44  C   UNL     1      34.186  30.655  -2.134  0.00  0.00    +0.000 C 
ATOM     45  C   UNL     1      25.952  30.468   0.258  0.00  0.00    +0.000 C 
ATOM     46  C   UNL     1      30.909  23.067  -4.261  0.00  0.00    +0.000 C 
ATOM     47  C   UNL     1      23.074  21.928  -3.234  0.00  0.00    +0.000 C 
ATOM     48  C   UNL     1      32.612  28.161  -3.825  0.00  0.00    +0.000 A 
ATOM     49  C   UNL     1      24.415  23.789  -4.179  0.00  0.00    +0.000 C 
ATOM     50  C   UNL     1      30.964  24.950  -3.721  0.00  0.00    +0.000 C 
ATOM     51  C   UNL     1      31.372  30.829  -2.180  0.00  0.00    +0.000 C 
ATOM     52  C   UNL     1      26.818  24.305  -4.235  0.00  0.00    +0.000 C 
ATOM     53  C   UNL     1      31.707  26.017  -6.727  0.00  0.00    +0.000 C 
ATOM     54  C   UNL     1      33.030  28.046  -5.993  0.00  0.00    +0.000 A 
ATOM     55  C   UNL     1      28.067  23.659  -4.425  0.00  0.00    +0.000 C 
ATOM     56  C   UNL     1      29.007  30.848  -1.929  0.00  0.00    +0.000 C 
ATOM     57  C   UNL     1      24.787  31.164   0.083  0.00  0.00    +0.000 C 
ATOM     58  C   UNL     1      33.947  29.323  -2.358  0.00  0.00    +0.000 C 
ATOM     59  C   UNL     1      22.463  21.138  -2.572  0.00  0.00    +0.000 C 
ATOM     60  C   UNL     1      27.665  30.924  -1.229  0.00  0.00    +0.000 C 
ATOM     61  C   UNL     1      29.619  23.372  -5.765  0.00  0.00    +0.000 C 
ATOM     62  C   UNL     1      24.794  24.744  -5.326  0.00  0.00    +0.000 C 
ATOM     63  C   UNL     1      28.299  31.951  -2.272  0.00  0.00    +0.000 C 
ATOM     64  H   UNL     1      24.865  24.114  -1.752  0.00  0.00    +0.000 HD
ATOM     65  H   UNL     1      30.431  26.721  -2.956  0.00  0.00    +0.000 HD
ATOM     66  H   UNL     1      27.707  29.552   0.231  0.00  0.00    +0.000 HD
ATOM     67  H   UNL     1      30.217  29.266  -1.760  0.00  0.00    +0.000 HD
ATOM     68  C   UNL     1      21.933  22.711   0.158  0.00  0.00    +0.000 C 
ATOM     69  C   UNL     1      21.429  21.481  -0.351  0.00  0.00    +0.000 C 
ATOM     70  C   UNL     1      22.478  20.842  -1.170  0.00  0.00    +0.000 C 
ATOM     71  C   UNL     1      23.184  25.487   4.931  0.00  0.00    +0.000 C 
ATOM     72  C   UNL     1      23.310  24.164   5.023  0.00  0.00    +0.000 C 
ATOM     73  C   UNL     1      23.854  26.580   5.486  0.00  0.00    +0.000 C 
ATOM     74  C   UNL     1      25.445  31.322   4.266  0.00  0.00    +0.000 C 
ATOM     75  C   UNL     1      25.527  32.686   4.024  0.00  0.00    +0.000 C 
ATOM     76  C   UNL     1      26.157  33.648   5.055  0.00  0.00    +0.000 C 
ATOM     77  C   UNL     1      25.968  32.971   2.746  0.00  0.00    +0.000 C 
ATOM     78  C   UNL     1      31.103  21.545  -4.716  0.00  0.00    +0.000 C 
ATOM     79  C   UNL     1      32.140  20.716  -4.801  0.00  0.00    +0.000 C 
ATOM     80  C   UNL     1      30.260  22.172  -5.635  0.00  0.00    +0.000 C 
ATOM     81  C   UNL     1      34.092  31.971  -1.931  0.00  0.00    +0.000 C 
ATOM     82  C   UNL     1      35.292  32.832  -1.716  0.00  0.00    +0.000 C 
ATOM     83  C   UNL     1      32.778  32.498  -1.902  0.00  0.00    +0.000 C 
ENDROOT
BRANCH  69  84
ATOM     84  C   UNL     1      20.066  21.109  -0.433  0.00  0.00    +0.000 C 
ATOM     85  C   UNL     1      18.907  20.802  -0.504  0.00  0.00    +0.000 C 
BRANCH  85  86
ATOM     86  C   UNL     1      17.428  20.414  -0.594  0.00  0.00    +0.000 C 
ATOM     87  C   UNL     1      16.142  20.075  -0.677  0.00  0.00    +0.000 C 
ENDBRANCH  85  86
ENDBRANCH  69  84
BRANCH  13  88
ATOM     88  C   UNL     1      24.416  25.298   0.627  0.00  0.00    +0.000 C 
BRANCH  88  89
ATOM     89  O   UNL     1      25.615  25.790   0.910  0.00  0.00    +0.000 OA
ATOM     90  H   UNL     1      26.267  25.472   0.261  0.00  0.00    +0.000 HD
ENDBRANCH  88  89
ENDBRANCH  13  88
TORSDOF 4
ENDMDL
MODEL 6
REMARK VINA RESULT:      -8.9     19.501     25.102
REMARK  Name = Cyclosporin_A.pdbqt.pdb
REMARK  4 active torsions:
REMARK  status: ('A' for Active; 'I' for Inactive)
REMARK    1  A    between atoms: N_13  and  C_36
REMARK    2  A    between atoms: C_36  and  O_70
REMARK    3  A    between atoms: C_72  and  C_73
REMARK    4  A    between atoms: C_75  and  C_76
REMARK                            x       y       z     vdW  Elec       q    Type
REMARK                         _______ _______ _______ _____ _____    ______ ____
ROOT
ATOM      1  O   UNL     1      46.540   5.812  22.558  0.00  0.00    +0.000 OA
ATOM      2  O   UNL     1      43.834   9.590  20.386  0.00  0.00    +0.000 OA
ATOM      3  O   UNL     1      39.511   8.885  22.316  0.00  0.00    +0.000 OA
ATOM      4  O   UNL     1      44.298   1.569  23.551  0.00  0.00    +0.000 OA
ATOM      5  O   UNL     1      43.348  11.782  23.930  0.00  0.00    +0.000 OA
ATOM      6  O   UNL     1      41.096   7.899  34.271  0.00  0.00    +0.000 OA
ATOM      7  O   UNL     1      47.835   3.646  27.328  0.00  0.00    +0.000 OA
ATOM      8  O   UNL     1      41.316   3.466  32.133  0.00  0.00    +0.000 OA
ATOM      9  O   UNL     1      40.397  11.803  31.488  0.00  0.00    +0.000 OA
ATOM     10  O   UNL     1      44.862   2.386  30.365  0.00  0.00    +0.000 OA
ATOM     11  O   UNL     1      43.249  12.039  28.260  0.00  0.00    +0.000 OA
ATOM     12  N   UNL     1      44.092   7.971  21.417  0.00  0.00    +0.000 NA
ATOM     13  N   UNL     1      44.226   5.254  22.910  0.00  0.00    +0.000 NA
ATOM     14  N   UNL     1      41.220   9.455  21.485  0.00  0.00    +0.000 NA
ATOM     15  N   UNL     1      40.909  10.978  24.259  0.00  0.00    +0.000 NA
ATOM     16  N   UNL     1      44.685   3.286  25.240  0.00  0.00    +0.000 NA
ATOM     17  N   UNL     1      39.766   8.118  32.341  0.00  0.00    +0.000 N 
ATOM     18  N   UNL     1      41.515   5.704  31.477  0.00  0.00    +0.000 N 
ATOM     19  N   UNL     1      43.628   3.902  30.624  0.00  0.00    +0.000 NA
ATOM     20  N   UNL     1      45.841   4.676  27.698  0.00  0.00    +0.000 NA
ATOM     21  N   UNL     1      42.104  10.301  26.907  0.00  0.00    +0.000 NA
ATOM     22  N   UNL     1      41.310   9.898  30.317  0.00  0.00    +0.000 NA
ATOM     23  C   UNL     1      45.190   7.490  22.070  0.00  0.00    +0.000 C 
ATOM     24  C   UNL     1      42.085   8.482  21.785  0.00  0.00    +0.000 C 
ATOM     25  C   UNL     1      44.372   3.883  22.827  0.00  0.00    +0.000 C 
ATOM     26  C   UNL     1      46.482   7.894  21.787  0.00  0.00    +0.000 C 
ATOM     27  C   UNL     1      41.250   7.350  21.323  0.00  0.00    +0.000 C 
ATOM     28  C   UNL     1      45.194   6.191  22.534  0.00  0.00    +0.000 C 
ATOM     29  C   UNL     1      43.244   9.063  21.397  0.00  0.00    +0.000 C 
ATOM     30  C   UNL     1      40.821  10.873  22.962  0.00  0.00    +0.000 C 
ATOM     31  C   UNL     1      40.562   9.574  22.642  0.00  0.00    +0.000 C 
ATOM     32  C   UNL     1      44.175   2.940  23.970  0.00  0.00    +0.000 C 
ATOM     33  C   UNL     1      46.242   8.729  20.652  0.00  0.00    +0.000 C 
ATOM     34  C   UNL     1      47.265   6.796  21.916  0.00  0.00    +0.000 C 
ATOM     35  C   UNL     1      44.858   8.801  20.619  0.00  0.00    +0.000 C 
ATOM     36  C   UNL     1      40.138   8.628  21.076  0.00  0.00    +0.000 C 
ATOM     37  C   UNL     1      45.990   2.989  25.707  0.00  0.00    +0.000 C 
ATOM     38  C   UNL     1      41.529   6.346  32.688  0.00  0.00    +0.000 A 
ATOM     39  C   UNL     1      42.237  10.987  24.316  0.00  0.00    +0.000 C 
ATOM     40  C   UNL     1      39.851   9.522  32.159  0.00  0.00    +0.000 C 
ATOM     41  C   UNL     1      42.329   3.585  30.405  0.00  0.00    +0.000 C 
ATOM     42  C   UNL     1      40.213  12.287  24.176  0.00  0.00    +0.000 C 
ATOM     43  C   UNL     1      42.325   6.084  33.845  0.00  0.00    +0.000 A 
ATOM     44  C   UNL     1      38.564  10.034  33.327  0.00  0.00    +0.000 C 
ATOM     45  C   UNL     1      42.529  10.717  25.753  0.00  0.00    +0.000 C 
ATOM     46  C   UNL     1      42.044   2.485  31.391  0.00  0.00    +0.000 C 
ATOM     47  C   UNL     1      46.677   2.028  24.905  0.00  0.00    +0.000 C 
ATOM     48  C   UNL     1      40.766   7.464  33.010  0.00  0.00    +0.000 A 
ATOM     49  C   UNL     1      46.508   3.659  26.766  0.00  0.00    +0.000 C 
ATOM     50  C   UNL     1      41.696   4.412  31.318  0.00  0.00    +0.000 C 
ATOM     51  C   UNL     1      40.552  10.395  31.360  0.00  0.00    +0.000 C 
ATOM     52  C   UNL     1      44.908   3.997  28.601  0.00  0.00    +0.000 C 
ATOM     53  C   UNL     1      43.394   5.043  34.047  0.00  0.00    +0.000 C 
ATOM     54  C   UNL     1      42.035   7.051  34.774  0.00  0.00    +0.000 A 
ATOM     55  C   UNL     1      44.153   3.248  29.541  0.00  0.00    +0.000 C 
ATOM     56  C   UNL     1      42.008  10.609  29.492  0.00  0.00    +0.000 C 
ATOM     57  C   UNL     1      43.491  11.464  25.130  0.00  0.00    +0.000 C 
ATOM     58  C   UNL     1      38.835   8.704  33.127  0.00  0.00    +0.000 C 
ATOM     59  C   UNL     1      46.588   1.370  23.907  0.00  0.00    +0.000 C 
ATOM     60  C   UNL     1      42.435  10.864  28.060  0.00  0.00    +0.000 C 
ATOM     61  C   UNL     1      44.033   2.690  31.530  0.00  0.00    +0.000 C 
ATOM     62  C   UNL     1      47.113   4.436  27.950  0.00  0.00    +0.000 C 
ATOM     63  C   UNL     1      42.791  11.707  29.367  0.00  0.00    +0.000 C 
ATOM     64  H   UNL     1      44.461   4.252  25.478  0.00  0.00    +0.000 HD
ATOM     65  H   UNL     1      41.588   6.297  30.654  0.00  0.00    +0.000 HD
ATOM     66  H   UNL     1      41.296   9.684  26.908  0.00  0.00    +0.000 HD
ATOM     67  H   UNL     1      40.981   8.980  30.031  0.00  0.00    +0.000 HD
ATOM     68  C   UNL     1      45.055   3.304  21.878  0.00  0.00    +0.000 C 
ATOM     69  C   UNL     1      45.717   2.058  21.695  0.00  0.00    +0.000 C 
ATOM     70  C   UNL     1      45.555   1.251  22.921  0.00  0.00    +0.000 C 
ATOM     71  C   UNL     1      40.866   6.559  19.900  0.00  0.00    +0.000 C 
ATOM     72  C   UNL     1      40.656   5.252  19.748  0.00  0.00    +0.000 C 
ATOM     73  C   UNL     1      40.048   7.664  20.152  0.00  0.00    +0.000 C 
ATOM     74  C   UNL     1      40.027  12.095  22.772  0.00  0.00    +0.000 C 
ATOM     75  C   UNL     1      40.202  13.410  23.181  0.00  0.00    +0.000 C 
ATOM     76  C   UNL     1      39.064  14.447  23.062  0.00  0.00    +0.000 C 
ATOM     77  C   UNL     1      40.831  13.502  24.408  0.00  0.00    +0.000 C 
ATOM     78  C   UNL     1      42.173   0.909  31.634  0.00  0.00    +0.000 C 
ATOM     79  C   UNL     1      41.482   0.006  32.324  0.00  0.00    +0.000 C 
ATOM     80  C   UNL     1      43.446   1.473  31.740  0.00  0.00    +0.000 C 
ATOM     81  C   UNL     1      38.539  11.368  33.300  0.00  0.00    +0.000 C 
ATOM     82  C   UNL     1      37.590  12.164  34.133  0.00  0.00    +0.000 C 
ATOM     83  C   UNL     1      39.449  11.984  32.407  0.00  0.00    +0.000 C 
ENDROOT
BRANCH  69  84
ATOM     84  C   UNL     1      46.704   1.774  20.722  0.00  0.00    +0.000 C 
ATOM     85  C   UNL     1      47.544   1.541  19.896  0.00  0.00    +0.000 C 
BRANCH  85  86
ATOM     86  C   UNL     1      48.617   1.248  18.842  0.00  0.00    +0.000 C 
ATOM     87  C   UNL     1      49.546   0.993  17.922  0.00  0.00    +0.000 C 
ENDBRANCH  85  86
ENDBRANCH  69  84
BRANCH  13  88
ATOM     88  C   UNL     1      43.107   5.751  23.695  0.00  0.00    +0.000 C 
BRANCH  88  89
ATOM     89  O   UNL     1      42.086   6.182  24.422  0.00  0.00    +0.000 OA
ATOM     90  H   UNL     1      42.395   6.835  25.076  0.00  0.00    +0.000 HD
ENDBRANCH  88  89
ENDBRANCH  13  88
TORSDOF 4
ENDMDL
MODEL 7
REMARK VINA RESULT:      -8.9     36.352     42.757
REMARK  Name = Cyclosporin_A.pdbqt.pdb
REMARK  4 active torsions:
REMARK  status: ('A' for Active; 'I' for Inactive)
REMARK    1  A    between atoms: N_13  and  C_36
REMARK    2  A    between atoms: C_36  and  O_70
REMARK    3  A    between atoms: C_72  and  C_73
REMARK    4  A    between atoms: C_75  and  C_76
REMARK                            x       y       z     vdW  Elec       q    Type
REMARK                         _______ _______ _______ _____ _____    ______ ____
ROOT
ATOM      1  O   UNL     1      20.924  22.051 -10.675  0.00  0.00    +0.000 OA
ATOM      2  O   UNL     1      17.839  17.960 -10.440  0.00  0.00    +0.000 OA
ATOM      3  O   UNL     1      19.992  15.348  -7.054  0.00  0.00    +0.000 OA
ATOM      4  O   UNL     1      25.721  21.443  -9.882  0.00  0.00    +0.000 OA
ATOM      5  O   UNL     1      16.342  18.843  -6.622  0.00  0.00    +0.000 OA
ATOM      6  O   UNL     1      21.974  22.698   2.351  0.00  0.00    +0.000 OA
ATOM      7  O   UNL     1      23.208  25.891  -7.649  0.00  0.00    +0.000 OA
ATOM      8  O   UNL     1      25.852  22.704  -0.687  0.00  0.00    +0.000 OA
ATOM      9  O   UNL     1      18.117  19.996   1.210  0.00  0.00    +0.000 OA
ATOM     10  O   UNL     1      25.639  25.076  -4.033  0.00  0.00    +0.000 OA
ATOM     11  O   UNL     1      16.670  20.812  -2.770  0.00  0.00    +0.000 OA
ATOM     12  N   UNL     1      19.432  18.993 -10.060  0.00  0.00    +0.000 NA
ATOM     13  N   UNL     1      22.161  20.358  -9.496  0.00  0.00    +0.000 NA
ATOM     14  N   UNL     1      18.855  16.291  -8.380  0.00  0.00    +0.000 NA
ATOM     15  N   UNL     1      17.847  17.080  -5.469  0.00  0.00    +0.000 NA
ATOM     16  N   UNL     1      24.192  22.261  -8.167  0.00  0.00    +0.000 NA
ATOM     17  N   UNL     1      21.905  20.584   1.316  0.00  0.00    +0.000 N 
ATOM     18  N   UNL     1      23.587  22.122  -0.791  0.00  0.00    +0.000 N 
ATOM     19  N   UNL     1      24.586  23.857  -2.896  0.00  0.00    +0.000 NA
ATOM     20  N   UNL     1      22.848  24.172  -6.204  0.00  0.00    +0.000 NA
ATOM     21  N   UNL     1      18.479  19.515  -3.868  0.00  0.00    +0.000 NA
ATOM     22  N   UNL     1      19.518  20.573  -0.670  0.00  0.00    +0.000 NA
ATOM     23  C   UNL     1      19.656  20.339 -10.093  0.00  0.00    +0.000 C 
ATOM     24  C   UNL     1      19.569  17.362  -8.739  0.00  0.00    +0.000 C 
ATOM     25  C   UNL     1      23.411  20.707  -9.970  0.00  0.00    +0.000 C 
ATOM     26  C   UNL     1      18.866  21.225 -10.803  0.00  0.00    +0.000 C 
ATOM     27  C   UNL     1      20.826  16.644  -9.052  0.00  0.00    +0.000 C 
ATOM     28  C   UNL     1      20.947  20.819 -10.014  0.00  0.00    +0.000 C 
ATOM     29  C   UNL     1      18.636  18.050  -9.437  0.00  0.00    +0.000 C 
ATOM     30  C   UNL     1      17.808  16.395  -6.578  0.00  0.00    +0.000 C 
ATOM     31  C   UNL     1      19.076  16.269  -7.062  0.00  0.00    +0.000 C 
ATOM     32  C   UNL     1      24.506  21.276  -9.128  0.00  0.00    +0.000 C 
ATOM     33  C   UNL     1      18.000  20.307 -11.475  0.00  0.00    +0.000 C 
ATOM     34  C   UNL     1      19.700  22.167 -11.305  0.00  0.00    +0.000 C 
ATOM     35  C   UNL     1      18.324  19.097 -10.880  0.00  0.00    +0.000 C 
ATOM     36  C   UNL     1      19.899  15.330  -8.464  0.00  0.00    +0.000 C 
ATOM     37  C   UNL     1      24.158  23.658  -8.407  0.00  0.00    +0.000 C 
ATOM     38  C   UNL     1      23.126  22.598   0.410  0.00  0.00    +0.000 A 
ATOM     39  C   UNL     1      17.464  18.237  -5.998  0.00  0.00    +0.000 C 
ATOM     40  C   UNL     1      20.525  20.297   1.468  0.00  0.00    +0.000 C 
ATOM     41  C   UNL     1      25.232  22.704  -2.596  0.00  0.00    +0.000 C 
ATOM     42  C   UNL     1      16.792  16.192  -4.914  0.00  0.00    +0.000 C 
ATOM     43  C   UNL     1      23.292  23.889   0.998  0.00  0.00    +0.000 A 
ATOM     44  C   UNL     1      20.554  19.669   3.167  0.00  0.00    +0.000 C 
ATOM     45  C   UNL     1      17.817  19.237  -4.949  0.00  0.00    +0.000 C 
ATOM     46  C   UNL     1      26.482  23.153  -1.889  0.00  0.00    +0.000 C 
ATOM     47  C   UNL     1      24.773  24.039  -9.637  0.00  0.00    +0.000 C 
ATOM     48  C   UNL     1      22.323  21.888   1.296  0.00  0.00    +0.000 A 
ATOM     49  C   UNL     1      23.505  24.485  -7.552  0.00  0.00    +0.000 C 
ATOM     50  C   UNL     1      24.743  22.449  -1.325  0.00  0.00    +0.000 C 
ATOM     51  C   UNL     1      19.394  20.338   0.686  0.00  0.00    +0.000 C 
ATOM     52  C   UNL     1      23.874  23.947  -5.182  0.00  0.00    +0.000 C 
ATOM     53  C   UNL     1      23.999  25.100   0.448  0.00  0.00    +0.000 C 
ATOM     54  C   UNL     1      22.573  23.907   2.166  0.00  0.00    +0.000 A 
ATOM     55  C   UNL     1      24.920  23.905  -4.224  0.00  0.00    +0.000 C 
ATOM     56  C   UNL     1      18.539  20.630  -1.514  0.00  0.00    +0.000 C 
ATOM     57  C   UNL     1      16.753  19.609  -5.725  0.00  0.00    +0.000 C 
ATOM     58  C   UNL     1      21.714  20.059   2.548  0.00  0.00    +0.000 C 
ATOM     59  C   UNL     1      25.298  23.606 -10.624  0.00  0.00    +0.000 C 
ATOM     60  C   UNL     1      17.994  20.249  -2.877  0.00  0.00    +0.000 C 
ATOM     61  C   UNL     1      25.734  24.877  -2.588  0.00  0.00    +0.000 C 
ATOM     62  C   UNL     1      22.743  25.426  -6.601  0.00  0.00    +0.000 C 
ATOM     63  C   UNL     1      17.255  21.025  -1.695  0.00  0.00    +0.000 C 
ATOM     64  H   UNL     1      23.368  21.999  -7.625  0.00  0.00    +0.000 HD
ATOM     65  H   UNL     1      22.900  21.670  -1.388  0.00  0.00    +0.000 HD
ATOM     66  H   UNL     1      19.297  18.946  -3.665  0.00  0.00    +0.000 HD
ATOM     67  H   UNL     1      20.447  20.331  -1.001  0.00  0.00    +0.000 HD
ATOM     68  C   UNL     1      23.646  20.939 -11.232  0.00  0.00    +0.000 C 
ATOM     69  C   UNL     1      24.616  21.656 -11.987  0.00  0.00    +0.000 C 
ATOM     70  C   UNL     1      25.583  22.269 -11.055  0.00  0.00    +0.000 C 
ATOM     71  C   UNL     1      21.508  15.778 -10.310  0.00  0.00    +0.000 C 
ATOM     72  C   UNL     1      22.790  15.779 -10.672  0.00  0.00    +0.000 C 
ATOM     73  C   UNL     1      20.725  14.990  -9.462  0.00  0.00    +0.000 C 
ATOM     74  C   UNL     1      16.852  15.389  -6.095  0.00  0.00    +0.000 C 
ATOM     75  C   UNL     1      15.604  15.483  -5.493  0.00  0.00    +0.000 C 
ATOM     76  C   UNL     1      14.931  14.255  -4.844  0.00  0.00    +0.000 C 
ATOM     77  C   UNL     1      15.490  16.597  -4.684  0.00  0.00    +0.000 C 
ATOM     78  C   UNL     1      27.972  23.686  -2.124  0.00  0.00    +0.000 C 
ATOM     79  C   UNL     1      29.115  23.606  -1.447  0.00  0.00    +0.000 C 
ATOM     80  C   UNL     1      27.085  24.713  -2.450  0.00  0.00    +0.000 C 
ATOM     81  C   UNL     1      19.291  19.376   3.483  0.00  0.00    +0.000 C 
ATOM     82  C   UNL     1      18.912  18.818   4.815  0.00  0.00    +0.000 C 
ATOM     83  C   UNL     1      18.332  19.599   2.465  0.00  0.00    +0.000 C 
ENDROOT
BRANCH  69  84
ATOM     84  C   UNL     1      24.481  22.079 -13.330  0.00  0.00    +0.000 C 
ATOM     85  C   UNL     1      24.369  22.444 -14.469  0.00  0.00    +0.000 C 
BRANCH  85  86
ATOM     86  C   UNL     1      24.228  22.915 -15.920  0.00  0.00    +0.000 C 
ATOM     87  C   UNL     1      24.110  23.328 -17.181  0.00  0.00    +0.000 C 
ENDBRANCH  85  86
ENDBRANCH  69  84
BRANCH  13  88
ATOM     88  C   UNL     1      22.109  19.689  -8.206  0.00  0.00    +0.000 C 
BRANCH  88  89
ATOM     89  O   UNL     1      22.084  19.089  -7.024  0.00  0.00    +0.000 OA
ATOM     90  H   UNL     1      22.511  18.216  -7.084  0.00  0.00    +0.000 HD
ENDBRANCH  88  89
ENDBRANCH  13  88
TORSDOF 4
ENDMDL
MODEL 8
REMARK VINA RESULT:      -8.9     33.537     38.682
REMARK  Name = Cyclosporin_A.pdbqt.pdb
REMARK  4 active torsions:
REMARK  status: ('A' for Active; 'I' for Inactive)
REMARK    1  A    between atoms: N_13  and  C_36
REMARK    2  A    between atoms: C_36  and  O_70
REMARK    3  A    between atoms: C_72  and  C_73
REMARK    4  A    between atoms: C_75  and  C_76
REMARK                            x       y       z     vdW  Elec       q    Type
REMARK                         _______ _______ _______ _____ _____    ______ ____
ROOT
ATOM      1  O   UNL     1      51.840  -1.667  12.068  0.00  0.00    +0.000 OA
ATOM      2  O   UNL     1      48.686   2.359  11.678  0.00  0.00    +0.000 OA
ATOM      3  O   UNL     1      44.787   0.725  13.923  0.00  0.00    +0.000 OA
ATOM      4  O   UNL     1      49.935  -6.180  11.975  0.00  0.00    +0.000 OA
ATOM      5  O   UNL     1      48.758   3.284  15.769  0.00  0.00    +0.000 OA
ATOM      6  O   UNL     1      48.457  -3.813  24.523  0.00  0.00    +0.000 OA
ATOM      7  O   UNL     1      54.011  -5.098  15.624  0.00  0.00    +0.000 OA
ATOM      8  O   UNL     1      48.435  -7.319  21.064  0.00  0.00    +0.000 OA
ATOM      9  O   UNL     1      47.167   0.692  23.291  0.00  0.00    +0.000 OA
ATOM     10  O   UNL     1      51.651  -7.490  18.514  0.00  0.00    +0.000 OA
ATOM     11  O   UNL     1      49.405   2.165  19.911  0.00  0.00    +0.000 OA
ATOM     12  N   UNL     1      49.168   0.527  12.078  0.00  0.00    +0.000 NA
ATOM     13  N   UNL     1      49.641  -2.499  12.576  0.00  0.00    +0.000 NA
ATOM     14  N   UNL     1      46.308   1.668  13.066  0.00  0.00    +0.000 NA
ATOM     15  N   UNL     1      46.438   2.215  16.196  0.00  0.00    +0.000 NA
ATOM     16  N   UNL     1      50.558  -5.051  14.046  0.00  0.00    +0.000 NA
ATOM     17  N   UNL     1      46.805  -3.114  22.998  0.00  0.00    +0.000 N 
ATOM     18  N   UNL     1      48.449  -4.980  21.141  0.00  0.00    +0.000 N 
ATOM     19  N   UNL     1      50.435  -6.241  19.437  0.00  0.00    +0.000 NA
ATOM     20  N   UNL     1      52.081  -4.407  16.610  0.00  0.00    +0.000 NA
ATOM     21  N   UNL     1      48.096   0.848  18.265  0.00  0.00    +0.000 NA
ATOM     22  N   UNL     1      47.919  -0.667  21.443  0.00  0.00    +0.000 NA
ATOM     23  C   UNL     1      50.376  -0.039  12.363  0.00  0.00    +0.000 C 
ATOM     24  C   UNL     1      47.241   0.726  12.898  0.00  0.00    +0.000 C 
ATOM     25  C   UNL     1      49.812  -3.758  12.034  0.00  0.00    +0.000 C 
ATOM     26  C   UNL     1      51.587   0.540  12.029  0.00  0.00    +0.000 C 
ATOM     27  C   UNL     1      46.373  -0.271  12.231  0.00  0.00    +0.000 C 
ATOM     28  C   UNL     1      50.500  -1.413  12.377  0.00  0.00    +0.000 C 
ATOM     29  C   UNL     1      48.297   1.495  12.544  0.00  0.00    +0.000 C 
ATOM     30  C   UNL     1      46.130   2.514  14.965  0.00  0.00    +0.000 C 
ATOM     31  C   UNL     1      45.858   1.363  14.287  0.00  0.00    +0.000 C 
ATOM     32  C   UNL     1      49.846  -5.024  12.827  0.00  0.00    +0.000 C 
ATOM     33  C   UNL     1      51.128   1.664  11.275  0.00  0.00    +0.000 C 
ATOM     34  C   UNL     1      52.413  -0.473  11.673  0.00  0.00    +0.000 C 
ATOM     35  C   UNL     1      49.758   1.626  11.482  0.00  0.00    +0.000 C 
ATOM     36  C   UNL     1      45.197   0.922  12.586  0.00  0.00    +0.000 C 
ATOM     37  C   UNL     1      51.932  -5.368  14.184  0.00  0.00    +0.000 C 
ATOM     38  C   UNL     1      48.654  -4.750  22.478  0.00  0.00    +0.000 A 
ATOM     39  C   UNL     1      47.755   2.318  16.046  0.00  0.00    +0.000 C 
ATOM     40  C   UNL     1      46.815  -1.722  23.267  0.00  0.00    +0.000 C 
ATOM     41  C   UNL     1      49.128  -6.581  19.331  0.00  0.00    +0.000 C 
ATOM     42  C   UNL     1      45.699   3.422  16.648  0.00  0.00    +0.000 C 
ATOM     43  C   UNL     1      49.647  -5.293  23.350  0.00  0.00    +0.000 A 
ATOM     44  C   UNL     1      45.736  -1.711  24.723  0.00  0.00    +0.000 C 
ATOM     45  C   UNL     1      48.301   1.637  17.256  0.00  0.00    +0.000 C 
ATOM     46  C   UNL     1      49.052  -7.954  19.942  0.00  0.00    +0.000 C 
ATOM     47  C   UNL     1      52.498  -5.969  13.019  0.00  0.00    +0.000 C 
ATOM     48  C   UNL     1      47.926  -3.857  23.257  0.00  0.00    +0.000 A 
ATOM     49  C   UNL     1      52.606  -5.021  15.309  0.00  0.00    +0.000 C 
ATOM     50  C   UNL     1      48.639  -6.138  20.549  0.00  0.00    +0.000 C 
ATOM     51  C   UNL     1      47.339  -0.587  22.694  0.00  0.00    +0.000 C 
ATOM     52  C   UNL     1      51.340  -5.410  17.380  0.00  0.00    +0.000 C 
ATOM     53  C   UNL     1      50.765  -6.251  23.037  0.00  0.00    +0.000 C 
ATOM     54  C   UNL     1      49.494  -4.693  24.573  0.00  0.00    +0.000 A 
ATOM     55  C   UNL     1      50.783  -6.477  18.132  0.00  0.00    +0.000 C 
ATOM     56  C   UNL     1      48.441   0.322  20.793  0.00  0.00    +0.000 C 
ATOM     57  C   UNL     1      49.117   2.621  16.765  0.00  0.00    +0.000 C 
ATOM     58  C   UNL     1      46.008  -2.883  24.065  0.00  0.00    +0.000 C 
ATOM     59  C   UNL     1      52.257  -6.287  11.888  0.00  0.00    +0.000 C 
ATOM     60  C   UNL     1      48.605   1.047  19.471  0.00  0.00    +0.000 C 
ATOM     61  C   UNL     1      51.028  -7.637  19.829  0.00  0.00    +0.000 C 
ATOM     62  C   UNL     1      53.384  -4.606  16.571  0.00  0.00    +0.000 C 
ATOM     63  C   UNL     1      49.158   1.467  20.908  0.00  0.00    +0.000 C 
ATOM     64  H   UNL     1      50.349  -4.230  14.615  0.00  0.00    +0.000 HD
ATOM     65  H   UNL     1      48.360  -4.155  20.553  0.00  0.00    +0.000 HD
ATOM     66  H   UNL     1      47.319   0.196  18.193  0.00  0.00    +0.000 HD
ATOM     67  H   UNL     1      47.574  -1.473  20.930  0.00  0.00    +0.000 HD
ATOM     68  C   UNL     1      50.336  -3.952  10.855  0.00  0.00    +0.000 C 
ATOM     69  C   UNL     1      50.994  -5.017  10.180  0.00  0.00    +0.000 C 
ATOM     70  C   UNL     1      51.072  -6.178  11.090  0.00  0.00    +0.000 C 
ATOM     71  C   UNL     1      45.771  -0.606  10.707  0.00  0.00    +0.000 C 
ATOM     72  C   UNL     1      45.578  -1.813  10.176  0.00  0.00    +0.000 C 
ATOM     73  C   UNL     1      44.976   0.292  11.425  0.00  0.00    +0.000 C 
ATOM     74  C   UNL     1      45.278   3.663  15.304  0.00  0.00    +0.000 C 
ATOM     75  C   UNL     1      45.481   4.794  16.083  0.00  0.00    +0.000 C 
ATOM     76  C   UNL     1      44.310   5.716  16.482  0.00  0.00    +0.000 C 
ATOM     77  C   UNL     1      46.311   4.550  17.161  0.00  0.00    +0.000 C 
ATOM     78  C   UNL     1      49.269  -9.511  19.640  0.00  0.00    +0.000 C 
ATOM     79  C   UNL     1      48.736 -10.639  20.100  0.00  0.00    +0.000 C 
ATOM     80  C   UNL     1      50.523  -8.903  19.723  0.00  0.00    +0.000 C 
ATOM     81  C   UNL     1      45.666  -0.442  25.132  0.00  0.00    +0.000 C 
ATOM     82  C   UNL     1      44.853  -0.030  26.314  0.00  0.00    +0.000 C 
ATOM     83  C   UNL     1      46.388   0.497  24.356  0.00  0.00    +0.000 C 
ENDROOT
BRANCH  69  84
ATOM     84  C   UNL     1      51.804  -4.898   9.026  0.00  0.00    +0.000 C 
ATOM     85  C   UNL     1      52.488  -4.790   8.044  0.00  0.00    +0.000 C 
BRANCH  85  86
ATOM     86  C   UNL     1      53.356  -4.650   6.790  0.00  0.00    +0.000 C 
ATOM     87  C   UNL     1      54.111  -4.523   5.700  0.00  0.00    +0.000 C 
ENDBRANCH  85  86
ENDBRANCH  69  84
BRANCH  13  88
ATOM     88  C   UNL     1      48.661  -2.369  13.642  0.00  0.00    +0.000 C 
BRANCH  88  89
ATOM     89  O   UNL     1      47.778  -2.270  14.626  0.00  0.00    +0.000 OA
ATOM     90  H   UNL     1      47.990  -1.504  15.189  0.00  0.00    +0.000 HD
ENDBRANCH  88  89
ENDBRANCH  13  88
TORSDOF 4
ENDMDL
MODEL 9
REMARK VINA RESULT:      -8.8     29.798     33.307
REMARK  Name = Cyclosporin_A.pdbqt.pdb
REMARK  4 active torsions:
REMARK  status: ('A' for Active; 'I' for Inactive)
REMARK    1  A    between atoms: N_13  and  C_36
REMARK    2  A    between atoms: C_36  and  O_70
REMARK    3  A    between atoms: C_72  and  C_73
REMARK    4  A    between atoms: C_75  and  C_76
REMARK                            x       y       z     vdW  Elec       q    Type
REMARK                         _______ _______ _______ _____ _____    ______ ____
ROOT
ATOM      1  O   UNL     1      25.959 -10.180  21.304  0.00  0.00    +0.000 OA
ATOM      2  O   UNL     1      24.411  -9.132  26.081  0.00  0.00    +0.000 OA
ATOM      3  O   UNL     1      23.777  -4.392  25.849  0.00  0.00    +0.000 OA
ATOM      4  O   UNL     1      28.647  -6.857  18.908  0.00  0.00    +0.000 OA
ATOM      5  O   UNL     1      20.481  -8.150  24.990  0.00  0.00    +0.000 OA
ATOM      6  O   UNL     1      17.005  -2.209  16.062  0.00  0.00    +0.000 OA
ATOM      7  O   UNL     1      24.628  -9.529  16.114  0.00  0.00    +0.000 OA
ATOM      8  O   UNL     1      21.793  -2.036  14.917  0.00  0.00    +0.000 OA
ATOM      9  O   UNL     1      15.729  -3.233  20.623  0.00  0.00    +0.000 OA
ATOM     10  O   UNL     1      23.718  -5.605  14.265  0.00  0.00    +0.000 OA
ATOM     11  O   UNL     1      17.556  -6.870  22.052  0.00  0.00    +0.000 OA
ATOM     12  N   UNL     1      25.018  -8.713  24.290  0.00  0.00    +0.000 NA
ATOM     13  N   UNL     1      26.188  -7.799  21.565  0.00  0.00    +0.000 NA
ATOM     14  N   UNL     1      23.844  -6.351  26.161  0.00  0.00    +0.000 NA
ATOM     15  N   UNL     1      20.917  -5.604  25.168  0.00  0.00    +0.000 NA
ATOM     16  N   UNL     1      26.247  -7.116  18.558  0.00  0.00    +0.000 NA
ATOM     17  N   UNL     1      18.060  -1.575  18.069  0.00  0.00    +0.000 N 
ATOM     18  N   UNL     1      20.466  -2.911  16.635  0.00  0.00    +0.000 N 
ATOM     19  N   UNL     1      22.387  -4.720  15.419  0.00  0.00    +0.000 NA
ATOM     20  N   UNL     1      23.611  -7.796  17.181  0.00  0.00    +0.000 NA
ATOM     21  N   UNL     1      19.767  -5.804  22.423  0.00  0.00    +0.000 NA
ATOM     22  N   UNL     1      17.939  -3.993  20.014  0.00  0.00    +0.000 NA
ATOM     23  C   UNL     1      24.972  -9.439  23.136  0.00  0.00    +0.000 C 
ATOM     24  C   UNL     1      24.405  -6.852  25.057  0.00  0.00    +0.000 C 
ATOM     25  C   UNL     1      27.304  -7.652  20.765  0.00  0.00    +0.000 C 
ATOM     26  C   UNL     1      24.826 -10.814  23.107  0.00  0.00    +0.000 C 
ATOM     27  C   UNL     1      25.582  -5.954  25.028  0.00  0.00    +0.000 C 
ATOM     28  C   UNL     1      25.689  -9.018  22.035  0.00  0.00    +0.000 C 
ATOM     29  C   UNL     1      24.188  -8.173  25.256  0.00  0.00    +0.000 C 
ATOM     30  C   UNL     1      21.815  -5.872  26.075  0.00  0.00    +0.000 C 
ATOM     31  C   UNL     1      23.028  -5.432  25.636  0.00  0.00    +0.000 C 
ATOM     32  C   UNL     1      27.319  -6.929  19.457  0.00  0.00    +0.000 C 
ATOM     33  C   UNL     1      24.895 -11.104  24.504  0.00  0.00    +0.000 C 
ATOM     34  C   UNL     1      25.593 -11.261  22.082  0.00  0.00    +0.000 C 
ATOM     35  C   UNL     1      24.870  -9.841  25.075  0.00  0.00    +0.000 C 
ATOM     36  C   UNL     1      24.752  -5.276  26.364  0.00  0.00    +0.000 C 
ATOM     37  C   UNL     1      26.174  -8.130  17.570  0.00  0.00    +0.000 C 
ATOM     38  C   UNL     1      19.204  -2.720  16.133  0.00  0.00    +0.000 A 
ATOM     39  C   UNL     1      20.864  -6.827  24.648  0.00  0.00    +0.000 C 
ATOM     40  C   UNL     1      17.083  -2.021  18.995  0.00  0.00    +0.000 C 
ATOM     41  C   UNL     1      22.781  -3.503  15.865  0.00  0.00    +0.000 C 
ATOM     42  C   UNL     1      19.957  -5.273  26.253  0.00  0.00    +0.000 C 
ATOM     43  C   UNL     1      18.674  -3.069  14.854  0.00  0.00    +0.000 A 
ATOM     44  C   UNL     1      15.959  -0.601  18.922  0.00  0.00    +0.000 C 
ATOM     45  C   UNL     1      20.167  -6.625  23.345  0.00  0.00    +0.000 C 
ATOM     46  C   UNL     1      23.016  -2.707  14.610  0.00  0.00    +0.000 C 
ATOM     47  C   UNL     1      27.420  -8.785  17.334  0.00  0.00    +0.000 C 
ATOM     48  C   UNL     1      18.139  -2.167  16.837  0.00  0.00    +0.000 A 
ATOM     49  C   UNL     1      24.982  -8.458  17.012  0.00  0.00    +0.000 C 
ATOM     50  C   UNL     1      21.568  -2.836  15.923  0.00  0.00    +0.000 C 
ATOM     51  C   UNL     1      16.902  -3.098  19.830  0.00  0.00    +0.000 C 
ATOM     52  C   UNL     1      23.577  -6.516  16.469  0.00  0.00    +0.000 C 
ATOM     53  C   UNL     1      19.347  -3.773  13.706  0.00  0.00    +0.000 C 
ATOM     54  C   UNL     1      17.340  -2.749  14.858  0.00  0.00    +0.000 A 
ATOM     55  C   UNL     1      23.573  -5.375  15.625  0.00  0.00    +0.000 C 
ATOM     56  C   UNL     1      17.901  -5.039  20.774  0.00  0.00    +0.000 C 
ATOM     57  C   UNL     1      19.971  -7.867  23.885  0.00  0.00    +0.000 C 
ATOM     58  C   UNL     1      17.117  -0.613  18.186  0.00  0.00    +0.000 C 
ATOM     59  C   UNL     1      28.560  -8.842  17.699  0.00  0.00    +0.000 C 
ATOM     60  C   UNL     1      18.601  -5.907  21.802  0.00  0.00    +0.000 C 
ATOM     61  C   UNL     1      22.755  -4.566  13.904  0.00  0.00    +0.000 C 
ATOM     62  C   UNL     1      23.629  -8.855  16.393  0.00  0.00    +0.000 C 
ATOM     63  C   UNL     1      17.121  -6.051  21.225  0.00  0.00    +0.000 C 
ATOM     64  H   UNL     1      25.348  -7.055  19.036  0.00  0.00    +0.000 HD
ATOM     65  H   UNL     1      20.522  -3.349  17.551  0.00  0.00    +0.000 HD
ATOM     66  H   UNL     1      20.251  -4.913  22.354  0.00  0.00    +0.000 HD
ATOM     67  H   UNL     1      18.835  -3.564  19.801  0.00  0.00    +0.000 HD
ATOM     68  C   UNL     1      28.347  -8.431  20.860  0.00  0.00    +0.000 C 
ATOM     69  C   UNL     1      29.424  -8.821  20.018  0.00  0.00    +0.000 C 
ATOM     70  C   UNL     1      29.281  -8.137  18.717  0.00  0.00    +0.000 C 
ATOM     71  C   UNL     1      27.095  -5.828  25.730  0.00  0.00    +0.000 C 
ATOM     72  C   UNL     1      28.207  -5.384  25.147  0.00  0.00    +0.000 C 
ATOM     73  C   UNL     1      26.084  -5.242  26.497  0.00  0.00    +0.000 C 
ATOM     74  C   UNL     1      20.992  -5.461  27.220  0.00  0.00    +0.000 C 
ATOM     75  C   UNL     1      19.712  -5.801  27.635  0.00  0.00    +0.000 C 
ATOM     76  C   UNL     1      18.990  -5.008  28.746  0.00  0.00    +0.000 C 
ATOM     77  C   UNL     1      18.862  -6.054  26.575  0.00  0.00    +0.000 C 
ATOM     78  C   UNL     1      24.088  -2.405  13.460  0.00  0.00    +0.000 C 
ATOM     79  C   UNL     1      24.360  -1.361  12.682  0.00  0.00    +0.000 C 
ATOM     80  C   UNL     1      23.573  -3.686  13.252  0.00  0.00    +0.000 C 
ATOM     81  C   UNL     1      14.940  -0.884  19.737  0.00  0.00    +0.000 C 
ATOM     82  C   UNL     1      13.804   0.061  19.949  0.00  0.00    +0.000 C 
ATOM     83  C   UNL     1      15.016  -2.127  20.411  0.00  0.00    +0.000 C 
ENDROOT
BRANCH  69  84
ATOM     84  C   UNL     1      30.250  -9.957  20.194  0.00  0.00    +0.000 C 
ATOM     85  C   UNL     1      30.956 -10.918  20.337  0.00  0.00    +0.000 C 
BRANCH  85  86
ATOM     86  C   UNL     1      31.856 -12.146  20.514  0.00  0.00    +0.000 C 
ATOM     87  C   UNL     1      32.635 -13.214  20.672  0.00  0.00    +0.000 C 
ENDBRANCH  85  86
ENDBRANCH  69  84
BRANCH  13  88
ATOM     88  C   UNL     1      25.317  -6.643  21.699  0.00  0.00    +0.000 C 
BRANCH  88  89
ATOM     89  O   UNL     1      24.506  -5.599  21.805  0.00  0.00    +0.000 OA
ATOM     90  H   UNL     1      24.181  -5.339  20.925  0.00  0.00    +0.000 HD
ENDBRANCH  88  89
ENDBRANCH  13  88
TORSDOF 4
ENDMDL
