MODEL 1
REMARK VINA RESULT:      -7.3      0.000      0.000
REMARK  Name = Danazol.pdbqt.pdb
REMARK  2 active torsions:
REMARK  status: ('A' for Active; 'I' for Inactive)
REMARK    1  A    between atoms: C_9  and  O_23
REMARK    2  A    between atoms: C_9  and  C_25
REMARK                            x       y       z     vdW  Elec       q    Type
REMARK                         _______ _______ _______ _____ _____    ______ ____
ROOT
ATOM      1  O   UNL     1      51.902  -7.808  11.809  0.00  0.00    +0.000 OA
ATOM      2  N   UNL     1      52.421  -7.160  12.950  0.00  0.00    +0.000 NA
ATOM      3  C   UNL     1      44.553  -5.969  11.067  0.00  0.00    +0.000 C 
ATOM      4  C   UNL     1      43.988  -4.778  12.005  0.00  0.00    +0.000 C 
ATOM      5  C   UNL     1      45.971  -6.070  10.672  0.00  0.00    +0.000 C 
ATOM      6  C   UNL     1      47.099  -5.213  11.179  0.00  0.00    +0.000 C 
ATOM      7  C   UNL     1      48.545  -5.271  10.631  0.00  0.00    +0.000 C 
ATOM      8  C   UNL     1      45.187  -4.102  12.523  0.00  0.00    +0.000 C 
ATOM      9  C   UNL     1      43.070  -5.557  13.107  0.00  0.00    +0.000 C 
ATOM     10  C   UNL     1      46.635  -4.276  12.142  0.00  0.00    +0.000 C 
ATOM     11  C   UNL     1      43.747  -7.128  11.247  0.00  0.00    +0.000 C 
ATOM     12  C   UNL     1      46.425  -7.112   9.832  0.00  0.00    +0.000 C 
ATOM     13  C   UNL     1      42.867  -6.855  12.431  0.00  0.00    +0.000 C 
ATOM     14  C   UNL     1      48.939  -6.682   9.850  0.00  0.00    +0.000 C 
ATOM     15  C   UNL     1      43.180  -3.826  11.048  0.00  0.00    +0.000 C 
ATOM     16  C   UNL     1      47.827  -7.444   9.415  0.00  0.00    +0.000 C 
ATOM     17  C   UNL     1      49.530  -5.203  11.768  0.00  0.00    +0.000 C 
ATOM     18  C   UNL     1      48.759  -4.111   9.617  0.00  0.00    +0.000 C 
ATOM     19  C   UNL     1      49.998  -7.324  10.293  0.00  0.00    +0.000 C 
ATOM     20  C   UNL     1      50.643  -5.991  12.184  0.00  0.00    +0.000 A 
ATOM     21  C   UNL     1      50.860  -7.082  11.388  0.00  0.00    +0.000 A 
ATOM     22  C   UNL     1      51.647  -6.071  13.145  0.00  0.00    +0.000 A 
ENDROOT
BRANCH   9  23
ATOM     23  O   UNL     1      41.792  -4.955  13.363  0.00  0.00    +0.000 OA
ATOM     24  H   UNL     1      41.618  -5.028  14.318  0.00  0.00    +0.000 HD
ENDBRANCH   9  23
BRANCH   9  25
ATOM     25  C   UNL     1      43.799  -5.727  14.389  0.00  0.00    +0.000 C 
ATOM     26  C   UNL     1      44.408  -5.856  15.409  0.00  0.00    +0.000 C 
ENDBRANCH   9  25
TORSDOF 2
ENDMDL
MODEL 2
REMARK VINA RESULT:      -6.9     38.093     40.348
REMARK  Name = Danazol.pdbqt.pdb
REMARK  2 active torsions:
REMARK  status: ('A' for Active; 'I' for Inactive)
REMARK    1  A    between atoms: C_9  and  O_23
REMARK    2  A    between atoms: C_9  and  C_25
REMARK                            x       y       z     vdW  Elec       q    Type
REMARK                         _______ _______ _______ _____ _____    ______ ____
ROOT
ATOM      1  O   UNL     1      17.011  15.985  32.685  0.00  0.00    +0.000 OA
ATOM      2  N   UNL     1      16.708  16.533  33.949  0.00  0.00    +0.000 NA
ATOM      3  C   UNL     1      24.048  18.112  30.711  0.00  0.00    +0.000 C 
ATOM      4  C   UNL     1      24.958  18.816  31.849  0.00  0.00    +0.000 C 
ATOM      5  C   UNL     1      22.955  17.173  31.028  0.00  0.00    +0.000 C 
ATOM      6  C   UNL     1      22.430  16.851  32.401  0.00  0.00    +0.000 C 
ATOM      7  C   UNL     1      21.375  15.757  32.690  0.00  0.00    +0.000 C 
ATOM      8  C   UNL     1      24.272  18.524  33.116  0.00  0.00    +0.000 C 
ATOM      9  C   UNL     1      24.996  20.384  31.399  0.00  0.00    +0.000 C 
ATOM     10  C   UNL     1      23.110  17.604  33.398  0.00  0.00    +0.000 C 
ATOM     11  C   UNL     1      23.992  18.960  29.568  0.00  0.00    +0.000 C 
ATOM     12  C   UNL     1      22.196  16.559  30.006  0.00  0.00    +0.000 C 
ATOM     13  C   UNL     1      24.576  20.277  29.986  0.00  0.00    +0.000 C 
ATOM     14  C   UNL     1      20.441  15.327  31.387  0.00  0.00    +0.000 C 
ATOM     15  C   UNL     1      26.353  18.092  31.790  0.00  0.00    +0.000 C 
ATOM     16  C   UNL     1      20.991  15.675  30.129  0.00  0.00    +0.000 C 
ATOM     17  C   UNL     1      20.374  16.260  33.697  0.00  0.00    +0.000 C 
ATOM     18  C   UNL     1      22.090  14.469  33.187  0.00  0.00    +0.000 C 
ATOM     19  C   UNL     1      19.138  15.414  31.541  0.00  0.00    +0.000 C 
ATOM     20  C   UNL     1      18.952  16.342  33.749  0.00  0.00    +0.000 A 
ATOM     21  C   UNL     1      18.343  15.886  32.612  0.00  0.00    +0.000 A 
ATOM     22  C   UNL     1      17.893  16.730  34.565  0.00  0.00    +0.000 A 
ENDROOT
BRANCH   9  23
ATOM     23  O   UNL     1      26.293  20.998  31.459  0.00  0.00    +0.000 OA
ATOM     24  H   UNL     1      26.268  21.670  32.162  0.00  0.00    +0.000 HD
ENDBRANCH   9  23
BRANCH   9  25
ATOM     25  C   UNL     1      24.032  21.193  32.185  0.00  0.00    +0.000 C 
ATOM     26  C   UNL     1      23.242  21.851  32.795  0.00  0.00    +0.000 C 
ENDBRANCH   9  25
TORSDOF 2
ENDMDL
MODEL 3
REMARK VINA RESULT:      -6.1     39.621     42.914
REMARK  Name = Danazol.pdbqt.pdb
REMARK  2 active torsions:
REMARK  status: ('A' for Active; 'I' for Inactive)
REMARK    1  A    between atoms: C_9  and  O_23
REMARK    2  A    between atoms: C_9  and  C_25
REMARK                            x       y       z     vdW  Elec       q    Type
REMARK                         _______ _______ _______ _____ _____    ______ ____
ROOT
ATOM      1  O   UNL     1      18.415  24.304  34.756  0.00  0.00    +0.000 OA
ATOM      2  N   UNL     1      17.438  23.287  34.735  0.00  0.00    +0.000 NA
ATOM      3  C   UNL     1      24.651  21.794  31.184  0.00  0.00    +0.000 C 
ATOM      4  C   UNL     1      24.526  20.410  30.356  0.00  0.00    +0.000 C 
ATOM      5  C   UNL     1      23.499  22.681  31.438  0.00  0.00    +0.000 C 
ATOM      6  C   UNL     1      22.059  22.381  31.120  0.00  0.00    +0.000 C 
ATOM      7  C   UNL     1      20.907  23.401  31.281  0.00  0.00    +0.000 C 
ATOM      8  C   UNL     1      23.079  20.180  30.220  0.00  0.00    +0.000 C 
ATOM      9  C   UNL     1      25.340  19.335  31.275  0.00  0.00    +0.000 C 
ATOM     10  C   UNL     1      21.920  21.086  30.551  0.00  0.00    +0.000 C 
ATOM     11  C   UNL     1      25.726  21.689  32.111  0.00  0.00    +0.000 C 
ATOM     12  C   UNL     1      23.650  23.895  32.146  0.00  0.00    +0.000 C 
ATOM     13  C   UNL     1      26.132  20.245  32.129  0.00  0.00    +0.000 C 
ATOM     14  C   UNL     1      21.221  24.650  32.328  0.00  0.00    +0.000 C 
ATOM     15  C   UNL     1      25.180  20.689  28.954  0.00  0.00    +0.000 C 
ATOM     16  C   UNL     1      22.596  24.863  32.594  0.00  0.00    +0.000 C 
ATOM     17  C   UNL     1      19.701  22.725  31.881  0.00  0.00    +0.000 C 
ATOM     18  C   UNL     1      20.579  24.034  29.899  0.00  0.00    +0.000 C 
ATOM     19  C   UNL     1      20.364  24.825  33.311  0.00  0.00    +0.000 C 
ATOM     20  C   UNL     1      18.851  22.986  32.996  0.00  0.00    +0.000 A 
ATOM     21  C   UNL     1      19.223  24.091  33.711  0.00  0.00    +0.000 A 
ATOM     22  C   UNL     1      17.724  22.517  33.663  0.00  0.00    +0.000 A 
ENDROOT
BRANCH   9  23
ATOM     23  O   UNL     1      26.232  18.474  30.551  0.00  0.00    +0.000 OA
ATOM     24  H   UNL     1      25.805  18.253  29.705  0.00  0.00    +0.000 HD
ENDBRANCH   9  23
BRANCH   9  25
ATOM     25  C   UNL     1      24.411  18.510  32.087  0.00  0.00    +0.000 C 
ATOM     26  C   UNL     1      23.667  17.863  32.762  0.00  0.00    +0.000 C 
ENDBRANCH   9  25
TORSDOF 2
ENDMDL
MODEL 4
REMARK VINA RESULT:      -6.1     37.133     40.221
REMARK  Name = Danazol.pdbqt.pdb
REMARK  2 active torsions:
REMARK  status: ('A' for Active; 'I' for Inactive)
REMARK    1  A    between atoms: C_9  and  O_23
REMARK    2  A    between atoms: C_9  and  C_25
REMARK                            x       y       z     vdW  Elec       q    Type
REMARK                         _______ _______ _______ _____ _____    ______ ____
ROOT
ATOM      1  O   UNL     1      24.437  30.419   2.565  0.00  0.00    +0.000 OA
ATOM      2  N   UNL     1      25.817  30.649   2.380  0.00  0.00    +0.000 NA
ATOM      3  C   UNL     1      22.963  23.083   1.170  0.00  0.00    +0.000 C 
ATOM      4  C   UNL     1      24.229  22.089   1.008  0.00  0.00    +0.000 C 
ATOM      5  C   UNL     1      23.020  24.327   1.961  0.00  0.00    +0.000 C 
ATOM      6  C   UNL     1      24.249  24.928   2.588  0.00  0.00    +0.000 C 
ATOM      7  C   UNL     1      24.230  26.161   3.522  0.00  0.00    +0.000 C 
ATOM      8  C   UNL     1      25.372  22.841   1.548  0.00  0.00    +0.000 C 
ATOM      9  C   UNL     1      24.270  21.773  -0.592  0.00  0.00    +0.000 C 
ATOM     10  C   UNL     1      25.402  24.148   2.299  0.00  0.00    +0.000 C 
ATOM     11  C   UNL     1      22.131  22.970   0.021  0.00  0.00    +0.000 C 
ATOM     12  C   UNL     1      21.886  25.160   2.100  0.00  0.00    +0.000 C 
ATOM     13  C   UNL     1      22.905  22.176  -0.989  0.00  0.00    +0.000 C 
ATOM     14  C   UNL     1      22.889  27.128   3.374  0.00  0.00    +0.000 C 
ATOM     15  C   UNL     1      23.910  20.839   1.907  0.00  0.00    +0.000 C 
ATOM     16  C   UNL     1      21.777  26.501   2.761  0.00  0.00    +0.000 C 
ATOM     17  C   UNL     1      25.374  27.080   3.184  0.00  0.00    +0.000 C 
ATOM     18  C   UNL     1      24.293  25.688   5.002  0.00  0.00    +0.000 C 
ATOM     19  C   UNL     1      23.106  28.399   3.118  0.00  0.00    +0.000 C 
ATOM     20  C   UNL     1      25.495  28.468   2.881  0.00  0.00    +0.000 A 
ATOM     21  C   UNL     1      24.294  29.123   2.863  0.00  0.00    +0.000 A 
ATOM     22  C   UNL     1      26.424  29.460   2.583  0.00  0.00    +0.000 A 
ENDROOT
BRANCH   9  23
ATOM     23  O   UNL     1      24.469  20.391  -0.930  0.00  0.00    +0.000 OA
ATOM     24  H   UNL     1      24.187  19.858  -0.167  0.00  0.00    +0.000 HD
ENDBRANCH   9  23
BRANCH   9  25
ATOM     25  C   UNL     1      25.294  22.599  -1.278  0.00  0.00    +0.000 C 
ATOM     26  C   UNL     1      26.101  23.285  -1.832  0.00  0.00    +0.000 C 
ENDBRANCH   9  25
TORSDOF 2
ENDMDL
MODEL 5
REMARK VINA RESULT:      -6.0     27.265     31.514
REMARK  Name = Danazol.pdbqt.pdb
REMARK  2 active torsions:
REMARK  status: ('A' for Active; 'I' for Inactive)
REMARK    1  A    between atoms: C_9  and  O_23
REMARK    2  A    between atoms: C_9  and  C_25
REMARK                            x       y       z     vdW  Elec       q    Type
REMARK                         _______ _______ _______ _____ _____    ______ ____
ROOT
ATOM      1  O   UNL     1      18.059  -2.070  30.673  0.00  0.00    +0.000 OA
ATOM      2  N   UNL     1      17.803  -0.713  30.963  0.00  0.00    +0.000 NA
ATOM      3  C   UNL     1      25.586  -3.202  30.653  0.00  0.00    +0.000 C 
ATOM      4  C   UNL     1      26.518  -2.007  31.218  0.00  0.00    +0.000 C 
ATOM      5  C   UNL     1      24.188  -3.396  31.082  0.00  0.00    +0.000 C 
ATOM      6  C   UNL     1      23.388  -2.467  31.954  0.00  0.00    +0.000 C 
ATOM      7  C   UNL     1      21.970  -2.784  32.486  0.00  0.00    +0.000 C 
ATOM      8  C   UNL     1      25.597  -1.118  31.943  0.00  0.00    +0.000 C 
ATOM      9  C   UNL     1      27.205  -1.384  29.874  0.00  0.00    +0.000 C 
ATOM     10  C   UNL     1      24.148  -1.320  32.311  0.00  0.00    +0.000 C 
ATOM     11  C   UNL     1      26.016  -3.550  29.342  0.00  0.00    +0.000 C 
ATOM     12  C   UNL     1      23.410  -4.467  30.585  0.00  0.00    +0.000 C 
ATOM     13  C   UNL     1      26.984  -2.486  28.915  0.00  0.00    +0.000 C 
ATOM     14  C   UNL     1      21.142  -3.935  31.622  0.00  0.00    +0.000 C 
ATOM     15  C   UNL     1      27.533  -2.686  32.208  0.00  0.00    +0.000 C 
ATOM     16  C   UNL     1      21.957  -4.762  30.812  0.00  0.00    +0.000 C 
ATOM     17  C   UNL     1      21.096  -1.562  32.384  0.00  0.00    +0.000 C 
ATOM     18  C   UNL     1      22.071  -3.296  33.951  0.00  0.00    +0.000 C 
ATOM     19  C   UNL     1      19.959  -3.589  31.164  0.00  0.00    +0.000 C 
ATOM     20  C   UNL     1      19.816  -1.283  31.821  0.00  0.00    +0.000 A 
ATOM     21  C   UNL     1      19.252  -2.364  31.201  0.00  0.00    +0.000 A 
ATOM     22  C   UNL     1      18.874  -0.272  31.658  0.00  0.00    +0.000 A 
ENDROOT
BRANCH   9  23
ATOM     23  O   UNL     1      28.614  -1.127  29.980  0.00  0.00    +0.000 OA
ATOM     24  H   UNL     1      28.897  -0.698  29.154  0.00  0.00    +0.000 HD
ENDBRANCH   9  23
BRANCH   9  25
ATOM     25  C   UNL     1      26.511  -0.147  29.439  0.00  0.00    +0.000 C 
ATOM     26  C   UNL     1      25.975   0.862  29.087  0.00  0.00    +0.000 C 
ENDBRANCH   9  25
TORSDOF 2
ENDMDL
MODEL 6
REMARK VINA RESULT:      -5.9     27.690     31.744
REMARK  Name = Danazol.pdbqt.pdb
REMARK  2 active torsions:
REMARK  status: ('A' for Active; 'I' for Inactive)
REMARK    1  A    between atoms: C_9  and  O_23
REMARK    2  A    between atoms: C_9  and  C_25
REMARK                            x       y       z     vdW  Elec       q    Type
REMARK                         _______ _______ _______ _____ _____    ______ ____
ROOT
ATOM      1  O   UNL     1      19.317  -0.758  34.580  0.00  0.00    +0.000 OA
ATOM      2  N   UNL     1      19.607   0.450  35.249  0.00  0.00    +0.000 NA
ATOM      3  C   UNL     1      25.342  -2.741  30.372  0.00  0.00    +0.000 C 
ATOM      4  C   UNL     1      26.716  -1.921  30.609  0.00  0.00    +0.000 C 
ATOM      5  C   UNL     1      24.309  -2.890  31.415  0.00  0.00    +0.000 C 
ATOM      6  C   UNL     1      24.293  -2.206  32.755  0.00  0.00    +0.000 C 
ATOM      7  C   UNL     1      23.259  -2.503  33.866  0.00  0.00    +0.000 C 
ATOM      8  C   UNL     1      26.519  -1.212  31.883  0.00  0.00    +0.000 C 
ATOM      9  C   UNL     1      26.841  -0.982  29.279  0.00  0.00    +0.000 C 
ATOM     10  C   UNL     1      25.413  -1.342  32.901  0.00  0.00    +0.000 C 
ATOM     11  C   UNL     1      25.001  -2.690  28.990  0.00  0.00    +0.000 C 
ATOM     12  C   UNL     1      23.131  -3.634  31.179  0.00  0.00    +0.000 C 
ATOM     13  C   UNL     1      25.909  -1.674  28.364  0.00  0.00    +0.000 C 
ATOM     14  C   UNL     1      21.846  -3.196  33.338  0.00  0.00    +0.000 C 
ATOM     15  C   UNL     1      27.845  -3.006  30.744  0.00  0.00    +0.000 C 
ATOM     16  C   UNL     1      21.932  -3.807  32.062  0.00  0.00    +0.000 C 
ATOM     17  C   UNL     1      22.809  -1.217  34.508  0.00  0.00    +0.000 C 
ATOM     18  C   UNL     1      23.884  -3.474  34.908  0.00  0.00    +0.000 C 
ATOM     19  C   UNL     1      20.731  -2.576  33.656  0.00  0.00    +0.000 C 
ATOM     20  C   UNL     1      21.545  -0.613  34.775  0.00  0.00    +0.000 A 
ATOM     21  C   UNL     1      20.487  -1.354  34.324  0.00  0.00    +0.000 A 
ATOM     22  C   UNL     1      20.952   0.503  35.356  0.00  0.00    +0.000 A 
ENDROOT
BRANCH   9  23
ATOM     23  O   UNL     1      28.148  -0.950  28.684  0.00  0.00    +0.000 OA
ATOM     24  H   UNL     1      28.177  -0.189  28.079  0.00  0.00    +0.000 HD
ENDBRANCH   9  23
BRANCH   9  25
ATOM     25  C   UNL     1      26.392   0.405  29.555  0.00  0.00    +0.000 C 
ATOM     26  C   UNL     1      26.012   1.519  29.758  0.00  0.00    +0.000 C 
ENDBRANCH   9  25
TORSDOF 2
ENDMDL
MODEL 7
REMARK VINA RESULT:      -5.8     19.018     21.241
REMARK  Name = Danazol.pdbqt.pdb
REMARK  2 active torsions:
REMARK  status: ('A' for Active; 'I' for Inactive)
REMARK    1  A    between atoms: C_9  and  O_23
REMARK    2  A    between atoms: C_9  and  C_25
REMARK                            x       y       z     vdW  Elec       q    Type
REMARK                         _______ _______ _______ _____ _____    ______ ____
ROOT
ATOM      1  O   UNL     1      44.526  15.805  20.424  0.00  0.00    +0.000 OA
ATOM      2  N   UNL     1      44.612  16.142  21.792  0.00  0.00    +0.000 NA
ATOM      3  C   UNL     1      39.629  10.033  19.622  0.00  0.00    +0.000 C 
ATOM      4  C   UNL     1      38.732   9.635  20.909  0.00  0.00    +0.000 C 
ATOM      5  C   UNL     1      40.171  11.389  19.413  0.00  0.00    +0.000 C 
ATOM      6  C   UNL     1      40.113  12.530  20.393  0.00  0.00    +0.000 C 
ATOM      7  C   UNL     1      40.575  13.971  20.071  0.00  0.00    +0.000 C 
ATOM      8  C   UNL     1      38.860  10.778  21.827  0.00  0.00    +0.000 C 
ATOM      9  C   UNL     1      39.388   8.230  21.418  0.00  0.00    +0.000 C 
ATOM     10  C   UNL     1      39.480  12.134  21.602  0.00  0.00    +0.000 C 
ATOM     11  C   UNL     1      40.320   8.877  19.159  0.00  0.00    +0.000 C 
ATOM     12  C   UNL     1      40.931  11.706  18.264  0.00  0.00    +0.000 C 
ATOM     13  C   UNL     1      40.143   7.825  20.214  0.00  0.00    +0.000 C 
ATOM     14  C   UNL     1      41.639  14.097  18.802  0.00  0.00    +0.000 C 
ATOM     15  C   UNL     1      37.257   9.507  20.380  0.00  0.00    +0.000 C 
ATOM     16  C   UNL     1      41.650  12.979  17.932  0.00  0.00    +0.000 C 
ATOM     17  C   UNL     1      41.340  14.539  21.237  0.00  0.00    +0.000 C 
ATOM     18  C   UNL     1      39.337  14.844  19.718  0.00  0.00    +0.000 C 
ATOM     19  C   UNL     1      42.779  14.705  19.048  0.00  0.00    +0.000 C 
ATOM     20  C   UNL     1      42.615  15.157  21.401  0.00  0.00    +0.000 A 
ATOM     21  C   UNL     1      43.331  15.232  20.238  0.00  0.00    +0.000 A 
ATOM     22  C   UNL     1      43.447  15.745  22.348  0.00  0.00    +0.000 A 
ENDROOT
BRANCH   9  23
ATOM     23  O   UNL     1      38.438   7.204  21.745  0.00  0.00    +0.000 OA
ATOM     24  H   UNL     1      38.219   7.296  22.689  0.00  0.00    +0.000 HD
ENDBRANCH   9  23
BRANCH   9  25
ATOM     25  C   UNL     1      40.295   8.447  22.572  0.00  0.00    +0.000 C 
ATOM     26  C   UNL     1      41.030   8.595  23.503  0.00  0.00    +0.000 C 
ENDBRANCH   9  25
TORSDOF 2
ENDMDL
MODEL 8
REMARK VINA RESULT:      -5.8      3.620      5.102
REMARK  Name = Danazol.pdbqt.pdb
REMARK  2 active torsions:
REMARK  status: ('A' for Active; 'I' for Inactive)
REMARK    1  A    between atoms: C_9  and  O_23
REMARK    2  A    between atoms: C_9  and  C_25
REMARK                            x       y       z     vdW  Elec       q    Type
REMARK                         _______ _______ _______ _____ _____    ______ ____
ROOT
ATOM      1  O   UNL     1      51.505  -5.097  10.316  0.00  0.00    +0.000 OA
ATOM      2  N   UNL     1      51.977  -4.403   9.182  0.00  0.00    +0.000 NA
ATOM      3  C   UNL     1      45.496  -1.376  13.142  0.00  0.00    +0.000 C 
ATOM      4  C   UNL     1      44.867  -0.189  12.242  0.00  0.00    +0.000 C 
ATOM      5  C   UNL     1      46.235  -2.514  12.562  0.00  0.00    +0.000 C 
ATOM      6  C   UNL     1      46.642  -2.668  11.122  0.00  0.00    +0.000 C 
ATOM      7  C   UNL     1      47.296  -3.944  10.539  0.00  0.00    +0.000 C 
ATOM      8  C   UNL     1      45.435  -0.390  10.900  0.00  0.00    +0.000 C 
ATOM      9  C   UNL     1      45.327   1.171  13.018  0.00  0.00    +0.000 C 
ATOM     10  C   UNL     1      46.245  -1.539  10.355  0.00  0.00    +0.000 C 
ATOM     11  C   UNL     1      45.810  -0.866  14.434  0.00  0.00    +0.000 C 
ATOM     12  C   UNL     1      46.751  -3.546  13.379  0.00  0.00    +0.000 C 
ATOM     13  C   UNL     1      45.679   0.626  14.346  0.00  0.00    +0.000 C 
ATOM     14  C   UNL     1      48.033  -4.924  11.658  0.00  0.00    +0.000 C 
ATOM     15  C   UNL     1      43.314  -0.434  12.232  0.00  0.00    +0.000 C 
ATOM     16  C   UNL     1      47.613  -4.711  12.994  0.00  0.00    +0.000 C 
ATOM     17  C   UNL     1      48.413  -3.567   9.601  0.00  0.00    +0.000 C 
ATOM     18  C   UNL     1      46.212  -4.799   9.824  0.00  0.00    +0.000 C 
ATOM     19  C   UNL     1      49.297  -5.216  11.443  0.00  0.00    +0.000 C 
ATOM     20  C   UNL     1      49.788  -3.924   9.479  0.00  0.00    +0.000 A 
ATOM     21  C   UNL     1      50.210  -4.789  10.450  0.00  0.00    +0.000 A 
ATOM     22  C   UNL     1      50.921  -3.714   8.699  0.00  0.00    +0.000 A 
ENDROOT
BRANCH   9  23
ATOM     23  O   UNL     1      44.294   2.157  13.174  0.00  0.00    +0.000 OA
ATOM     24  H   UNL     1      43.570   1.747  13.679  0.00  0.00    +0.000 HD
ENDBRANCH   9  23
BRANCH   9  25
ATOM     25  C   UNL     1      46.505   1.792  12.364  0.00  0.00    +0.000 C 
ATOM     26  C   UNL     1      47.462   2.302  11.861  0.00  0.00    +0.000 C 
ENDBRANCH   9  25
TORSDOF 2
ENDMDL
MODEL 9
REMARK VINA RESULT:      -5.3     36.699     39.923
REMARK  Name = Danazol.pdbqt.pdb
REMARK  2 active torsions:
REMARK  status: ('A' for Active; 'I' for Inactive)
REMARK    1  A    between atoms: C_9  and  O_23
REMARK    2  A    between atoms: C_9  and  C_25
REMARK                            x       y       z     vdW  Elec       q    Type
REMARK                         _______ _______ _______ _____ _____    ______ ____
ROOT
ATOM      1  O   UNL     1      24.516  29.608   0.069  0.00  0.00    +0.000 OA
ATOM      2  N   UNL     1      25.554  29.581  -0.887  0.00  0.00    +0.000 NA
ATOM      3  C   UNL     1      22.625  22.449   1.837  0.00  0.00    +0.000 C 
ATOM      4  C   UNL     1      23.599  21.272   1.307  0.00  0.00    +0.000 C 
ATOM      5  C   UNL     1      23.095  23.827   2.081  0.00  0.00    +0.000 C 
ATOM      6  C   UNL     1      24.455  24.375   1.745  0.00  0.00    +0.000 C 
ATOM      7  C   UNL     1      24.943  25.787   2.146  0.00  0.00    +0.000 C 
ATOM      8  C   UNL     1      24.837  21.956   0.905  0.00  0.00    +0.000 C 
ATOM      9  C   UNL     1      22.743  20.573   0.105  0.00  0.00    +0.000 C 
ATOM     10  C   UNL     1      25.262  23.388   1.113  0.00  0.00    +0.000 C 
ATOM     11  C   UNL     1      21.294  22.184   1.407  0.00  0.00    +0.000 C 
ATOM     12  C   UNL     1      22.220  24.825   2.567  0.00  0.00    +0.000 C 
ATOM     13  C   UNL     1      21.383  21.064   0.413  0.00  0.00    +0.000 C 
ATOM     14  C   UNL     1      23.735  26.875   2.478  0.00  0.00    +0.000 C 
ATOM     15  C   UNL     1      23.855  20.338   2.546  0.00  0.00    +0.000 C 
ATOM     16  C   UNL     1      22.479  26.288   2.770  0.00  0.00    +0.000 C 
ATOM     17  C   UNL     1      25.689  26.419   1.000  0.00  0.00    +0.000 C 
ATOM     18  C   UNL     1      25.830  25.684   3.419  0.00  0.00    +0.000 C 
ATOM     19  C   UNL     1      23.751  28.000   1.798  0.00  0.00    +0.000 C 
ATOM     20  C   UNL     1      25.599  27.658   0.301  0.00  0.00    +0.000 A 
ATOM     21  C   UNL     1      24.583  28.458   0.750  0.00  0.00    +0.000 A 
ATOM     22  C   UNL     1      26.188  28.402  -0.717  0.00  0.00    +0.000 A 
ENDROOT
BRANCH   9  23
ATOM     23  O   UNL     1      22.740  19.137   0.121  0.00  0.00    +0.000 OA
ATOM     24  H   UNL     1      22.770  18.854   1.052  0.00  0.00    +0.000 HD
ENDBRANCH   9  23
BRANCH   9  25
ATOM     25  C   UNL     1      23.197  21.050  -1.225  0.00  0.00    +0.000 C 
ATOM     26  C   UNL     1      23.536  21.430  -2.306  0.00  0.00    +0.000 C 
ENDBRANCH   9  25
TORSDOF 2
ENDMDL
