MODEL 1
REMARK VINA RESULT:      -7.0      0.000      0.000
REMARK  Name = Dasatinib.pdbqt.pdb
REMARK  5 active torsions:
REMARK  status: ('A' for Active; 'I' for Inactive)
REMARK    1  A    between atoms: N_1  and  C_3
REMARK    2  A    between atoms: N_13  and  C_16
REMARK    3  A    between atoms: C_17  and  O_18
REMARK    4  A    between atoms: C_22  and  C_25
REMARK    5  A    between atoms: N_27  and  C_29
REMARK                            x       y       z     vdW  Elec       q    Type
REMARK                         _______ _______ _______ _____ _____    ______ ____
ROOT
ATOM      1  N   UNL     1      26.735  23.289  -2.052  0.00  0.00    +0.000 N 
ATOM      2  H   UNL     1      26.155  23.486  -2.858  0.00  0.00    +0.000 HD
ATOM      3  C   UNL     1      28.071  23.253  -2.270  0.00  0.00    +0.000 A 
ATOM      4  S   UNL     1      28.657  23.391  -3.891  0.00  0.00    +0.000 S 
ATOM      5  C   UNL     1      30.269  23.244  -3.329  0.00  0.00    +0.000 A 
ATOM      6  C   UNL     1      30.246  23.090  -1.963  0.00  0.00    +0.000 A 
ATOM      7  N   UNL     1      29.010  23.067  -1.369  0.00  0.00    +0.000 NA
ENDROOT
BRANCH   1   8
ATOM      8  C   UNL     1      26.132  23.669  -0.833  0.00  0.00    +0.000 A 
ATOM      9  N   UNL     1      26.245  24.913  -0.351  0.00  0.00    +0.000 NA
ATOM     10  C   UNL     1      25.687  25.161   0.839  0.00  0.00    +0.000 A 
ATOM     11  N   UNL     1      25.011  24.275   1.579  0.00  0.00    +0.000 NA
ATOM     12  C   UNL     1      25.792  26.558   1.376  0.00  0.00    +0.000 C 
ATOM     13  C   UNL     1      24.888  23.031   1.083  0.00  0.00    +0.000 A 
ATOM     14  C   UNL     1      25.456  22.687  -0.133  0.00  0.00    +0.000 A 
ATOM     15  N   UNL     1      24.221  22.026   1.833  0.00  0.00    +0.000 N 
ATOM     16  C   UNL     1      23.445  20.995   1.093  0.00  0.00    +0.000 C 
ATOM     17  C   UNL     1      21.982  20.537   1.339  0.00  0.00    +0.000 C 
ATOM     18  N   UNL     1      20.944  20.954   2.323  0.00  0.00    +0.000 N 
ATOM     19  C   UNL     1      21.771  21.973   3.028  0.00  0.00    +0.000 C 
ATOM     20  C   UNL     1      23.226  22.478   2.840  0.00  0.00    +0.000 C 
BRANCH  18  21
ATOM     21  C   UNL     1      20.774  19.841   3.247  0.00  0.00    +0.000 C 
ATOM     22  C   UNL     1      20.592  18.669   4.221  0.00  0.00    +0.000 C 
BRANCH  22  23
ATOM     23  O   UNL     1      20.434  17.657   5.065  0.00  0.00    +0.000 OA
ATOM     24  H   UNL     1      19.500  17.570   5.319  0.00  0.00    +0.000 HD
ENDBRANCH  22  23
ENDBRANCH  18  21
ENDBRANCH   1   8
BRANCH   5  25
ATOM     25  C   UNL     1      31.388  23.304  -4.242  0.00  0.00    +0.000 C 
ATOM     26  O   UNL     1      31.259  23.411  -5.459  0.00  0.00    +0.000 OA
ATOM     27  N   UNL     1      32.629  23.145  -3.638  0.00  0.00    +0.000 N 
ATOM     28  H   UNL     1      32.641  22.558  -2.804  0.00  0.00    +0.000 HD
BRANCH  27  29
ATOM     29  C   UNL     1      33.870  23.184  -4.345  0.00  0.00    +0.000 A 
ATOM     30  C   UNL     1      34.562  24.412  -4.393  0.00  0.00    +0.000 A 
ATOM     31  C   UNL     1      35.794  24.527  -5.034  0.00  0.00    +0.000 A 
ATOM     32  C   UNL     1      33.989  25.646  -3.727  0.00  0.00    +0.000 C 
ATOM     33  C   UNL     1      36.354  23.421  -5.661  0.00  0.00    +0.000 A 
ATOM     34  C   UNL     1      35.656  22.219  -5.684  0.00  0.00    +0.000 A 
ATOM     35  C   UNL     1      34.420  22.096  -5.042  0.00  0.00    +0.000 A 
ATOM     36 CL   UNL     1      33.550  20.641  -5.384  0.00  0.00    +0.000 Cl
ENDBRANCH  27  29
ENDBRANCH   5  25
TORSDOF 5
ENDMDL
MODEL 2
REMARK VINA RESULT:      -6.6     32.893     37.428
REMARK  Name = Dasatinib.pdbqt.pdb
REMARK  5 active torsions:
REMARK  status: ('A' for Active; 'I' for Inactive)
REMARK    1  A    between atoms: N_1  and  C_3
REMARK    2  A    between atoms: N_13  and  C_16
REMARK    3  A    between atoms: C_17  and  O_18
REMARK    4  A    between atoms: C_22  and  C_25
REMARK    5  A    between atoms: N_27  and  C_29
REMARK                            x       y       z     vdW  Elec       q    Type
REMARK                         _______ _______ _______ _____ _____    ______ ____
ROOT
ATOM      1  N   UNL     1      28.936  16.960  36.558  0.00  0.00    +0.000 N 
ATOM      2  H   UNL     1      28.368  16.941  37.396  0.00  0.00    +0.000 HD
ATOM      3  C   UNL     1      28.357  17.487  35.454  0.00  0.00    +0.000 A 
ATOM      4  S   UNL     1      26.687  17.934  35.518  0.00  0.00    +0.000 S 
ATOM      5  C   UNL     1      26.749  18.434  33.881  0.00  0.00    +0.000 A 
ATOM      6  C   UNL     1      28.019  18.217  33.404  0.00  0.00    +0.000 A 
ATOM      7  N   UNL     1      28.917  17.658  34.278  0.00  0.00    +0.000 NA
ENDROOT
BRANCH   1   8
ATOM      8  C   UNL     1      30.321  16.998  36.832  0.00  0.00    +0.000 A 
ATOM      9  N   UNL     1      31.019  15.885  37.080  0.00  0.00    +0.000 NA
ATOM     10  C   UNL     1      32.314  16.029  37.384  0.00  0.00    +0.000 A 
ATOM     11  N   UNL     1      32.972  17.192  37.445  0.00  0.00    +0.000 NA
ATOM     12  C   UNL     1      33.108  14.783  37.645  0.00  0.00    +0.000 C 
ATOM     13  C   UNL     1      32.268  18.307  37.180  0.00  0.00    +0.000 A 
ATOM     14  C   UNL     1      30.917  18.245  36.877  0.00  0.00    +0.000 A 
ATOM     15  N   UNL     1      32.890  19.581  37.266  0.00  0.00    +0.000 N 
ATOM     16  C   UNL     1      32.449  20.644  36.323  0.00  0.00    +0.000 C 
ATOM     17  C   UNL     1      33.331  21.547  35.419  0.00  0.00    +0.000 C 
ATOM     18  N   UNL     1      34.803  21.638  35.207  0.00  0.00    +0.000 N 
ATOM     19  C   UNL     1      35.183  20.565  36.168  0.00  0.00    +0.000 C 
ATOM     20  C   UNL     1      34.366  19.630  37.097  0.00  0.00    +0.000 C 
BRANCH  18  21
ATOM     21  C   UNL     1      35.233  22.899  35.796  0.00  0.00    +0.000 C 
ATOM     22  C   UNL     1      35.688  24.226  36.415  0.00  0.00    +0.000 C 
BRANCH  22  23
ATOM     23  O   UNL     1      36.085  25.374  36.952  0.00  0.00    +0.000 OA
ATOM     24  H   UNL     1      36.666  25.853  36.337  0.00  0.00    +0.000 HD
ENDBRANCH  22  23
ENDBRANCH  18  21
ENDBRANCH   1   8
BRANCH   5  25
ATOM     25  C   UNL     1      25.589  18.993  33.225  0.00  0.00    +0.000 C 
ATOM     26  O   UNL     1      24.944  19.932  33.684  0.00  0.00    +0.000 OA
ATOM     27  N   UNL     1      25.209  18.326  32.067  0.00  0.00    +0.000 N 
ATOM     28  H   UNL     1      25.414  17.327  32.047  0.00  0.00    +0.000 HD
BRANCH  27  29
ATOM     29  C   UNL     1      24.102  18.714  31.251  0.00  0.00    +0.000 A 
ATOM     30  C   UNL     1      22.866  18.068  31.466  0.00  0.00    +0.000 A 
ATOM     31  C   UNL     1      21.730  18.411  30.736  0.00  0.00    +0.000 A 
ATOM     32  C   UNL     1      22.735  16.988  32.520  0.00  0.00    +0.000 C 
ATOM     33  C   UNL     1      21.808  19.394  29.758  0.00  0.00    +0.000 A 
ATOM     34  C   UNL     1      23.031  19.994  29.483  0.00  0.00    +0.000 A 
ATOM     35  C   UNL     1      24.175  19.656  30.211  0.00  0.00    +0.000 A 
ATOM     36 CL   UNL     1      25.663  20.272  29.583  0.00  0.00    +0.000 Cl
ENDBRANCH  27  29
ENDBRANCH   5  25
TORSDOF 5
ENDMDL
MODEL 3
REMARK VINA RESULT:      -6.4     27.884     32.446
REMARK  Name = Dasatinib.pdbqt.pdb
REMARK  5 active torsions:
REMARK  status: ('A' for Active; 'I' for Inactive)
REMARK    1  A    between atoms: N_1  and  C_3
REMARK    2  A    between atoms: N_13  and  C_16
REMARK    3  A    between atoms: C_17  and  O_18
REMARK    4  A    between atoms: C_22  and  C_25
REMARK    5  A    between atoms: N_27  and  C_29
REMARK                            x       y       z     vdW  Elec       q    Type
REMARK                         _______ _______ _______ _____ _____    ______ ____
ROOT
ATOM      1  N   UNL     1      22.284  27.153  32.024  0.00  0.00    +0.000 N 
ATOM      2  H   UNL     1      21.336  27.077  32.371  0.00  0.00    +0.000 HD
ATOM      3  C   UNL     1      22.932  25.987  31.794  0.00  0.00    +0.000 A 
ATOM      4  S   UNL     1      22.167  24.503  32.242  0.00  0.00    +0.000 S 
ATOM      5  C   UNL     1      23.528  23.623  31.686  0.00  0.00    +0.000 A 
ATOM      6  C   UNL     1      24.463  24.513  31.214  0.00  0.00    +0.000 A 
ATOM      7  N   UNL     1      24.142  25.844  31.300  0.00  0.00    +0.000 NA
ENDROOT
BRANCH   1   8
ATOM      8  C   UNL     1      22.518  28.353  31.317  0.00  0.00    +0.000 A 
ATOM      9  N   UNL     1      23.304  29.317  31.810  0.00  0.00    +0.000 NA
ATOM     10  C   UNL     1      23.418  30.440  31.092  0.00  0.00    +0.000 A 
ATOM     11  N   UNL     1      22.826  30.672  29.914  0.00  0.00    +0.000 NA
ATOM     12  C   UNL     1      24.313  31.518  31.629  0.00  0.00    +0.000 C 
ATOM     13  C   UNL     1      22.051  29.693  29.417  0.00  0.00    +0.000 A 
ATOM     14  C   UNL     1      21.863  28.507  30.110  0.00  0.00    +0.000 A 
ATOM     15  N   UNL     1      21.357  29.885  28.192  0.00  0.00    +0.000 N 
ATOM     16  C   UNL     1      21.162  28.709  27.303  0.00  0.00    +0.000 C 
ATOM     17  C   UNL     1      21.472  28.595  25.786  0.00  0.00    +0.000 C 
ATOM     18  N   UNL     1      22.032  29.553  24.792  0.00  0.00    +0.000 N 
ATOM     19  C   UNL     1      22.201  30.697  25.731  0.00  0.00    +0.000 C 
ATOM     20  C   UNL     1      21.916  30.884  27.244  0.00  0.00    +0.000 C 
BRANCH  18  21
ATOM     21  C   UNL     1      20.942  29.907  23.893  0.00  0.00    +0.000 C 
ATOM     22  C   UNL     1      19.794  30.281  22.947  0.00  0.00    +0.000 C 
BRANCH  22  23
ATOM     23  O   UNL     1      18.799  30.606  22.131  0.00  0.00    +0.000 OA
ATOM     24  H   UNL     1      19.107  30.622  21.209  0.00  0.00    +0.000 HD
ENDBRANCH  22  23
ENDBRANCH  18  21
ENDBRANCH   1   8
BRANCH   5  25
ATOM     25  C   UNL     1      23.560  22.179  31.742  0.00  0.00    +0.000 C 
ATOM     26  O   UNL     1      23.862  21.552  32.755  0.00  0.00    +0.000 OA
ATOM     27  N   UNL     1      23.303  21.553  30.529  0.00  0.00    +0.000 N 
ATOM     28  H   UNL     1      23.589  22.069  29.698  0.00  0.00    +0.000 HD
BRANCH  27  29
ATOM     29  C   UNL     1      23.269  20.135  30.357  0.00  0.00    +0.000 A 
ATOM     30  C   UNL     1      22.024  19.485  30.489  0.00  0.00    +0.000 A 
ATOM     31  C   UNL     1      21.899  18.109  30.304  0.00  0.00    +0.000 A 
ATOM     32  C   UNL     1      20.775  20.275  30.820  0.00  0.00    +0.000 C 
ATOM     33  C   UNL     1      23.021  17.348  30.002  0.00  0.00    +0.000 A 
ATOM     34  C   UNL     1      24.268  17.958  29.935  0.00  0.00    +0.000 A 
ATOM     35  C   UNL     1      24.401  19.338  30.119  0.00  0.00    +0.000 A 
ATOM     36 CL   UNL     1      26.024  19.910  30.279  0.00  0.00    +0.000 Cl
ENDBRANCH  27  29
ENDBRANCH   5  25
TORSDOF 5
ENDMDL
MODEL 4
REMARK VINA RESULT:      -6.3     26.178     27.900
REMARK  Name = Dasatinib.pdbqt.pdb
REMARK  5 active torsions:
REMARK  status: ('A' for Active; 'I' for Inactive)
REMARK    1  A    between atoms: N_1  and  C_3
REMARK    2  A    between atoms: N_13  and  C_16
REMARK    3  A    between atoms: C_17  and  O_18
REMARK    4  A    between atoms: C_22  and  C_25
REMARK    5  A    between atoms: N_27  and  C_29
REMARK                            x       y       z     vdW  Elec       q    Type
REMARK                         _______ _______ _______ _____ _____    ______ ____
ROOT
ATOM      1  N   UNL     1      17.518  31.117  23.583  0.00  0.00    +0.000 N 
ATOM      2  H   UNL     1      16.963  31.225  24.423  0.00  0.00    +0.000 HD
ATOM      3  C   UNL     1      18.751  30.583  23.746  0.00  0.00    +0.000 A 
ATOM      4  S   UNL     1      19.326  30.278  25.349  0.00  0.00    +0.000 S 
ATOM      5  C   UNL     1      20.806  29.691  24.716  0.00  0.00    +0.000 A 
ATOM      6  C   UNL     1      20.762  29.779  23.345  0.00  0.00    +0.000 A 
ATOM      7  N   UNL     1      19.620  30.306  22.799  0.00  0.00    +0.000 NA
ENDROOT
BRANCH   1   8
ATOM      8  C   UNL     1      16.733  30.979  22.418  0.00  0.00    +0.000 A 
ATOM      9  N   UNL     1      16.710  31.924  21.470  0.00  0.00    +0.000 NA
ATOM     10  C   UNL     1      15.892  31.728  20.431  0.00  0.00    +0.000 A 
ATOM     11  N   UNL     1      15.108  30.659  20.250  0.00  0.00    +0.000 NA
ATOM     12  C   UNL     1      15.876  32.774  19.355  0.00  0.00    +0.000 C 
ATOM     13  C   UNL     1      15.147  29.706  21.198  0.00  0.00    +0.000 A 
ATOM     14  C   UNL     1      15.952  29.843  22.318  0.00  0.00    +0.000 A 
ATOM     15  N   UNL     1      14.310  28.563  21.095  0.00  0.00    +0.000 N 
ATOM     16  C   UNL     1      14.825  27.266  21.611  0.00  0.00    +0.000 C 
ATOM     17  C   UNL     1      14.853  25.892  20.889  0.00  0.00    +0.000 C 
ATOM     18  N   UNL     1      14.413  25.450  19.536  0.00  0.00    +0.000 N 
ATOM     19  C   UNL     1      13.911  26.775  19.076  0.00  0.00    +0.000 C 
ATOM     20  C   UNL     1      13.850  28.178  19.735  0.00  0.00    +0.000 C 
BRANCH  18  21
ATOM     21  C   UNL     1      13.243  24.605  19.733  0.00  0.00    +0.000 C 
ATOM     22  C   UNL     1      12.012  23.713  19.940  0.00  0.00    +0.000 C 
BRANCH  22  23
ATOM     23  O   UNL     1      10.949  22.940  20.121  0.00  0.00    +0.000 OA
ATOM     24  H   UNL     1      10.434  22.873  19.299  0.00  0.00    +0.000 HD
ENDBRANCH  22  23
ENDBRANCH  18  21
ENDBRANCH   1   8
BRANCH   5  25
ATOM     25  C   UNL     1      21.848  29.196  25.586  0.00  0.00    +0.000 C 
ATOM     26  O   UNL     1      22.162  28.010  25.653  0.00  0.00    +0.000 OA
ATOM     27  N   UNL     1      22.415  30.162  26.408  0.00  0.00    +0.000 N 
ATOM     28  H   UNL     1      21.796  30.924  26.683  0.00  0.00    +0.000 HD
BRANCH  27  29
ATOM     29  C   UNL     1      23.470  29.900  27.335  0.00  0.00    +0.000 A 
ATOM     30  C   UNL     1      24.789  30.196  26.933  0.00  0.00    +0.000 A 
ATOM     31  C   UNL     1      25.872  30.001  27.788  0.00  0.00    +0.000 A 
ATOM     32  C   UNL     1      25.065  30.759  25.553  0.00  0.00    +0.000 C 
ATOM     33  C   UNL     1      25.662  29.484  29.060  0.00  0.00    +0.000 A 
ATOM     34  C   UNL     1      24.378  29.121  29.452  0.00  0.00    +0.000 A 
ATOM     35  C   UNL     1      23.288  29.315  28.599  0.00  0.00    +0.000 A 
ATOM     36 CL   UNL     1      21.811  28.572  29.104  0.00  0.00    +0.000 Cl
ENDBRANCH  27  29
ENDBRANCH   5  25
TORSDOF 5
ENDMDL
MODEL 5
REMARK VINA RESULT:      -6.2      7.830     12.905
REMARK  Name = Dasatinib.pdbqt.pdb
REMARK  5 active torsions:
REMARK  status: ('A' for Active; 'I' for Inactive)
REMARK    1  A    between atoms: N_1  and  C_3
REMARK    2  A    between atoms: N_13  and  C_16
REMARK    3  A    between atoms: C_17  and  O_18
REMARK    4  A    between atoms: C_22  and  C_25
REMARK    5  A    between atoms: N_27  and  C_29
REMARK                            x       y       z     vdW  Elec       q    Type
REMARK                         _______ _______ _______ _____ _____    ______ ____
ROOT
ATOM      1  N   UNL     1      16.564  18.269   4.672  0.00  0.00    +0.000 N 
ATOM      2  H   UNL     1      16.871  17.589   5.357  0.00  0.00    +0.000 HD
ATOM      3  C   UNL     1      17.536  18.871   3.948  0.00  0.00    +0.000 A 
ATOM      4  S   UNL     1      19.190  18.556   4.344  0.00  0.00    +0.000 S 
ATOM      5  C   UNL     1      19.700  19.615   3.097  0.00  0.00    +0.000 A 
ATOM      6  C   UNL     1      18.586  20.136   2.482  0.00  0.00    +0.000 A 
ATOM      7  N   UNL     1      17.370  19.742   2.978  0.00  0.00    +0.000 NA
ENDROOT
BRANCH   1   8
ATOM      8  C   UNL     1      15.253  18.029   4.207  0.00  0.00    +0.000 A 
ATOM      9  N   UNL     1      14.250  18.876   4.464  0.00  0.00    +0.000 NA
ATOM     10  C   UNL     1      13.032  18.532   4.030  0.00  0.00    +0.000 A 
ATOM     11  N   UNL     1      12.736  17.422   3.346  0.00  0.00    +0.000 NA
ATOM     12  C   UNL     1      11.906  19.488   4.299  0.00  0.00    +0.000 C 
ATOM     13  C   UNL     1      13.751  16.582   3.077  0.00  0.00    +0.000 A 
ATOM     14  C   UNL     1      15.039  16.854   3.510  0.00  0.00    +0.000 A 
ATOM     15  N   UNL     1      13.505  15.362   2.391  0.00  0.00    +0.000 N 
ATOM     16  C   UNL     1      14.556  14.848   1.472  0.00  0.00    +0.000 C 
ATOM     17  C   UNL     1      14.394  14.379   0.001  0.00  0.00    +0.000 C 
ATOM     18  N   UNL     1      13.220  14.299  -0.913  0.00  0.00    +0.000 N 
ATOM     19  C   UNL     1      12.212  14.817   0.054  0.00  0.00    +0.000 C 
ATOM     20  C   UNL     1      12.299  15.301   1.525  0.00  0.00    +0.000 C 
BRANCH  18  21
ATOM     21  C   UNL     1      12.931  12.884  -1.100  0.00  0.00    +0.000 C 
ATOM     22  C   UNL     1      12.626  11.393  -1.295  0.00  0.00    +0.000 C 
BRANCH  22  23
ATOM     23  O   UNL     1      12.360  10.103  -1.462  0.00  0.00    +0.000 OA
ATOM     24  H   UNL     1      12.357   9.877  -2.407  0.00  0.00    +0.000 HD
ENDBRANCH  22  23
ENDBRANCH  18  21
ENDBRANCH   1   8
BRANCH   5  25
ATOM     25  C   UNL     1      21.103  19.829   2.823  0.00  0.00    +0.000 C 
ATOM     26  O   UNL     1      21.988  19.074   3.219  0.00  0.00    +0.000 OA
ATOM     27  N   UNL     1      21.380  21.009   2.144  0.00  0.00    +0.000 N 
ATOM     28  H   UNL     1      20.739  21.781   2.323  0.00  0.00    +0.000 HD
BRANCH  27  29
ATOM     29  C   UNL     1      22.694  21.414   1.757  0.00  0.00    +0.000 A 
ATOM     30  C   UNL     1      23.309  22.447   2.495  0.00  0.00    +0.000 A 
ATOM     31  C   UNL     1      24.602  22.879   2.204  0.00  0.00    +0.000 A 
ATOM     32  C   UNL     1      22.582  23.107   3.649  0.00  0.00    +0.000 C 
ATOM     33  C   UNL     1      25.302  22.302   1.152  0.00  0.00    +0.000 A 
ATOM     34  C   UNL     1      24.689  21.331   0.368  0.00  0.00    +0.000 A 
ATOM     35  C   UNL     1      23.393  20.893   0.655  0.00  0.00    +0.000 A 
ATOM     36 CL   UNL     1      22.664  19.895  -0.553  0.00  0.00    +0.000 Cl
ENDBRANCH  27  29
ENDBRANCH   5  25
TORSDOF 5
ENDMDL
MODEL 6
REMARK VINA RESULT:      -6.2      4.064     11.877
REMARK  Name = Dasatinib.pdbqt.pdb
REMARK  5 active torsions:
REMARK  status: ('A' for Active; 'I' for Inactive)
REMARK    1  A    between atoms: N_1  and  C_3
REMARK    2  A    between atoms: N_13  and  C_16
REMARK    3  A    between atoms: C_17  and  O_18
REMARK    4  A    between atoms: C_22  and  C_25
REMARK    5  A    between atoms: N_27  and  C_29
REMARK                            x       y       z     vdW  Elec       q    Type
REMARK                         _______ _______ _______ _____ _____    ______ ____
ROOT
ATOM      1  N   UNL     1      27.529  23.380  -3.054  0.00  0.00    +0.000 N 
ATOM      2  H   UNL     1      27.030  23.336  -3.934  0.00  0.00    +0.000 HD
ATOM      3  C   UNL     1      26.790  23.185  -1.936  0.00  0.00    +0.000 A 
ATOM      4  S   UNL     1      25.074  23.034  -2.084  0.00  0.00    +0.000 S 
ATOM      5  C   UNL     1      24.934  22.857  -0.386  0.00  0.00    +0.000 A 
ATOM      6  C   UNL     1      26.190  22.935   0.168  0.00  0.00    +0.000 A 
ATOM      7  N   UNL     1      27.231  23.149  -0.699  0.00  0.00    +0.000 NA
ENDROOT
BRANCH   1   8
ATOM      8  C   UNL     1      28.896  23.047  -3.178  0.00  0.00    +0.000 A 
ATOM      9  N   UNL     1      29.765  23.263  -2.184  0.00  0.00    +0.000 NA
ATOM     10  C   UNL     1      31.048  22.967  -2.419  0.00  0.00    +0.000 A 
ATOM     11  N   UNL     1      31.532  22.458  -3.557  0.00  0.00    +0.000 NA
ATOM     12  C   UNL     1      32.026  23.188  -1.301  0.00  0.00    +0.000 C 
ATOM     13  C   UNL     1      30.652  22.229  -4.547  0.00  0.00    +0.000 A 
ATOM     14  C   UNL     1      29.307  22.528  -4.392  0.00  0.00    +0.000 A 
ATOM     15  N   UNL     1      31.099  21.729  -5.799  0.00  0.00    +0.000 N 
ATOM     16  C   UNL     1      30.202  20.812  -6.551  0.00  0.00    +0.000 C 
ATOM     17  C   UNL     1      30.547  19.431  -7.172  0.00  0.00    +0.000 C 
ATOM     18  N   UNL     1      31.798  18.623  -7.210  0.00  0.00    +0.000 N 
ATOM     19  C   UNL     1      32.648  19.584  -6.453  0.00  0.00    +0.000 C 
ATOM     20  C   UNL     1      32.376  20.969  -5.810  0.00  0.00    +0.000 C 
BRANCH  18  21
ATOM     21  C   UNL     1      32.267  18.646  -8.589  0.00  0.00    +0.000 C 
ATOM     22  C   UNL     1      32.763  18.671 -10.041  0.00  0.00    +0.000 C 
BRANCH  22  23
ATOM     23  O   UNL     1      33.193  18.694 -11.296  0.00  0.00    +0.000 OA
ATOM     24  H   UNL     1      34.154  18.552 -11.329  0.00  0.00    +0.000 HD
ENDBRANCH  22  23
ENDBRANCH  18  21
ENDBRANCH   1   8
BRANCH   5  25
ATOM     25  C   UNL     1      23.649  22.647   0.242  0.00  0.00    +0.000 C 
ATOM     26  O   UNL     1      22.702  23.418   0.108  0.00  0.00    +0.000 OA
ATOM     27  N   UNL     1      23.595  21.540   1.080  0.00  0.00    +0.000 N 
ATOM     28  H   UNL     1      24.470  21.296   1.542  0.00  0.00    +0.000 HD
BRANCH  27  29
ATOM     29  C   UNL     1      22.424  21.136   1.790  0.00  0.00    +0.000 A 
ATOM     30  C   UNL     1      21.647  20.094   1.241  0.00  0.00    +0.000 A 
ATOM     31  C   UNL     1      20.507  19.618   1.887  0.00  0.00    +0.000 A 
ATOM     32  C   UNL     1      22.045  19.446  -0.069  0.00  0.00    +0.000 C 
ATOM     33  C   UNL     1      20.106  20.187   3.088  0.00  0.00    +0.000 A 
ATOM     34  C   UNL     1      20.818  21.261   3.612  0.00  0.00    +0.000 A 
ATOM     35  C   UNL     1      21.962  21.743   2.970  0.00  0.00    +0.000 A 
ATOM     36 CL   UNL     1      22.579  23.238   3.580  0.00  0.00    +0.000 Cl
ENDBRANCH  27  29
ENDBRANCH   5  25
TORSDOF 5
ENDMDL
MODEL 7
REMARK VINA RESULT:      -6.1      4.548     12.057
REMARK  Name = Dasatinib.pdbqt.pdb
REMARK  5 active torsions:
REMARK  status: ('A' for Active; 'I' for Inactive)
REMARK    1  A    between atoms: N_1  and  C_3
REMARK    2  A    between atoms: N_13  and  C_16
REMARK    3  A    between atoms: C_17  and  O_18
REMARK    4  A    between atoms: C_22  and  C_25
REMARK    5  A    between atoms: N_27  and  C_29
REMARK                            x       y       z     vdW  Elec       q    Type
REMARK                         _______ _______ _______ _____ _____    ______ ____
ROOT
ATOM      1  N   UNL     1      27.055  24.146  -0.507  0.00  0.00    +0.000 N 
ATOM      2  H   UNL     1      27.730  24.734  -0.033  0.00  0.00    +0.000 HD
ATOM      3  C   UNL     1      25.808  24.124   0.017  0.00  0.00    +0.000 A 
ATOM      4  S   UNL     1      25.510  24.956   1.503  0.00  0.00    +0.000 S 
ATOM      5  C   UNL     1      23.873  24.454   1.467  0.00  0.00    +0.000 A 
ATOM      6  C   UNL     1      23.674  23.688   0.344  0.00  0.00    +0.000 A 
ATOM      7  N   UNL     1      24.767  23.477  -0.458  0.00  0.00    +0.000 NA
ENDROOT
BRANCH   1   8
ATOM      8  C   UNL     1      27.353  23.959  -1.875  0.00  0.00    +0.000 A 
ATOM      9  N   UNL     1      26.533  24.394  -2.838  0.00  0.00    +0.000 NA
ATOM     10  C   UNL     1      26.873  24.119  -4.102  0.00  0.00    +0.000 A 
ATOM     11  N   UNL     1      27.974  23.461  -4.485  0.00  0.00    +0.000 NA
ATOM     12  C   UNL     1      25.968  24.621  -5.189  0.00  0.00    +0.000 C 
ATOM     13  C   UNL     1      28.802  23.040  -3.513  0.00  0.00    +0.000 A 
ATOM     14  C   UNL     1      28.510  23.265  -2.176  0.00  0.00    +0.000 A 
ATOM     15  N   UNL     1      29.967  22.297  -3.840  0.00  0.00    +0.000 N 
ATOM     16  C   UNL     1      31.179  22.482  -2.997  0.00  0.00    +0.000 C 
ATOM     17  C   UNL     1      32.630  22.782  -3.460  0.00  0.00    +0.000 C 
ATOM     18  N   UNL     1      33.245  22.976  -4.803  0.00  0.00    +0.000 N 
ATOM     19  C   UNL     1      31.998  22.779  -5.594  0.00  0.00    +0.000 C 
ATOM     20  C   UNL     1      30.527  22.478  -5.206  0.00  0.00    +0.000 C 
BRANCH  18  21
ATOM     21  C   UNL     1      34.086  21.813  -5.050  0.00  0.00    +0.000 C 
ATOM     22  C   UNL     1      34.970  20.586  -5.310  0.00  0.00    +0.000 C 
BRANCH  22  23
ATOM     23  O   UNL     1      35.733  19.523  -5.534  0.00  0.00    +0.000 OA
ATOM     24  H   UNL     1      35.211  18.809  -5.935  0.00  0.00    +0.000 HD
ENDBRANCH  22  23
ENDBRANCH  18  21
ENDBRANCH   1   8
BRANCH   5  25
ATOM     25  C   UNL     1      22.944  24.853   2.501  0.00  0.00    +0.000 C 
ATOM     26  O   UNL     1      22.189  24.066   3.066  0.00  0.00    +0.000 OA
ATOM     27  N   UNL     1      22.915  26.220   2.748  0.00  0.00    +0.000 N 
ATOM     28  H   UNL     1      23.124  26.816   1.949  0.00  0.00    +0.000 HD
BRANCH  27  29
ATOM     29  C   UNL     1      22.085  26.832   3.736  0.00  0.00    +0.000 A 
ATOM     30  C   UNL     1      20.994  27.607   3.292  0.00  0.00    +0.000 A 
ATOM     31  C   UNL     1      20.117  28.211   4.191  0.00  0.00    +0.000 A 
ATOM     32  C   UNL     1      20.732  27.790   1.811  0.00  0.00    +0.000 C 
ATOM     33  C   UNL     1      20.323  28.072   5.557  0.00  0.00    +0.000 A 
ATOM     34  C   UNL     1      21.432  27.369   6.016  0.00  0.00    +0.000 A 
ATOM     35  C   UNL     1      22.315  26.760   5.120  0.00  0.00    +0.000 A 
ATOM     36 CL   UNL     1      23.781  26.163   5.816  0.00  0.00    +0.000 Cl
ENDBRANCH  27  29
ENDBRANCH   5  25
TORSDOF 5
ENDMDL
MODEL 8
REMARK VINA RESULT:      -6.0     11.499     19.973
REMARK  Name = Dasatinib.pdbqt.pdb
REMARK  5 active torsions:
REMARK  status: ('A' for Active; 'I' for Inactive)
REMARK    1  A    between atoms: N_1  and  C_3
REMARK    2  A    between atoms: N_13  and  C_16
REMARK    3  A    between atoms: C_17  and  O_18
REMARK    4  A    between atoms: C_22  and  C_25
REMARK    5  A    between atoms: N_27  and  C_29
REMARK                            x       y       z     vdW  Elec       q    Type
REMARK                         _______ _______ _______ _____ _____    ______ ____
ROOT
ATOM      1  N   UNL     1      13.098  17.228   5.596  0.00  0.00    +0.000 N 
ATOM      2  H   UNL     1      12.241  17.734   5.783  0.00  0.00    +0.000 HD
ATOM      3  C   UNL     1      13.220  16.018   6.190  0.00  0.00    +0.000 A 
ATOM      4  S   UNL     1      12.005  15.510   7.311  0.00  0.00    +0.000 S 
ATOM      5  C   UNL     1      12.851  14.044   7.578  0.00  0.00    +0.000 A 
ATOM      6  C   UNL     1      13.992  14.050   6.811  0.00  0.00    +0.000 A 
ATOM      7  N   UNL     1      14.215  15.171   6.051  0.00  0.00    +0.000 NA
ENDROOT
BRANCH   1   8
ATOM      8  C   UNL     1      13.686  17.577   4.361  0.00  0.00    +0.000 A 
ATOM      9  N   UNL     1      12.961  17.678   3.241  0.00  0.00    +0.000 NA
ATOM     10  C   UNL     1      13.617  17.958   2.110  0.00  0.00    +0.000 A 
ATOM     11  N   UNL     1      14.936  18.162   2.007  0.00  0.00    +0.000 NA
ATOM     12  C   UNL     1      12.807  18.092   0.853  0.00  0.00    +0.000 C 
ATOM     13  C   UNL     1      15.657  18.074   3.138  0.00  0.00    +0.000 A 
ATOM     14  C   UNL     1      15.056  17.766   4.349  0.00  0.00    +0.000 A 
ATOM     15  N   UNL     1      17.067  18.237   3.100  0.00  0.00    +0.000 N 
ATOM     16  C   UNL     1      17.734  18.874   4.267  0.00  0.00    +0.000 C 
ATOM     17  C   UNL     1      18.748  20.050   4.265  0.00  0.00    +0.000 C 
ATOM     18  N   UNL     1      19.341  20.874   3.174  0.00  0.00    +0.000 N 
ATOM     19  C   UNL     1      18.645  20.194   2.046  0.00  0.00    +0.000 C 
ATOM     20  C   UNL     1      17.630  19.024   1.971  0.00  0.00    +0.000 C 
BRANCH  18  21
ATOM     21  C   UNL     1      20.746  20.501   3.085  0.00  0.00    +0.000 C 
ATOM     22  C   UNL     1      22.226  20.110   2.994  0.00  0.00    +0.000 C 
BRANCH  22  23
ATOM     23  O   UNL     1      23.508  19.773   2.916  0.00  0.00    +0.000 OA
ATOM     24  H   UNL     1      23.918  20.176   2.132  0.00  0.00    +0.000 HD
ENDBRANCH  22  23
ENDBRANCH  18  21
ENDBRANCH   1   8
BRANCH   5  25
ATOM     25  C   UNL     1      12.337  13.036   8.476  0.00  0.00    +0.000 C 
ATOM     26  O   UNL     1      11.172  12.644   8.452  0.00  0.00    +0.000 OA
ATOM     27  N   UNL     1      13.248  12.601   9.431  0.00  0.00    +0.000 N 
ATOM     28  H   UNL     1      13.936  13.291   9.729  0.00  0.00    +0.000 HD
BRANCH  27  29
ATOM     29  C   UNL     1      12.959  11.601  10.409  0.00  0.00    +0.000 A 
ATOM     30  C   UNL     1      13.233  10.257  10.078  0.00  0.00    +0.000 A 
ATOM     31  C   UNL     1      13.011   9.224  10.987  0.00  0.00    +0.000 A 
ATOM     32  C   UNL     1      13.798   9.899   8.719  0.00  0.00    +0.000 C 
ATOM     33  C   UNL     1      12.490   9.509  12.243  0.00  0.00    +0.000 A 
ATOM     34  C   UNL     1      12.150  10.818  12.565  0.00  0.00    +0.000 A 
ATOM     35  C   UNL     1      12.370  11.859  11.658  0.00  0.00    +0.000 A 
ATOM     36 CL   UNL     1      11.652  13.374  12.081  0.00  0.00    +0.000 Cl
ENDBRANCH  27  29
ENDBRANCH   5  25
TORSDOF 5
ENDMDL
MODEL 9
REMARK VINA RESULT:      -6.0     27.568     30.774
REMARK  Name = Dasatinib.pdbqt.pdb
REMARK  5 active torsions:
REMARK  status: ('A' for Active; 'I' for Inactive)
REMARK    1  A    between atoms: N_1  and  C_3
REMARK    2  A    between atoms: N_13  and  C_16
REMARK    3  A    between atoms: C_17  and  O_18
REMARK    4  A    between atoms: C_22  and  C_25
REMARK    5  A    between atoms: N_27  and  C_29
REMARK                            x       y       z     vdW  Elec       q    Type
REMARK                         _______ _______ _______ _____ _____    ______ ____
ROOT
ATOM      1  N   UNL     1      20.688  27.886  28.833  0.00  0.00    +0.000 N 
ATOM      2  H   UNL     1      19.820  28.378  29.011  0.00  0.00    +0.000 HD
ATOM      3  C   UNL     1      21.445  28.358  27.815  0.00  0.00    +0.000 A 
ATOM      4  S   UNL     1      20.817  29.631  26.826  0.00  0.00    +0.000 S 
ATOM      5  C   UNL     1      22.243  29.608  25.876  0.00  0.00    +0.000 A 
ATOM      6  C   UNL     1      23.081  28.636  26.367  0.00  0.00    +0.000 A 
ATOM      7  N   UNL     1      22.622  27.913  27.438  0.00  0.00    +0.000 NA
ENDROOT
BRANCH   1   8
ATOM      8  C   UNL     1      21.201  27.240  29.979  0.00  0.00    +0.000 A 
ATOM      9  N   UNL     1      21.608  27.929  31.051  0.00  0.00    +0.000 NA
ATOM     10  C   UNL     1      22.131  27.230  32.065  0.00  0.00    +0.000 A 
ATOM     11  N   UNL     1      22.265  25.899  32.103  0.00  0.00    +0.000 NA
ATOM     12  C   UNL     1      22.572  27.994  33.279  0.00  0.00    +0.000 C 
ATOM     13  C   UNL     1      21.840  25.211  31.029  0.00  0.00    +0.000 A 
ATOM     14  C   UNL     1      21.306  25.862  29.928  0.00  0.00    +0.000 A 
ATOM     15  N   UNL     1      21.990  23.800  30.981  0.00  0.00    +0.000 N 
ATOM     16  C   UNL     1      20.947  23.006  30.277  0.00  0.00    +0.000 C 
ATOM     17  C   UNL     1      20.181  21.759  30.796  0.00  0.00    +0.000 C 
ATOM     18  N   UNL     1      20.229  21.003  32.079  0.00  0.00    +0.000 N 
ATOM     19  C   UNL     1      21.280  21.834  32.730  0.00  0.00    +0.000 C 
ATOM     20  C   UNL     1      22.083  23.082  32.279  0.00  0.00    +0.000 C 
BRANCH  18  21
ATOM     21  C   UNL     1      20.840  19.714  31.782  0.00  0.00    +0.000 C 
ATOM     22  C   UNL     1      21.483  18.357  31.468  0.00  0.00    +0.000 C 
BRANCH  22  23
ATOM     23  O   UNL     1      22.041  17.184  31.194  0.00  0.00    +0.000 OA
ATOM     24  H   UNL     1      22.143  16.659  32.005  0.00  0.00    +0.000 HD
ENDBRANCH  22  23
ENDBRANCH  18  21
ENDBRANCH   1   8
BRANCH   5  25
ATOM     25  C   UNL     1      22.422  30.525  24.773  0.00  0.00    +0.000 C 
ATOM     26  O   UNL     1      21.922  30.350  23.665  0.00  0.00    +0.000 OA
ATOM     27  N   UNL     1      23.278  31.585  25.044  0.00  0.00    +0.000 N 
ATOM     28  H   UNL     1      24.022  31.390  25.713  0.00  0.00    +0.000 HD
BRANCH  27  29
ATOM     29  C   UNL     1      23.588  32.618  24.107  0.00  0.00    +0.000 A 
ATOM     30  C   UNL     1      24.885  32.640  23.554  0.00  0.00    +0.000 A 
ATOM     31  C   UNL     1      25.258  33.593  22.609  0.00  0.00    +0.000 A 
ATOM     32  C   UNL     1      25.914  31.605  23.964  0.00  0.00    +0.000 C 
ATOM     33  C   UNL     1      24.346  34.561  22.208  0.00  0.00    +0.000 A 
ATOM     34  C   UNL     1      23.084  34.600  22.791  0.00  0.00    +0.000 A 
ATOM     35  C   UNL     1      22.704  33.646  23.739  0.00  0.00    +0.000 A 
ATOM     36 CL   UNL     1      21.225  33.977  24.570  0.00  0.00    +0.000 Cl
ENDBRANCH  27  29
ENDBRANCH   5  25
TORSDOF 5
ENDMDL
