MODEL 1
REMARK VINA RESULT:      -6.6      0.000      0.000
REMARK  Name = Decitabine.pdbqt.pdb
REMARK  4 active torsions:
REMARK  status: ('A' for Active; 'I' for Inactive)
REMARK    1  A    between atoms: N_2  and  C1*_8
REMARK    2  A    between atoms: C4*_10  and  C5*_13
REMARK    3  A    between atoms: C3*_11  and  O3*_16
REMARK    4  A    between atoms: C5*_13  and  O5*_14
REMARK                            x       y       z     vdW  Elec       q    Type
REMARK                         _______ _______ _______ _____ _____    ______ ____
ROOT
ATOM      1  O   UNL     1      40.994  -5.007  10.188  0.00  0.00    +0.000 OA
ATOM      2  N   UNL     1      43.249  -5.025  10.711  0.00  0.00    +0.000 N 
ATOM      3  N   UNL     1      42.392  -6.358   8.984  0.00  0.00    +0.000 NA
ATOM      4  N   UNL     1      44.711  -6.407   9.520  0.00  0.00    +0.000 NA
ATOM      5  C   UNL     1      42.130  -5.423   9.985  0.00  0.00    +0.000 A 
ATOM      6  C   UNL     1      44.369  -5.623  10.313  0.00  0.00    +0.000 A 
ATOM      7  C   UNL     1      43.608  -6.793   8.778  0.00  0.00    +0.000 A 
ATOM      8  N   UNL     1      43.811  -7.699   7.787  0.00  0.00    +0.000 N 
ATOM      9  H   UNL     1      44.618  -8.293   7.923  0.00  0.00    +0.000 HD
ATOM     10  H   UNL     1      42.966  -8.184   7.509  0.00  0.00    +0.000 HD
ENDROOT
BRANCH   2  11
ATOM     11  C1* UNL     1      43.270  -4.129  11.733  0.00  0.00    +0.000 A 
ATOM     12  O4* UNL     1      43.120  -2.755  11.520  0.00  0.00    +0.000 OA
ATOM     13  C4* UNL     1      43.183  -2.139  12.777  0.00  0.00    +0.000 A 
ATOM     14  C3* UNL     1      43.381  -3.147  13.787  0.00  0.00    +0.000 A 
ATOM     15  C2* UNL     1      43.418  -4.379  13.112  0.00  0.00    +0.000 A 
BRANCH  14  16
ATOM     16  O3* UNL     1      42.897  -2.979  15.053  0.00  0.00    +0.000 OA
ATOM     17  H3* UNL     1      42.295  -3.704  15.296  0.00  0.00    +0.000 HD
ENDBRANCH  14  16
BRANCH  13  18
ATOM     18  C5* UNL     1      42.899  -0.773  12.967  0.00  0.00    +0.000 C 
BRANCH  18  19
ATOM     19  O5* UNL     1      42.636   0.518  13.148  0.00  0.00    +0.000 OA
ATOM     20  H5* UNL     1      42.097   0.857  12.413  0.00  0.00    +0.000 HD
ENDBRANCH  18  19
ENDBRANCH  13  18
ENDBRANCH   2  11
TORSDOF 4
ENDMDL
MODEL 2
REMARK VINA RESULT:      -6.4     32.357     33.637
REMARK  Name = Decitabine.pdbqt.pdb
REMARK  4 active torsions:
REMARK  status: ('A' for Active; 'I' for Inactive)
REMARK    1  A    between atoms: N_2  and  C1*_8
REMARK    2  A    between atoms: C4*_10  and  C5*_13
REMARK    3  A    between atoms: C3*_11  and  O3*_16
REMARK    4  A    between atoms: C5*_13  and  O5*_14
REMARK                            x       y       z     vdW  Elec       q    Type
REMARK                         _______ _______ _______ _____ _____    ______ ____
ROOT
ATOM      1  O   UNL     1      21.785  17.204   3.439  0.00  0.00    +0.000 OA
ATOM      2  N   UNL     1      20.914  19.324   3.111  0.00  0.00    +0.000 N 
ATOM      3  N   UNL     1      19.947  17.836   4.644  0.00  0.00    +0.000 NA
ATOM      4  N   UNL     1      19.023  20.003   4.305  0.00  0.00    +0.000 NA
ATOM      5  C   UNL     1      20.952  18.065   3.703  0.00  0.00    +0.000 A 
ATOM      6  C   UNL     1      19.911  20.077   3.552  0.00  0.00    +0.000 A 
ATOM      7  C   UNL     1      19.065  18.762   4.917  0.00  0.00    +0.000 A 
ATOM      8  N   UNL     1      18.111  18.492   5.843  0.00  0.00    +0.000 N 
ATOM      9  H   UNL     1      17.256  19.019   5.729  0.00  0.00    +0.000 HD
ATOM     10  H   UNL     1      17.981  17.501   6.008  0.00  0.00    +0.000 HD
ENDROOT
BRANCH   2  11
ATOM     11  C1* UNL     1      21.773  19.798   2.171  0.00  0.00    +0.000 A 
ATOM     12  O4* UNL     1      22.780  20.718   2.482  0.00  0.00    +0.000 OA
ATOM     13  C4* UNL     1      23.472  20.980   1.293  0.00  0.00    +0.000 A 
ATOM     14  C3* UNL     1      22.883  20.215   0.224  0.00  0.00    +0.000 A 
ATOM     15  C2* UNL     1      21.834  19.477   0.800  0.00  0.00    +0.000 A 
BRANCH  14  16
ATOM     16  O3* UNL     1      23.634  19.785  -0.833  0.00  0.00    +0.000 OA
ATOM     17  H3* UNL     1      23.069  19.440  -1.546  0.00  0.00    +0.000 HD
ENDBRANCH  14  16
BRANCH  13  18
ATOM     18  C5* UNL     1      24.662  21.733   1.258  0.00  0.00    +0.000 C 
BRANCH  18  19
ATOM     19  O5* UNL     1      25.784  22.447   1.223  0.00  0.00    +0.000 OA
ATOM     20  H5* UNL     1      25.639  23.320   1.625  0.00  0.00    +0.000 HD
ENDBRANCH  18  19
ENDBRANCH  13  18
ENDBRANCH   2  11
TORSDOF 4
ENDMDL
MODEL 3
REMARK VINA RESULT:      -6.1      1.457      2.229
REMARK  Name = Decitabine.pdbqt.pdb
REMARK  4 active torsions:
REMARK  status: ('A' for Active; 'I' for Inactive)
REMARK    1  A    between atoms: N_2  and  C1*_8
REMARK    2  A    between atoms: C4*_10  and  C5*_13
REMARK    3  A    between atoms: C3*_11  and  O3*_16
REMARK    4  A    between atoms: C5*_13  and  O5*_14
REMARK                            x       y       z     vdW  Elec       q    Type
REMARK                         _______ _______ _______ _____ _____    ______ ____
ROOT
ATOM      1  O   UNL     1      41.491  -6.210   9.753  0.00  0.00    +0.000 OA
ATOM      2  N   UNL     1      43.711  -5.673  10.133  0.00  0.00    +0.000 N 
ATOM      3  N   UNL     1      43.096  -7.166   8.434  0.00  0.00    +0.000 NA
ATOM      4  N   UNL     1      45.386  -6.642   8.823  0.00  0.00    +0.000 NA
ATOM      5  C   UNL     1      42.679  -6.330   9.471  0.00  0.00    +0.000 A 
ATOM      6  C   UNL     1      44.914  -5.972   9.654  0.00  0.00    +0.000 A 
ATOM      7  C   UNL     1      44.366  -7.285   8.143  0.00  0.00    +0.000 A 
ATOM      8  N   UNL     1      44.720  -8.106   7.121  0.00  0.00    +0.000 N 
ATOM      9  H   UNL     1      45.656  -8.483   7.193  0.00  0.00    +0.000 HD
ATOM     10  H   UNL     1      44.005  -8.784   6.886  0.00  0.00    +0.000 HD
ENDROOT
BRANCH   2  11
ATOM     11  C1* UNL     1      43.578  -4.806  11.172  0.00  0.00    +0.000 A 
ATOM     12  O4* UNL     1      43.106  -5.215  12.424  0.00  0.00    +0.000 OA
ATOM     13  C4* UNL     1      43.104  -4.082  13.247  0.00  0.00    +0.000 A 
ATOM     14  C3* UNL     1      43.577  -2.949  12.494  0.00  0.00    +0.000 A 
ATOM     15  C2* UNL     1      43.878  -3.430  11.207  0.00  0.00    +0.000 A 
BRANCH  14  16
ATOM     16  O3* UNL     1      44.241  -1.923  13.105  0.00  0.00    +0.000 OA
ATOM     17  H3* UNL     1      44.945  -2.260  13.685  0.00  0.00    +0.000 HD
ENDBRANCH  14  16
BRANCH  13  18
ATOM     18  C5* UNL     1      42.850  -4.150  14.631  0.00  0.00    +0.000 C 
BRANCH  18  19
ATOM     19  O5* UNL     1      42.609  -4.210  15.938  0.00  0.00    +0.000 OA
ATOM     20  H5* UNL     1      41.861  -4.806  16.115  0.00  0.00    +0.000 HD
ENDBRANCH  18  19
ENDBRANCH  13  18
ENDBRANCH   2  11
TORSDOF 4
ENDMDL
MODEL 4
REMARK VINA RESULT:      -5.6      2.098      2.797
REMARK  Name = Decitabine.pdbqt.pdb
REMARK  4 active torsions:
REMARK  status: ('A' for Active; 'I' for Inactive)
REMARK    1  A    between atoms: N_2  and  C1*_8
REMARK    2  A    between atoms: C4*_10  and  C5*_13
REMARK    3  A    between atoms: C3*_11  and  O3*_16
REMARK    4  A    between atoms: C5*_13  and  O5*_14
REMARK                            x       y       z     vdW  Elec       q    Type
REMARK                         _______ _______ _______ _____ _____    ______ ____
ROOT
ATOM      1  O   UNL     1      42.811  -7.292   8.170  0.00  0.00    +0.000 OA
ATOM      2  N   UNL     1      44.714  -6.686   9.341  0.00  0.00    +0.000 N 
ATOM      3  N   UNL     1      44.840  -8.057   7.443  0.00  0.00    +0.000 NA
ATOM      4  N   UNL     1      46.806  -7.462   8.647  0.00  0.00    +0.000 NA
ATOM      5  C   UNL     1      44.028  -7.332   8.317  0.00  0.00    +0.000 A 
ATOM      6  C   UNL     1      46.028  -6.888   9.298  0.00  0.00    +0.000 A 
ATOM      7  C   UNL     1      46.137  -8.091   7.611  0.00  0.00    +0.000 A 
ATOM      8  N   UNL     1      46.883  -8.806   6.730  0.00  0.00    +0.000 N 
ATOM      9  H   UNL     1      47.760  -9.144   7.103  0.00  0.00    +0.000 HD
ATOM     10  H   UNL     1      46.346  -9.493   6.216  0.00  0.00    +0.000 HD
ENDROOT
BRANCH   2  11
ATOM     11  C1* UNL     1      44.165  -5.918  10.319  0.00  0.00    +0.000 A 
ATOM     12  O4* UNL     1      44.137  -4.521  10.239  0.00  0.00    +0.000 OA
ATOM     13  C4* UNL     1      43.500  -4.061  11.399  0.00  0.00    +0.000 A 
ATOM     14  C3* UNL     1      43.130  -5.189  12.215  0.00  0.00    +0.000 A 
ATOM     15  C2* UNL     1      43.544  -6.335  11.513  0.00  0.00    +0.000 A 
BRANCH  14  16
ATOM     16  O3* UNL     1      42.034  -5.141  13.029  0.00  0.00    +0.000 OA
ATOM     17  H3* UNL     1      41.550  -4.305  12.913  0.00  0.00    +0.000 HD
ENDBRANCH  14  16
BRANCH  13  18
ATOM     18  C5* UNL     1      43.141  -2.711  11.581  0.00  0.00    +0.000 C 
BRANCH  18  19
ATOM     19  O5* UNL     1      42.807  -1.436  11.755  0.00  0.00    +0.000 OA
ATOM     20  H5* UNL     1      42.889  -0.950  10.917  0.00  0.00    +0.000 HD
ENDBRANCH  18  19
ENDBRANCH  13  18
ENDBRANCH   2  11
TORSDOF 4
ENDMDL
MODEL 5
REMARK VINA RESULT:      -5.5     16.658     17.783
REMARK  Name = Decitabine.pdbqt.pdb
REMARK  4 active torsions:
REMARK  status: ('A' for Active; 'I' for Inactive)
REMARK    1  A    between atoms: N_2  and  C1*_8
REMARK    2  A    between atoms: C4*_10  and  C5*_13
REMARK    3  A    between atoms: C3*_11  and  O3*_16
REMARK    4  A    between atoms: C5*_13  and  O5*_14
REMARK                            x       y       z     vdW  Elec       q    Type
REMARK                         _______ _______ _______ _____ _____    ______ ____
ROOT
ATOM      1  O   UNL     1      36.370  11.612  19.341  0.00  0.00    +0.000 OA
ATOM      2  N   UNL     1      36.293   9.362  19.880  0.00  0.00    +0.000 N 
ATOM      3  N   UNL     1      34.373  10.511  19.178  0.00  0.00    +0.000 NA
ATOM      4  N   UNL     1      34.268   8.202  19.748  0.00  0.00    +0.000 NA
ATOM      5  C   UNL     1      35.739  10.567  19.460  0.00  0.00    +0.000 A 
ATOM      6  C   UNL     1      35.406   8.373  19.941  0.00  0.00    +0.000 A 
ATOM      7  C   UNL     1      33.711   9.390  19.309  0.00  0.00    +0.000 A 
ATOM      8  N   UNL     1      32.386   9.386  19.016  0.00  0.00    +0.000 N 
ATOM      9  H   UNL     1      31.853   8.675  19.501  0.00  0.00    +0.000 HD
ATOM     10  H   UNL     1      31.970  10.310  19.026  0.00  0.00    +0.000 HD
ENDROOT
BRANCH   2  11
ATOM     11  C1* UNL     1      37.593   9.146  20.214  0.00  0.00    +0.000 A 
ATOM     12  O4* UNL     1      37.973   8.754  21.501  0.00  0.00    +0.000 OA
ATOM     13  C4* UNL     1      39.367   8.616  21.489  0.00  0.00    +0.000 A 
ATOM     14  C3* UNL     1      39.862   8.934  20.173  0.00  0.00    +0.000 A 
ATOM     15  C2* UNL     1      38.734   9.247  19.394  0.00  0.00    +0.000 A 
BRANCH  14  16
ATOM     16  O3* UNL     1      40.993   8.345  19.685  0.00  0.00    +0.000 OA
ATOM     17  H3* UNL     1      41.491   8.960  19.119  0.00  0.00    +0.000 HD
ENDBRANCH  14  16
BRANCH  13  18
ATOM     18  C5* UNL     1      40.085   8.068  22.570  0.00  0.00    +0.000 C 
BRANCH  18  19
ATOM     19  O5* UNL     1      40.765   7.547  23.587  0.00  0.00    +0.000 OA
ATOM     20  H5* UNL     1      40.173   7.024  24.154  0.00  0.00    +0.000 HD
ENDBRANCH  18  19
ENDBRANCH  13  18
ENDBRANCH   2  11
TORSDOF 4
ENDMDL
MODEL 6
REMARK VINA RESULT:      -5.5     33.031     34.430
REMARK  Name = Decitabine.pdbqt.pdb
REMARK  4 active torsions:
REMARK  status: ('A' for Active; 'I' for Inactive)
REMARK    1  A    between atoms: N_2  and  C1*_8
REMARK    2  A    between atoms: C4*_10  and  C5*_13
REMARK    3  A    between atoms: C3*_11  and  O3*_16
REMARK    4  A    between atoms: C5*_13  and  O5*_14
REMARK                            x       y       z     vdW  Elec       q    Type
REMARK                         _______ _______ _______ _____ _____    ______ ____
ROOT
ATOM      1  O   UNL     1      21.034  17.642   1.723  0.00  0.00    +0.000 OA
ATOM      2  N   UNL     1      20.368  19.385   3.093  0.00  0.00    +0.000 N 
ATOM      3  N   UNL     1      22.393  19.471   1.915  0.00  0.00    +0.000 NA
ATOM      4  N   UNL     1      21.735  21.265   3.336  0.00  0.00    +0.000 NA
ATOM      5  C   UNL     1      21.237  18.749   2.212  0.00  0.00    +0.000 A 
ATOM      6  C   UNL     1      20.810  20.572   3.496  0.00  0.00    +0.000 A 
ATOM      7  C   UNL     1      22.597  20.650   2.443  0.00  0.00    +0.000 A 
ATOM      8  N   UNL     1      23.734  21.315   2.118  0.00  0.00    +0.000 N 
ATOM      9  H   UNL     1      24.047  21.976   2.817  0.00  0.00    +0.000 HD
ATOM     10  H   UNL     1      24.459  20.712   1.748  0.00  0.00    +0.000 HD
ENDROOT
BRANCH   2  11
ATOM     11  C1* UNL     1      19.179  18.902   3.542  0.00  0.00    +0.000 A 
ATOM     12  O4* UNL     1      18.023  18.923   2.753  0.00  0.00    +0.000 OA
ATOM     13  C4* UNL     1      17.000  18.348   3.517  0.00  0.00    +0.000 A 
ATOM     14  C3* UNL     1      17.526  17.969   4.804  0.00  0.00    +0.000 A 
ATOM     15  C2* UNL     1      18.889  18.313   4.788  0.00  0.00    +0.000 A 
BRANCH  14  16
ATOM     16  O3* UNL     1      17.009  16.908   5.491  0.00  0.00    +0.000 OA
ATOM     17  H3* UNL     1      16.750  16.192   4.885  0.00  0.00    +0.000 HD
ENDBRANCH  14  16
BRANCH  13  18
ATOM     18  C5* UNL     1      15.732  18.046   2.982  0.00  0.00    +0.000 C 
BRANCH  18  19
ATOM     19  O5* UNL     1      14.535  17.766   2.476  0.00  0.00    +0.000 OA
ATOM     20  H5* UNL     1      13.876  18.406   2.797  0.00  0.00    +0.000 HD
ENDBRANCH  18  19
ENDBRANCH  13  18
ENDBRANCH   2  11
TORSDOF 4
ENDMDL
MODEL 7
REMARK VINA RESULT:      -5.2     23.075     24.809
REMARK  Name = Decitabine.pdbqt.pdb
REMARK  4 active torsions:
REMARK  status: ('A' for Active; 'I' for Inactive)
REMARK    1  A    between atoms: N_2  and  C1*_8
REMARK    2  A    between atoms: C4*_10  and  C5*_13
REMARK    3  A    between atoms: C3*_11  and  O3*_16
REMARK    4  A    between atoms: C5*_13  and  O5*_14
REMARK                            x       y       z     vdW  Elec       q    Type
REMARK                         _______ _______ _______ _____ _____    ______ ____
ROOT
ATOM      1  O   UNL     1      25.428  -2.999  30.770  0.00  0.00    +0.000 OA
ATOM      2  N   UNL     1      26.548  -1.264  29.724  0.00  0.00    +0.000 N 
ATOM      3  N   UNL     1      24.770  -0.851  31.195  0.00  0.00    +0.000 NA
ATOM      4  N   UNL     1      25.895   0.946  30.112  0.00  0.00    +0.000 NA
ATOM      5  C   UNL     1      25.582  -1.798  30.571  0.00  0.00    +0.000 A 
ATOM      6  C   UNL     1      26.511   0.064  29.662  0.00  0.00    +0.000 A 
ATOM      7  C   UNL     1      24.944   0.427  30.974  0.00  0.00    +0.000 A 
ATOM      8  N   UNL     1      24.132   1.309  31.610  0.00  0.00    +0.000 N 
ATOM      9  H   UNL     1      24.014   2.191  31.128  0.00  0.00    +0.000 HD
ATOM     10  H   UNL     1      23.274   0.891  31.949  0.00  0.00    +0.000 HD
ENDROOT
BRANCH   2  11
ATOM     11  C1* UNL     1      27.462  -1.964  29.001  0.00  0.00    +0.000 A 
ATOM     12  O4* UNL     1      27.083  -2.888  28.021  0.00  0.00    +0.000 OA
ATOM     13  C4* UNL     1      28.264  -3.411  27.478  0.00  0.00    +0.000 A 
ATOM     14  C3* UNL     1      29.395  -2.806  28.134  0.00  0.00    +0.000 A 
ATOM     15  C2* UNL     1      28.868  -1.898  29.069  0.00  0.00    +0.000 A 
BRANCH  14  16
ATOM     16  O3* UNL     1      30.579  -2.631  27.477  0.00  0.00    +0.000 OA
ATOM     17  H3* UNL     1      30.946  -3.483  27.186  0.00  0.00    +0.000 HD
ENDBRANCH  14  16
BRANCH  13  18
ATOM     18  C5* UNL     1      28.272  -4.247  26.345  0.00  0.00    +0.000 C 
BRANCH  18  19
ATOM     19  O5* UNL     1      28.284  -5.038  25.275  0.00  0.00    +0.000 OA
ATOM     20  H5* UNL     1      29.011  -5.681  25.341  0.00  0.00    +0.000 HD
ENDBRANCH  18  19
ENDBRANCH  13  18
ENDBRANCH   2  11
TORSDOF 4
ENDMDL
MODEL 8
REMARK VINA RESULT:      -5.0      4.046      6.409
REMARK  Name = Decitabine.pdbqt.pdb
REMARK  4 active torsions:
REMARK  status: ('A' for Active; 'I' for Inactive)
REMARK    1  A    between atoms: N_2  and  C1*_8
REMARK    2  A    between atoms: C4*_10  and  C5*_13
REMARK    3  A    between atoms: C3*_11  and  O3*_16
REMARK    4  A    between atoms: C5*_13  and  O5*_14
REMARK                            x       y       z     vdW  Elec       q    Type
REMARK                         _______ _______ _______ _____ _____    ______ ____
ROOT
ATOM      1  O   UNL     1      42.822  -2.988  11.681  0.00  0.00    +0.000 OA
ATOM      2  N   UNL     1      44.491  -1.384  11.704  0.00  0.00    +0.000 N 
ATOM      3  N   UNL     1      42.448  -1.027  12.797  0.00  0.00    +0.000 NA
ATOM      4  N   UNL     1      44.144   0.643  12.814  0.00  0.00    +0.000 NA
ATOM      5  C   UNL     1      43.235  -1.886  12.029  0.00  0.00    +0.000 A 
ATOM      6  C   UNL     1      44.706  -0.163  12.186  0.00  0.00    +0.000 A 
ATOM      7  C   UNL     1      42.901   0.145  13.162  0.00  0.00    +0.000 A 
ATOM      8  N   UNL     1      42.098   0.941  13.913  0.00  0.00    +0.000 N 
ATOM      9  H   UNL     1      42.288   1.931  13.823  0.00  0.00    +0.000 HD
ATOM     10  H   UNL     1      41.119   0.689  13.859  0.00  0.00    +0.000 HD
ENDROOT
BRANCH   2  11
ATOM     11  C1* UNL     1      45.446  -2.015  10.971  0.00  0.00    +0.000 A 
ATOM     12  O4* UNL     1      45.676  -3.391  11.078  0.00  0.00    +0.000 OA
ATOM     13  C4* UNL     1      46.711  -3.700  10.187  0.00  0.00    +0.000 A 
ATOM     14  C3* UNL     1      47.137  -2.497   9.520  0.00  0.00    +0.000 A 
ATOM     15  C2* UNL     1      46.323  -1.463  10.016  0.00  0.00    +0.000 A 
BRANCH  14  16
ATOM     16  O3* UNL     1      47.640  -2.535   8.250  0.00  0.00    +0.000 OA
ATOM     17  H3* UNL     1      46.971  -2.850   7.619  0.00  0.00    +0.000 HD
ENDBRANCH  14  16
BRANCH  13  18
ATOM     18  C5* UNL     1      47.095  -5.025   9.900  0.00  0.00    +0.000 C 
BRANCH  18  19
ATOM     19  O5* UNL     1      47.460  -6.274   9.626  0.00  0.00    +0.000 OA
ATOM     20  H5* UNL     1      48.087  -6.596  10.296  0.00  0.00    +0.000 HD
ENDBRANCH  18  19
ENDBRANCH  13  18
ENDBRANCH   2  11
TORSDOF 4
ENDMDL
MODEL 9
REMARK VINA RESULT:      -4.9     32.946     34.065
REMARK  Name = Decitabine.pdbqt.pdb
REMARK  4 active torsions:
REMARK  status: ('A' for Active; 'I' for Inactive)
REMARK    1  A    between atoms: N_2  and  C1*_8
REMARK    2  A    between atoms: C4*_10  and  C5*_13
REMARK    3  A    between atoms: C3*_11  and  O3*_16
REMARK    4  A    between atoms: C5*_13  and  O5*_14
REMARK                            x       y       z     vdW  Elec       q    Type
REMARK                         _______ _______ _______ _____ _____    ______ ____
ROOT
ATOM      1  O   UNL     1      21.130  21.743   0.452  0.00  0.00    +0.000 OA
ATOM      2  N   UNL     1      22.819  20.965   1.831  0.00  0.00    +0.000 N 
ATOM      3  N   UNL     1      20.784  19.817   1.636  0.00  0.00    +0.000 NA
ATOM      4  N   UNL     1      22.502  19.013   3.076  0.00  0.00    +0.000 NA
ATOM      5  C   UNL     1      21.558  20.911   1.246  0.00  0.00    +0.000 A 
ATOM      6  C   UNL     1      23.051  19.957   2.666  0.00  0.00    +0.000 A 
ATOM      7  C   UNL     1      21.253  18.937   2.483  0.00  0.00    +0.000 A 
ATOM      8  N   UNL     1      20.463  17.888   2.826  0.00  0.00    +0.000 N 
ATOM      9  H   UNL     1      20.665  17.492   3.735  0.00  0.00    +0.000 HD
ATOM     10  H   UNL     1      19.480  18.048   2.641  0.00  0.00    +0.000 HD
ENDROOT
BRANCH   2  11
ATOM     11  C1* UNL     1      23.764  21.920   1.621  0.00  0.00    +0.000 A 
ATOM     12  O4* UNL     1      23.941  22.994   2.499  0.00  0.00    +0.000 OA
ATOM     13  C4* UNL     1      24.991  23.768   1.988  0.00  0.00    +0.000 A 
ATOM     14  C3* UNL     1      25.470  23.168   0.769  0.00  0.00    +0.000 A 
ATOM     15  C2* UNL     1      24.698  22.010   0.570  0.00  0.00    +0.000 A 
BRANCH  14  16
ATOM     16  O3* UNL     1      26.775  23.296   0.387  0.00  0.00    +0.000 OA
ATOM     17  H3* UNL     1      26.892  23.047  -0.547  0.00  0.00    +0.000 HD
ENDBRANCH  14  16
BRANCH  13  18
ATOM     18  C5* UNL     1      25.560  24.840   2.702  0.00  0.00    +0.000 C 
BRANCH  18  19
ATOM     19  O5* UNL     1      26.095  25.852   3.380  0.00  0.00    +0.000 OA
ATOM     20  H5* UNL     1      25.700  26.694   3.095  0.00  0.00    +0.000 HD
ENDBRANCH  18  19
ENDBRANCH  13  18
ENDBRANCH   2  11
TORSDOF 4
ENDMDL
