MODEL 1
REMARK VINA RESULT:      -5.1      0.000      0.000
REMARK  Name = Deferoxamine.pdbqt.pdb
REMARK  19 active torsions:
REMARK  status: ('A' for Active; 'I' for Inactive)
REMARK    1  A    between atoms: C_1  and  C_2
REMARK    2  A    between atoms: C_3  and  C_4
REMARK    3  A    between atoms: C_4  and  N_5
REMARK    4  A    between atoms: C_6  and  C_9
REMARK    5  A    between atoms: C_10  and  C_11
REMARK    6  A    between atoms: N_13  and  O_14
REMARK    7  A    between atoms: N_13  and  C_16
REMARK    8  A    between atoms: C_17  and  C_18
REMARK    9  A    between atoms: C_19  and  C_20
REMARK   10  A    between atoms: C_20  and  N_21
REMARK   11  A    between atoms: C_24  and  N_25
REMARK   12  A    between atoms: N_25  and  O_28
REMARK   13  A    between atoms: C_26  and  C_30
REMARK   14  A    between atoms: C_31  and  C_32
REMARK   15  A    between atoms: N_34  and  C_36
REMARK   16  A    between atoms: C_37  and  C_38
REMARK   17  A    between atoms: C_38  and  C_39
REMARK   18  A    between atoms: C_40  and  N_41
REMARK   19  A    between atoms: N_41  and  O_45
REMARK                            x       y       z     vdW  Elec       q    Type
REMARK                         _______ _______ _______ _____ _____    ______ ____
ROOT
ATOM      1  C   UNL     1      21.141  21.560  31.083  0.00  0.00    +0.000 C 
ATOM      2  C   UNL     1      21.088  22.692  30.684  0.00  0.00    +0.000 C 
ENDROOT
BRANCH   2   3
ATOM      3  N   UNL     1      21.029  23.962  30.235  0.00  0.00    +0.000 N 
ATOM      4  C   UNL     1      21.756  25.083  30.598  0.00  0.00    +0.000 C 
ATOM      5  O   UNL     1      22.509  25.147  31.564  0.00  0.00    +0.000 OA
BRANCH   4   6
ATOM      6  C   UNL     1      21.586  26.277  29.796  0.00  0.00    +0.000 C 
ATOM      7  C   UNL     1      21.456  27.263  29.122  0.00  0.00    +0.000 C 
BRANCH   7   8
ATOM      8  C   UNL     1      21.323  28.446  28.308  0.00  0.00    +0.000 C 
ATOM      9  O   UNL     1      21.652  29.527  28.775  0.00  0.00    +0.000 OA
ATOM     10  N   UNL     1      20.822  28.234  27.044  0.00  0.00    +0.000 N 
ATOM     11  H   UNL     1      20.601  27.276  26.805  0.00  0.00    +0.000 HD
BRANCH  10  12
ATOM     12  C   UNL     1      20.584  29.131  26.061  0.00  0.00    +0.000 C 
ATOM     13  C   UNL     1      20.377  29.931  25.191  0.00  0.00    +0.000 C 
BRANCH  13  14
ATOM     14  C   UNL     1      20.122  30.956  24.082  0.00  0.00    +0.000 C 
BRANCH  14  15
ATOM     15  C   UNL     1      19.869  31.988  22.979  0.00  0.00    +0.000 C 
ATOM     16  C   UNL     1      19.668  32.797  22.115  0.00  0.00    +0.000 C 
BRANCH  16  17
ATOM     17  N   UNL     1      19.437  33.707  21.150  0.00  0.00    +0.000 N 
ATOM     18  C   UNL     1      18.547  33.711  20.102  0.00  0.00    +0.000 C 
ATOM     19  O   UNL     1      17.721  32.879  19.772  0.00  0.00    +0.000 OA
ATOM     20  C   UNL     1      18.520  34.891  19.163  0.00  0.00    +0.000 C 
BRANCH  17  21
ATOM     21  O   UNL     1      20.311  34.811  21.328  0.00  0.00    +0.000 OA
ATOM     22  H   UNL     1      20.676  34.662  22.224  0.00  0.00    +0.000 HD
ENDBRANCH  17  21
ENDBRANCH  16  17
ENDBRANCH  14  15
ENDBRANCH  13  14
ENDBRANCH  10  12
ENDBRANCH   7   8
ENDBRANCH   4   6
BRANCH   3  23
ATOM     23  O   UNL     1      20.377  23.986  28.982  0.00  0.00    +0.000 OA
ATOM     24  H   UNL     1      19.859  24.810  29.048  0.00  0.00    +0.000 HD
ENDBRANCH   3  23
ENDBRANCH   2   3
BRANCH   1  25
ATOM     25  C   UNL     1      21.214  20.112  31.577  0.00  0.00    +0.000 C 
ATOM     26  C   UNL     1      21.275  18.974  31.952  0.00  0.00    +0.000 C 
BRANCH  26  27
ATOM     27  C   UNL     1      21.357  17.517  32.417  0.00  0.00    +0.000 C 
BRANCH  27  28
ATOM     28  N   UNL     1      21.447  16.231  32.822  0.00  0.00    +0.000 N 
ATOM     29  C   UNL     1      21.761  15.112  32.088  0.00  0.00    +0.000 C 
ATOM     30  O   UNL     1      22.022  15.090  30.894  0.00  0.00    +0.000 OA
ATOM     31  H   UNL     1      21.260  16.090  33.807  0.00  0.00    +0.000 HD
BRANCH  29  32
ATOM     32  C   UNL     1      21.774  13.874  32.828  0.00  0.00    +0.000 C 
ATOM     33  C   UNL     1      21.780  12.855  33.465  0.00  0.00    +0.000 C 
BRANCH  33  34
ATOM     34  C   UNL     1      21.772  11.635  34.246  0.00  0.00    +0.000 C 
ATOM     35  O   UNL     1      20.682  11.166  34.558  0.00  0.00    +0.000 OA
ATOM     36  N   UNL     1      22.997  11.107  34.617  0.00  0.00    +0.000 N 
BRANCH  36  37
ATOM     37  C   UNL     1      23.307   9.935  35.208  0.00  0.00    +0.000 C 
ATOM     38  C   UNL     1      23.584   8.890  35.730  0.00  0.00    +0.000 C 
BRANCH  38  39
ATOM     39  C   UNL     1      23.933   7.553  36.392  0.00  0.00    +0.000 C 
ATOM     40  C   UNL     1      24.207   6.509  36.915  0.00  0.00    +0.000 C 
BRANCH  40  41
ATOM     41  C   UNL     1      24.556   5.178  37.587  0.00  0.00    +0.000 C 
BRANCH  41  42
ATOM     42  N   UNL     1      24.887   3.914  38.224  0.00  0.00    +0.000 NA
ATOM     43  H   UNL     1      24.051   3.484  38.616  0.00  0.00    +0.000 HD
ATOM     44  H   UNL     1      25.247   3.253  37.537  0.00  0.00    +0.000 HD
ENDBRANCH  41  42
ENDBRANCH  40  41
ENDBRANCH  38  39
ENDBRANCH  36  37
BRANCH  36  45
ATOM     45  O   UNL     1      24.152  11.645  34.005  0.00  0.00    +0.000 OA
ATOM     46  H   UNL     1      24.418  10.914  33.418  0.00  0.00    +0.000 HD
ENDBRANCH  36  45
ENDBRANCH  33  34
ENDBRANCH  29  32
ENDBRANCH  27  28
ENDBRANCH  26  27
ENDBRANCH   1  25
TORSDOF 19
ENDMDL
MODEL 2
REMARK VINA RESULT:      -5.0      2.639      2.763
REMARK  Name = Deferoxamine.pdbqt.pdb
REMARK  19 active torsions:
REMARK  status: ('A' for Active; 'I' for Inactive)
REMARK    1  A    between atoms: C_1  and  C_2
REMARK    2  A    between atoms: C_3  and  C_4
REMARK    3  A    between atoms: C_4  and  N_5
REMARK    4  A    between atoms: C_6  and  C_9
REMARK    5  A    between atoms: C_10  and  C_11
REMARK    6  A    between atoms: N_13  and  O_14
REMARK    7  A    between atoms: N_13  and  C_16
REMARK    8  A    between atoms: C_17  and  C_18
REMARK    9  A    between atoms: C_19  and  C_20
REMARK   10  A    between atoms: C_20  and  N_21
REMARK   11  A    between atoms: C_24  and  N_25
REMARK   12  A    between atoms: N_25  and  O_28
REMARK   13  A    between atoms: C_26  and  C_30
REMARK   14  A    between atoms: C_31  and  C_32
REMARK   15  A    between atoms: N_34  and  C_36
REMARK   16  A    between atoms: C_37  and  C_38
REMARK   17  A    between atoms: C_38  and  C_39
REMARK   18  A    between atoms: C_40  and  N_41
REMARK   19  A    between atoms: N_41  and  O_45
REMARK                            x       y       z     vdW  Elec       q    Type
REMARK                         _______ _______ _______ _____ _____    ______ ____
ROOT
ATOM      1  C   UNL     1      20.798  21.551  31.257  0.00  0.00    +0.000 C 
ATOM      2  C   UNL     1      20.876  22.673  30.833  0.00  0.00    +0.000 C 
ENDROOT
BRANCH   2   3
ATOM      3  N   UNL     1      20.962  23.932  30.356  0.00  0.00    +0.000 N 
ATOM      4  C   UNL     1      21.759  24.993  30.750  0.00  0.00    +0.000 C 
ATOM      5  O   UNL     1      22.443  25.017  31.767  0.00  0.00    +0.000 OA
BRANCH   4   6
ATOM      6  C   UNL     1      21.755  26.176  29.914  0.00  0.00    +0.000 C 
ATOM      7  C   UNL     1      21.765  27.159  29.223  0.00  0.00    +0.000 C 
BRANCH   7   8
ATOM      8  C   UNL     1      21.793  28.348  28.408  0.00  0.00    +0.000 C 
ATOM      9  O   UNL     1      20.929  29.198  28.569  0.00  0.00    +0.000 OA
ATOM     10  N   UNL     1      22.825  28.412  27.499  0.00  0.00    +0.000 N 
ATOM     11  H   UNL     1      23.464  27.627  27.493  0.00  0.00    +0.000 HD
BRANCH  10  12
ATOM     12  C   UNL     1      23.116  29.385  26.608  0.00  0.00    +0.000 C 
ATOM     13  C   UNL     1      23.379  30.249  25.818  0.00  0.00    +0.000 C 
BRANCH  13  14
ATOM     14  C   UNL     1      23.725  31.351  24.812  0.00  0.00    +0.000 C 
BRANCH  14  15
ATOM     15  C   UNL     1      24.078  32.454  23.810  0.00  0.00    +0.000 C 
ATOM     16  C   UNL     1      24.353  33.320  23.026  0.00  0.00    +0.000 C 
BRANCH  16  17
ATOM     17  N   UNL     1      24.661  34.298  22.152  0.00  0.00    +0.000 N 
ATOM     18  C   UNL     1      24.043  35.494  21.874  0.00  0.00    +0.000 C 
ATOM     19  O   UNL     1      23.041  35.989  22.359  0.00  0.00    +0.000 OA
ATOM     20  C   UNL     1      24.629  36.399  20.819  0.00  0.00    +0.000 C 
BRANCH  17  21
ATOM     21  O   UNL     1      25.835  33.937  21.441  0.00  0.00    +0.000 OA
ATOM     22  H   UNL     1      26.076  33.073  21.834  0.00  0.00    +0.000 HD
ENDBRANCH  17  21
ENDBRANCH  16  17
ENDBRANCH  14  15
ENDBRANCH  13  14
ENDBRANCH  10  12
ENDBRANCH   7   8
ENDBRANCH   4   6
BRANCH   3  23
ATOM     23  O   UNL     1      20.407  23.979  29.058  0.00  0.00    +0.000 OA
ATOM     24  H   UNL     1      21.027  24.580  28.604  0.00  0.00    +0.000 HD
ENDBRANCH   3  23
ENDBRANCH   2   3
BRANCH   1  25
ATOM     25  C   UNL     1      20.705  20.117  31.784  0.00  0.00    +0.000 C 
ATOM     26  C   UNL     1      20.644  18.990  32.191  0.00  0.00    +0.000 C 
BRANCH  26  27
ATOM     27  C   UNL     1      20.580  17.548  32.705  0.00  0.00    +0.000 C 
BRANCH  27  28
ATOM     28  N   UNL     1      20.540  16.278  33.164  0.00  0.00    +0.000 N 
ATOM     29  C   UNL     1      19.859  15.196  32.660  0.00  0.00    +0.000 C 
ATOM     30  O   UNL     1      19.143  15.200  31.669  0.00  0.00    +0.000 OA
ATOM     31  H   UNL     1      21.101  16.116  33.991  0.00  0.00    +0.000 HD
BRANCH  29  32
ATOM     32  C   UNL     1      20.032  13.964  33.391  0.00  0.00    +0.000 C 
ATOM     33  C   UNL     1      20.157  12.930  33.989  0.00  0.00    +0.000 C 
BRANCH  33  34
ATOM     34  C   UNL     1      20.298  11.671  34.692  0.00  0.00    +0.000 C 
ATOM     35  O   UNL     1      19.277  11.135  35.110  0.00  0.00    +0.000 OA
ATOM     36  N   UNL     1      21.581  11.183  34.875  0.00  0.00    +0.000 N 
BRANCH  36  37
ATOM     37  C   UNL     1      22.011   9.997  35.352  0.00  0.00    +0.000 C 
ATOM     38  C   UNL     1      22.398   8.943  35.777  0.00  0.00    +0.000 C 
BRANCH  38  39
ATOM     39  C   UNL     1      22.896   7.598  36.315  0.00  0.00    +0.000 C 
ATOM     40  C   UNL     1      23.290   6.547  36.739  0.00  0.00    +0.000 C 
BRANCH  40  41
ATOM     41  C   UNL     1      23.795   5.208  37.284  0.00  0.00    +0.000 C 
BRANCH  41  42
ATOM     42  N   UNL     1      24.274   3.937  37.800  0.00  0.00    +0.000 NA
ATOM     43  H   UNL     1      23.897   3.766  38.731  0.00  0.00    +0.000 HD
ATOM     44  H   UNL     1      23.944   3.169  37.218  0.00  0.00    +0.000 HD
ENDBRANCH  41  42
ENDBRANCH  40  41
ENDBRANCH  38  39
ENDBRANCH  36  37
BRANCH  36  45
ATOM     45  O   UNL     1      22.625  11.807  34.156  0.00  0.00    +0.000 OA
ATOM     46  H   UNL     1      22.843  11.122  33.498  0.00  0.00    +0.000 HD
ENDBRANCH  36  45
ENDBRANCH  33  34
ENDBRANCH  29  32
ENDBRANCH  27  28
ENDBRANCH  26  27
ENDBRANCH   1  25
TORSDOF 19
ENDMDL
MODEL 3
REMARK VINA RESULT:      -4.9      3.361     21.954
REMARK  Name = Deferoxamine.pdbqt.pdb
REMARK  19 active torsions:
REMARK  status: ('A' for Active; 'I' for Inactive)
REMARK    1  A    between atoms: C_1  and  C_2
REMARK    2  A    between atoms: C_3  and  C_4
REMARK    3  A    between atoms: C_4  and  N_5
REMARK    4  A    between atoms: C_6  and  C_9
REMARK    5  A    between atoms: C_10  and  C_11
REMARK    6  A    between atoms: N_13  and  O_14
REMARK    7  A    between atoms: N_13  and  C_16
REMARK    8  A    between atoms: C_17  and  C_18
REMARK    9  A    between atoms: C_19  and  C_20
REMARK   10  A    between atoms: C_20  and  N_21
REMARK   11  A    between atoms: C_24  and  N_25
REMARK   12  A    between atoms: N_25  and  O_28
REMARK   13  A    between atoms: C_26  and  C_30
REMARK   14  A    between atoms: C_31  and  C_32
REMARK   15  A    between atoms: N_34  and  C_36
REMARK   16  A    between atoms: C_37  and  C_38
REMARK   17  A    between atoms: C_38  and  C_39
REMARK   18  A    between atoms: C_40  and  N_41
REMARK   19  A    between atoms: N_41  and  O_45
REMARK                            x       y       z     vdW  Elec       q    Type
REMARK                         _______ _______ _______ _____ _____    ______ ____
ROOT
ATOM      1  C   UNL     1      21.800  18.439  32.108  0.00  0.00    +0.000 C 
ATOM      2  C   UNL     1      21.832  17.326  32.560  0.00  0.00    +0.000 C 
ENDROOT
BRANCH   2   3
ATOM      3  N   UNL     1      21.866  16.077  33.066  0.00  0.00    +0.000 N 
ATOM      4  C   UNL     1      21.826  15.632  34.377  0.00  0.00    +0.000 C 
ATOM      5  O   UNL     1      21.924  16.353  35.364  0.00  0.00    +0.000 OA
BRANCH   4   6
ATOM      6  C   UNL     1      21.692  14.207  34.594  0.00  0.00    +0.000 C 
ATOM      7  C   UNL     1      21.577  13.023  34.761  0.00  0.00    +0.000 C 
BRANCH   7   8
ATOM      8  C   UNL     1      21.420  11.601  34.948  0.00  0.00    +0.000 C 
ATOM      9  O   UNL     1      20.318  11.099  34.776  0.00  0.00    +0.000 OA
ATOM     10  N   UNL     1      22.564  10.928  35.313  0.00  0.00    +0.000 N 
ATOM     11  H   UNL     1      23.400  11.489  35.410  0.00  0.00    +0.000 HD
BRANCH  10  12
ATOM     12  C   UNL     1      22.734   9.610  35.558  0.00  0.00    +0.000 C 
ATOM     13  C   UNL     1      22.885   8.439  35.769  0.00  0.00    +0.000 C 
BRANCH  13  14
ATOM     14  C   UNL     1      23.079   6.942  36.031  0.00  0.00    +0.000 C 
BRANCH  14  15
ATOM     15  C   UNL     1      23.270   5.447  36.300  0.00  0.00    +0.000 C 
ATOM     16  C   UNL     1      23.423   4.275  36.512  0.00  0.00    +0.000 C 
BRANCH  16  17
ATOM     17  N   UNL     1      23.599   2.962  36.755  0.00  0.00    +0.000 N 
ATOM     18  C   UNL     1      23.409   1.859  35.956  0.00  0.00    +0.000 C 
ATOM     19  O   UNL     1      23.029   1.784  34.801  0.00  0.00    +0.000 OA
ATOM     20  C   UNL     1      23.692   0.487  36.515  0.00  0.00    +0.000 C 
BRANCH  17  21
ATOM     21  O   UNL     1      24.056   2.789  38.087  0.00  0.00    +0.000 OA
ATOM     22  H   UNL     1      24.716   2.070  38.004  0.00  0.00    +0.000 HD
ENDBRANCH  17  21
ENDBRANCH  16  17
ENDBRANCH  14  15
ENDBRANCH  13  14
ENDBRANCH  10  12
ENDBRANCH   7   8
ENDBRANCH   4   6
BRANCH   3  23
ATOM     23  O   UNL     1      21.527  15.151  32.054  0.00  0.00    +0.000 OA
ATOM     24  H   UNL     1      20.577  15.014  32.226  0.00  0.00    +0.000 HD
ENDBRANCH   3  23
ENDBRANCH   2   3
BRANCH   1  25
ATOM     25  C   UNL     1      21.745  19.859  31.539  0.00  0.00    +0.000 C 
ATOM     26  C   UNL     1      21.703  20.977  31.106  0.00  0.00    +0.000 C 
BRANCH  26  27
ATOM     27  C   UNL     1      21.651  22.410  30.566  0.00  0.00    +0.000 C 
BRANCH  27  28
ATOM     28  N   UNL     1      21.589  23.676  30.097  0.00  0.00    +0.000 N 
ATOM     29  C   UNL     1      21.319  24.839  30.778  0.00  0.00    +0.000 C 
ATOM     30  O   UNL     1      21.080  24.930  31.973  0.00  0.00    +0.000 OA
ATOM     31  H   UNL     1      21.775  23.763  29.106  0.00  0.00    +0.000 HD
BRANCH  29  32
ATOM     32  C   UNL     1      21.331  26.038  29.976  0.00  0.00    +0.000 C 
ATOM     33  C   UNL     1      21.364  27.041  29.314  0.00  0.00    +0.000 C 
BRANCH  33  34
ATOM     34  C   UNL     1      21.425  28.246  28.513  0.00  0.00    +0.000 C 
ATOM     35  O   UNL     1      20.651  29.156  28.794  0.00  0.00    +0.000 OA
ATOM     36  N   UNL     1      22.328  28.269  27.464  0.00  0.00    +0.000 N 
BRANCH  36  37
ATOM     37  C   UNL     1      22.708  29.277  26.651  0.00  0.00    +0.000 C 
ATOM     38  C   UNL     1      23.043  30.176  25.931  0.00  0.00    +0.000 C 
BRANCH  38  39
ATOM     39  C   UNL     1      23.464  31.326  25.010  0.00  0.00    +0.000 C 
ATOM     40  C   UNL     1      23.788  32.227  24.287  0.00  0.00    +0.000 C 
BRANCH  40  41
ATOM     41  C   UNL     1      24.198  33.378  23.365  0.00  0.00    +0.000 C 
BRANCH  41  42
ATOM     42  N   UNL     1      24.588  34.472  22.489  0.00  0.00    +0.000 NA
ATOM     43  H   UNL     1      24.815  34.120  21.561  0.00  0.00    +0.000 HD
ATOM     44  H   UNL     1      23.812  35.120  22.363  0.00  0.00    +0.000 HD
ENDBRANCH  41  42
ENDBRANCH  40  41
ENDBRANCH  38  39
ENDBRANCH  36  37
BRANCH  36  45
ATOM     45  O   UNL     1      23.287  27.232  27.405  0.00  0.00    +0.000 OA
ATOM     46  H   UNL     1      23.039  26.696  28.181  0.00  0.00    +0.000 HD
ENDBRANCH  36  45
ENDBRANCH  33  34
ENDBRANCH  29  32
ENDBRANCH  27  28
ENDBRANCH  26  27
ENDBRANCH   1  25
TORSDOF 19
ENDMDL
MODEL 4
REMARK VINA RESULT:      -4.7     32.791     39.560
REMARK  Name = Deferoxamine.pdbqt.pdb
REMARK  19 active torsions:
REMARK  status: ('A' for Active; 'I' for Inactive)
REMARK    1  A    between atoms: C_1  and  C_2
REMARK    2  A    between atoms: C_3  and  C_4
REMARK    3  A    between atoms: C_4  and  N_5
REMARK    4  A    between atoms: C_6  and  C_9
REMARK    5  A    between atoms: C_10  and  C_11
REMARK    6  A    between atoms: N_13  and  O_14
REMARK    7  A    between atoms: N_13  and  C_16
REMARK    8  A    between atoms: C_17  and  C_18
REMARK    9  A    between atoms: C_19  and  C_20
REMARK   10  A    between atoms: C_20  and  N_21
REMARK   11  A    between atoms: C_24  and  N_25
REMARK   12  A    between atoms: N_25  and  O_28
REMARK   13  A    between atoms: C_26  and  C_30
REMARK   14  A    between atoms: C_31  and  C_32
REMARK   15  A    between atoms: N_34  and  C_36
REMARK   16  A    between atoms: C_37  and  C_38
REMARK   17  A    between atoms: C_38  and  C_39
REMARK   18  A    between atoms: C_40  and  N_41
REMARK   19  A    between atoms: N_41  and  O_45
REMARK                            x       y       z     vdW  Elec       q    Type
REMARK                         _______ _______ _______ _____ _____    ______ ____
ROOT
ATOM      1  C   UNL     1      45.606   3.136  14.329  0.00  0.00    +0.000 C 
ATOM      2  C   UNL     1      45.532   1.950  14.150  0.00  0.00    +0.000 C 
ENDROOT
BRANCH   2   3
ATOM      3  N   UNL     1      45.448   0.619  13.950  0.00  0.00    +0.000 N 
ATOM      4  C   UNL     1      44.350  -0.224  13.939  0.00  0.00    +0.000 C 
ATOM      5  O   UNL     1      43.219   0.092  14.294  0.00  0.00    +0.000 OA
BRANCH   4   6
ATOM      6  C   UNL     1      44.563  -1.591  13.509  0.00  0.00    +0.000 C 
ATOM      7  C   UNL     1      44.753  -2.721  13.149  0.00  0.00    +0.000 C 
BRANCH   7   8
ATOM      8  C   UNL     1      44.997  -4.070  12.701  0.00  0.00    +0.000 C 
ATOM      9  O   UNL     1      45.354  -4.910  13.514  0.00  0.00    +0.000 OA
ATOM     10  N   UNL     1      44.797  -4.286  11.356  0.00  0.00    +0.000 N 
ATOM     11  H   UNL     1      44.495  -3.486  10.815  0.00  0.00    +0.000 HD
BRANCH  10  12
ATOM     12  C   UNL     1      44.941  -5.427  10.647  0.00  0.00    +0.000 C 
ATOM     13  C   UNL     1      45.075  -6.440  10.018  0.00  0.00    +0.000 C 
BRANCH  13  14
ATOM     14  C   UNL     1      45.254  -7.735   9.220  0.00  0.00    +0.000 C 
BRANCH  14  15
ATOM     15  C   UNL     1      45.440  -9.032   8.426  0.00  0.00    +0.000 C 
ATOM     16  C   UNL     1      45.585 -10.050   7.807  0.00  0.00    +0.000 C 
BRANCH  16  17
ATOM     17  N   UNL     1      45.741 -11.194   7.114  0.00  0.00    +0.000 N 
ATOM     18  C   UNL     1      44.968 -12.330   7.054  0.00  0.00    +0.000 C 
ATOM     19  O   UNL     1      43.923 -12.598   7.619  0.00  0.00    +0.000 OA
ATOM     20  C   UNL     1      45.408 -13.474   6.174  0.00  0.00    +0.000 C 
BRANCH  17  21
ATOM     21  O   UNL     1      46.934 -11.120   6.350  0.00  0.00    +0.000 OA
ATOM     22  H   UNL     1      47.182 -12.061   6.234  0.00  0.00    +0.000 HD
ENDBRANCH  17  21
ENDBRANCH  16  17
ENDBRANCH  14  15
ENDBRANCH  13  14
ENDBRANCH  10  12
ENDBRANCH   7   8
ENDBRANCH   4   6
BRANCH   3  23
ATOM     23  O   UNL     1      46.625   0.165  13.313  0.00  0.00    +0.000 OA
ATOM     24  H   UNL     1      46.928  -0.522  13.934  0.00  0.00    +0.000 HD
ENDBRANCH   3  23
ENDBRANCH   2   3
BRANCH   1  25
ATOM     25  C   UNL     1      45.705   4.644  14.573  0.00  0.00    +0.000 C 
ATOM     26  C   UNL     1      45.778   5.824  14.776  0.00  0.00    +0.000 C 
BRANCH  26  27
ATOM     27  C   UNL     1      45.868   7.329  15.050  0.00  0.00    +0.000 C 
BRANCH  27  28
ATOM     28  N   UNL     1      45.964   8.654  15.296  0.00  0.00    +0.000 N 
ATOM     29  C   UNL     1      46.282   9.675  14.433  0.00  0.00    +0.000 C 
ATOM     30  O   UNL     1      46.544   9.551  13.245  0.00  0.00    +0.000 OA
ATOM     31  H   UNL     1      45.764   8.915  16.253  0.00  0.00    +0.000 HD
BRANCH  29  32
ATOM     32  C   UNL     1      46.296  10.994  15.017  0.00  0.00    +0.000 C 
ATOM     33  C   UNL     1      46.321  12.084  15.521  0.00  0.00    +0.000 C 
BRANCH  33  34
ATOM     34  C   UNL     1      46.372  13.393  16.138  0.00  0.00    +0.000 C 
ATOM     35  O   UNL     1      47.469  13.817  16.486  0.00  0.00    +0.000 OA
ATOM     36  N   UNL     1      45.171  14.057  16.326  0.00  0.00    +0.000 N 
BRANCH  36  37
ATOM     37  C   UNL     1      44.917  15.318  16.731  0.00  0.00    +0.000 C 
ATOM     38  C   UNL     1      44.688  16.441  17.089  0.00  0.00    +0.000 C 
BRANCH  38  39
ATOM     39  C   UNL     1      44.397  17.876  17.540  0.00  0.00    +0.000 C 
ATOM     40  C   UNL     1      44.165  18.998  17.896  0.00  0.00    +0.000 C 
BRANCH  40  41
ATOM     41  C   UNL     1      43.866  20.428  18.352  0.00  0.00    +0.000 C 
BRANCH  41  42
ATOM     42  N   UNL     1      43.582  21.787  18.786  0.00  0.00    +0.000 NA
ATOM     43  H   UNL     1      43.917  22.457  18.095  0.00  0.00    +0.000 HD
ATOM     44  H   UNL     1      42.576  21.934  18.857  0.00  0.00    +0.000 HD
ENDBRANCH  41  42
ENDBRANCH  40  41
ENDBRANCH  38  39
ENDBRANCH  36  37
BRANCH  36  45
ATOM     45  O   UNL     1      44.027  13.530  15.684  0.00  0.00    +0.000 OA
ATOM     46  H   UNL     1      44.260  13.650  14.744  0.00  0.00    +0.000 HD
ENDBRANCH  36  45
ENDBRANCH  33  34
ENDBRANCH  29  32
ENDBRANCH  27  28
ENDBRANCH  26  27
ENDBRANCH   1  25
TORSDOF 19
ENDMDL
MODEL 5
REMARK VINA RESULT:      -4.6     22.895     31.069
REMARK  Name = Deferoxamine.pdbqt.pdb
REMARK  19 active torsions:
REMARK  status: ('A' for Active; 'I' for Inactive)
REMARK    1  A    between atoms: C_1  and  C_2
REMARK    2  A    between atoms: C_3  and  C_4
REMARK    3  A    between atoms: C_4  and  N_5
REMARK    4  A    between atoms: C_6  and  C_9
REMARK    5  A    between atoms: C_10  and  C_11
REMARK    6  A    between atoms: N_13  and  O_14
REMARK    7  A    between atoms: N_13  and  C_16
REMARK    8  A    between atoms: C_17  and  C_18
REMARK    9  A    between atoms: C_19  and  C_20
REMARK   10  A    between atoms: C_20  and  N_21
REMARK   11  A    between atoms: C_24  and  N_25
REMARK   12  A    between atoms: N_25  and  O_28
REMARK   13  A    between atoms: C_26  and  C_30
REMARK   14  A    between atoms: C_31  and  C_32
REMARK   15  A    between atoms: N_34  and  C_36
REMARK   16  A    between atoms: C_37  and  C_38
REMARK   17  A    between atoms: C_38  and  C_39
REMARK   18  A    between atoms: C_40  and  N_41
REMARK   19  A    between atoms: N_41  and  O_45
REMARK                            x       y       z     vdW  Elec       q    Type
REMARK                         _______ _______ _______ _____ _____    ______ ____
ROOT
ATOM      1  C   UNL     1      24.498  27.467   4.781  0.00  0.00    +0.000 C 
ATOM      2  C   UNL     1      24.832  26.733   3.890  0.00  0.00    +0.000 C 
ENDROOT
BRANCH   2   3
ATOM      3  N   UNL     1      25.205  25.910   2.889  0.00  0.00    +0.000 N 
ATOM      4  C   UNL     1      24.585  25.611   1.688  0.00  0.00    +0.000 C 
ATOM      5  O   UNL     1      23.442  25.938   1.389  0.00  0.00    +0.000 OA
BRANCH   4   6
ATOM      6  C   UNL     1      25.333  24.822   0.731  0.00  0.00    +0.000 C 
ATOM      7  C   UNL     1      25.961  24.179  -0.067  0.00  0.00    +0.000 C 
BRANCH   7   8
ATOM      8  C   UNL     1      26.717  23.426  -1.037  0.00  0.00    +0.000 C 
ATOM      9  O   UNL     1      26.145  22.577  -1.705  0.00  0.00    +0.000 OA
ATOM     10  N   UNL     1      28.052  23.750  -1.119  0.00  0.00    +0.000 N 
ATOM     11  H   UNL     1      28.373  24.483  -0.498  0.00  0.00    +0.000 HD
BRANCH  10  12
ATOM     12  C   UNL     1      29.007  23.229  -1.920  0.00  0.00    +0.000 C 
ATOM     13  C   UNL     1      29.856  22.762  -2.627  0.00  0.00    +0.000 C 
BRANCH  13  14
ATOM     14  C   UNL     1      30.941  22.159  -3.525  0.00  0.00    +0.000 C 
BRANCH  14  15
ATOM     15  C   UNL     1      32.027  21.563  -4.426  0.00  0.00    +0.000 C 
ATOM     16  C   UNL     1      32.880  21.096  -5.130  0.00  0.00    +0.000 C 
BRANCH  16  17
ATOM     17  N   UNL     1      33.840  20.569  -5.914  0.00  0.00    +0.000 N 
ATOM     18  C   UNL     1      34.942  21.140  -6.505  0.00  0.00    +0.000 C 
ATOM     19  O   UNL     1      35.344  22.290  -6.468  0.00  0.00    +0.000 OA
ATOM     20  C   UNL     1      35.853  20.283  -7.348  0.00  0.00    +0.000 C 
BRANCH  17  21
ATOM     21  O   UNL     1      33.580  19.188  -6.109  0.00  0.00    +0.000 OA
ATOM     22  H   UNL     1      33.439  18.858  -5.198  0.00  0.00    +0.000 HD
ENDBRANCH  17  21
ENDBRANCH  16  17
ENDBRANCH  14  15
ENDBRANCH  13  14
ENDBRANCH  10  12
ENDBRANCH   7   8
ENDBRANCH   4   6
BRANCH   3  23
ATOM     23  O   UNL     1      26.589  25.645   2.993  0.00  0.00    +0.000 OA
ATOM     24  H   UNL     1      26.749  25.817   3.939  0.00  0.00    +0.000 HD
ENDBRANCH   3  23
ENDBRANCH   2   3
BRANCH   1  25
ATOM     25  C   UNL     1      24.059  28.393   5.919  0.00  0.00    +0.000 C 
ATOM     26  C   UNL     1      23.726  29.127   6.808  0.00  0.00    +0.000 C 
BRANCH  26  27
ATOM     27  C   UNL     1      23.313  30.072   7.941  0.00  0.00    +0.000 C 
BRANCH  27  28
ATOM     28  N   UNL     1      22.935  30.912   8.929  0.00  0.00    +0.000 N 
ATOM     29  C   UNL     1      21.689  31.426   9.200  0.00  0.00    +0.000 C 
ATOM     30  O   UNL     1      20.669  31.199   8.565  0.00  0.00    +0.000 OA
ATOM     31  H   UNL     1      23.684  31.187   9.551  0.00  0.00    +0.000 HD
BRANCH  29  32
ATOM     32  C   UNL     1      21.620  32.303  10.343  0.00  0.00    +0.000 C 
ATOM     33  C   UNL     1      21.550  33.017  11.307  0.00  0.00    +0.000 C 
BRANCH  33  34
ATOM     34  C   UNL     1      21.465  33.859  12.482  0.00  0.00    +0.000 C 
ATOM     35  O   UNL     1      20.348  34.190  12.866  0.00  0.00    +0.000 OA
ATOM     36  N   UNL     1      22.655  34.260  13.066  0.00  0.00    +0.000 N 
BRANCH  36  37
ATOM     37  C   UNL     1      22.891  34.911  14.225  0.00  0.00    +0.000 C 
ATOM     38  C   UNL     1      23.097  35.489  15.256  0.00  0.00    +0.000 C 
BRANCH  38  39
ATOM     39  C   UNL     1      23.355  36.230  16.572  0.00  0.00    +0.000 C 
ATOM     40  C   UNL     1      23.562  36.809  17.602  0.00  0.00    +0.000 C 
BRANCH  40  41
ATOM     41  C   UNL     1      23.830  37.547  18.916  0.00  0.00    +0.000 C 
BRANCH  41  42
ATOM     42  N   UNL     1      24.083  38.247  20.165  0.00  0.00    +0.000 NA
ATOM     43  H   UNL     1      23.223  38.338  20.703  0.00  0.00    +0.000 HD
ATOM     44  H   UNL     1      24.726  37.713  20.748  0.00  0.00    +0.000 HD
ENDBRANCH  41  42
ENDBRANCH  40  41
ENDBRANCH  38  39
ENDBRANCH  36  37
BRANCH  36  45
ATOM     45  O   UNL     1      23.841  33.625  12.633  0.00  0.00    +0.000 OA
ATOM     46  H   UNL     1      24.164  34.255  11.963  0.00  0.00    +0.000 HD
ENDBRANCH  36  45
ENDBRANCH  33  34
ENDBRANCH  29  32
ENDBRANCH  27  28
ENDBRANCH  26  27
ENDBRANCH   1  25
TORSDOF 19
ENDMDL
MODEL 6
REMARK VINA RESULT:      -4.5     13.009     17.030
REMARK  Name = Deferoxamine.pdbqt.pdb
REMARK  19 active torsions:
REMARK  status: ('A' for Active; 'I' for Inactive)
REMARK    1  A    between atoms: C_1  and  C_2
REMARK    2  A    between atoms: C_3  and  C_4
REMARK    3  A    between atoms: C_4  and  N_5
REMARK    4  A    between atoms: C_6  and  C_9
REMARK    5  A    between atoms: C_10  and  C_11
REMARK    6  A    between atoms: N_13  and  O_14
REMARK    7  A    between atoms: N_13  and  C_16
REMARK    8  A    between atoms: C_17  and  C_18
REMARK    9  A    between atoms: C_19  and  C_20
REMARK   10  A    between atoms: C_20  and  N_21
REMARK   11  A    between atoms: C_24  and  N_25
REMARK   12  A    between atoms: N_25  and  O_28
REMARK   13  A    between atoms: C_26  and  C_30
REMARK   14  A    between atoms: C_31  and  C_32
REMARK   15  A    between atoms: N_34  and  C_36
REMARK   16  A    between atoms: C_37  and  C_38
REMARK   17  A    between atoms: C_38  and  C_39
REMARK   18  A    between atoms: C_40  and  N_41
REMARK   19  A    between atoms: N_41  and  O_45
REMARK                            x       y       z     vdW  Elec       q    Type
REMARK                         _______ _______ _______ _____ _____    ______ ____
ROOT
ATOM      1  C   UNL     1      13.551   8.698  29.564  0.00  0.00    +0.000 C 
ATOM      2  C   UNL     1      13.225   9.633  30.245  0.00  0.00    +0.000 C 
ENDROOT
BRANCH   2   3
ATOM      3  N   UNL     1      12.862  10.682  31.011  0.00  0.00    +0.000 N 
ATOM      4  C   UNL     1      13.091  10.943  32.351  0.00  0.00    +0.000 C 
ATOM      5  O   UNL     1      13.549  10.137  33.154  0.00  0.00    +0.000 OA
BRANCH   4   6
ATOM      6  C   UNL     1      12.729  12.255  32.846  0.00  0.00    +0.000 C 
ATOM      7  C   UNL     1      12.418  13.339  33.262  0.00  0.00    +0.000 C 
BRANCH   7   8
ATOM      8  C   UNL     1      12.021  14.633  33.759  0.00  0.00    +0.000 C 
ATOM      9  O   UNL     1      11.298  14.695  34.743  0.00  0.00    +0.000 OA
ATOM     10  N   UNL     1      12.512  15.708  33.052  0.00  0.00    +0.000 N 
ATOM     11  H   UNL     1      13.104  15.489  32.260  0.00  0.00    +0.000 HD
BRANCH  10  12
ATOM     12  C   UNL     1      12.321  17.027  33.267  0.00  0.00    +0.000 C 
ATOM     13  C   UNL     1      12.149  18.199  33.464  0.00  0.00    +0.000 C 
BRANCH  13  14
ATOM     14  C   UNL     1      11.930  19.692  33.725  0.00  0.00    +0.000 C 
BRANCH  14  15
ATOM     15  C   UNL     1      11.709  21.183  33.994  0.00  0.00    +0.000 C 
ATOM     16  C   UNL     1      11.535  22.352  34.203  0.00  0.00    +0.000 C 
BRANCH  16  17
ATOM     17  N   UNL     1      11.333  23.664  34.434  0.00  0.00    +0.000 N 
ATOM     18  C   UNL     1      11.939  24.781  33.909  0.00  0.00    +0.000 C 
ATOM     19  O   UNL     1      12.830  24.874  33.083  0.00  0.00    +0.000 OA
ATOM     20  C   UNL     1      11.495  26.146  34.372  0.00  0.00    +0.000 C 
BRANCH  17  21
ATOM     21  O   UNL     1      10.303  23.817  35.399  0.00  0.00    +0.000 OA
ATOM     22  H   UNL     1       9.661  24.403  34.947  0.00  0.00    +0.000 HD
ENDBRANCH  17  21
ENDBRANCH  16  17
ENDBRANCH  14  15
ENDBRANCH  13  14
ENDBRANCH  10  12
ENDBRANCH   7   8
ENDBRANCH   4   6
BRANCH   3  23
ATOM     23  O   UNL     1      12.533  11.776  30.181  0.00  0.00    +0.000 OA
ATOM     24  H   UNL     1      11.686  12.066  30.568  0.00  0.00    +0.000 HD
ENDBRANCH   3  23
ENDBRANCH   2   3
BRANCH   1  25
ATOM     25  C   UNL     1      13.968   7.499  28.708  0.00  0.00    +0.000 C 
ATOM     26  C   UNL     1      14.307   6.565  28.037  0.00  0.00    +0.000 C 
BRANCH  26  27
ATOM     27  C   UNL     1      14.753   5.377  27.177  0.00  0.00    +0.000 C 
BRANCH  27  28
ATOM     28  N   UNL     1      15.129   4.326  26.417  0.00  0.00    +0.000 N 
ATOM     29  C   UNL     1      15.789   3.179  26.789  0.00  0.00    +0.000 C 
ATOM     30  O   UNL     1      16.164   2.905  27.920  0.00  0.00    +0.000 OA
ATOM     31  H   UNL     1      14.876   4.407  25.440  0.00  0.00    +0.000 HD
BRANCH  29  32
ATOM     32  C   UNL     1      16.042   2.240  25.724  0.00  0.00    +0.000 C 
ATOM     33  C   UNL     1      16.228   1.453  24.836  0.00  0.00    +0.000 C 
BRANCH  33  34
ATOM     34  C   UNL     1      16.432   0.508  23.757  0.00  0.00    +0.000 C 
ATOM     35  O   UNL     1      15.600   0.484  22.856  0.00  0.00    +0.000 OA
ATOM     36  N   UNL     1      17.534  -0.328  23.841  0.00  0.00    +0.000 N 
BRANCH  36  37
ATOM     37  C   UNL     1      18.054  -1.190  22.943  0.00  0.00    +0.000 C 
ATOM     38  C   UNL     1      18.514  -1.957  22.144  0.00  0.00    +0.000 C 
BRANCH  38  39
ATOM     39  C   UNL     1      19.097  -2.942  21.125  0.00  0.00    +0.000 C 
ATOM     40  C   UNL     1      19.557  -3.716  20.331  0.00  0.00    +0.000 C 
BRANCH  40  41
ATOM     41  C   UNL     1      20.147  -4.704  19.321  0.00  0.00    +0.000 C 
BRANCH  41  42
ATOM     42  N   UNL     1      20.707  -5.642  18.363  0.00  0.00    +0.000 NA
ATOM     43  H   UNL     1      21.577  -6.036  18.717  0.00  0.00    +0.000 HD
ATOM     44  H   UNL     1      20.076  -6.431  18.227  0.00  0.00    +0.000 HD
ENDBRANCH  41  42
ENDBRANCH  40  41
ENDBRANCH  38  39
ENDBRANCH  36  37
BRANCH  36  45
ATOM     45  O   UNL     1      18.503  -0.033  24.827  0.00  0.00    +0.000 OA
ATOM     46  H   UNL     1      18.469  -0.837  25.377  0.00  0.00    +0.000 HD
ENDBRANCH  36  45
ENDBRANCH  33  34
ENDBRANCH  29  32
ENDBRANCH  27  28
ENDBRANCH  26  27
ENDBRANCH   1  25
TORSDOF 19
ENDMDL
MODEL 7
REMARK VINA RESULT:      -4.5     28.038     34.249
REMARK  Name = Deferoxamine.pdbqt.pdb
REMARK  19 active torsions:
REMARK  status: ('A' for Active; 'I' for Inactive)
REMARK    1  A    between atoms: C_1  and  C_2
REMARK    2  A    between atoms: C_3  and  C_4
REMARK    3  A    between atoms: C_4  and  N_5
REMARK    4  A    between atoms: C_6  and  C_9
REMARK    5  A    between atoms: C_10  and  C_11
REMARK    6  A    between atoms: N_13  and  O_14
REMARK    7  A    between atoms: N_13  and  C_16
REMARK    8  A    between atoms: C_17  and  C_18
REMARK    9  A    between atoms: C_19  and  C_20
REMARK   10  A    between atoms: C_20  and  N_21
REMARK   11  A    between atoms: C_24  and  N_25
REMARK   12  A    between atoms: N_25  and  O_28
REMARK   13  A    between atoms: C_26  and  C_30
REMARK   14  A    between atoms: C_31  and  C_32
REMARK   15  A    between atoms: N_34  and  C_36
REMARK   16  A    between atoms: C_37  and  C_38
REMARK   17  A    between atoms: C_38  and  C_39
REMARK   18  A    between atoms: C_40  and  N_41
REMARK   19  A    between atoms: N_41  and  O_45
REMARK                            x       y       z     vdW  Elec       q    Type
REMARK                         _______ _______ _______ _____ _____    ______ ____
ROOT
ATOM      1  C   UNL     1      27.443  23.448  -1.132  0.00  0.00    +0.000 C 
ATOM      2  C   UNL     1      28.433  23.772  -1.731  0.00  0.00    +0.000 C 
ENDROOT
BRANCH   2   3
ATOM      3  N   UNL     1      29.544  24.135  -2.405  0.00  0.00    +0.000 N 
ATOM      4  C   UNL     1      29.713  25.017  -3.458  0.00  0.00    +0.000 C 
ATOM      5  O   UNL     1      28.801  25.524  -4.101  0.00  0.00    +0.000 OA
BRANCH   4   6
ATOM      6  C   UNL     1      31.071  25.337  -3.848  0.00  0.00    +0.000 C 
ATOM      7  C   UNL     1      32.202  25.591  -4.164  0.00  0.00    +0.000 C 
BRANCH   7   8
ATOM      8  C   UNL     1      33.567  25.891  -4.521  0.00  0.00    +0.000 C 
ATOM      9  O   UNL     1      33.848  27.021  -4.894  0.00  0.00    +0.000 OA
ATOM     10  N   UNL     1      34.448  24.840  -4.401  0.00  0.00    +0.000 N 
ATOM     11  H   UNL     1      34.059  23.966  -4.072  0.00  0.00    +0.000 HD
BRANCH  10  12
ATOM     12  C   UNL     1      35.774  24.808  -4.657  0.00  0.00    +0.000 C 
ATOM     13  C   UNL     1      36.953  24.784  -4.881  0.00  0.00    +0.000 C 
BRANCH  13  14
ATOM     14  C   UNL     1      38.459  24.757  -5.158  0.00  0.00    +0.000 C 
BRANCH  14  15
ATOM     15  C   UNL     1      39.964  24.735  -5.442  0.00  0.00    +0.000 C 
ATOM     16  C   UNL     1      41.143  24.715  -5.664  0.00  0.00    +0.000 C 
BRANCH  16  17
ATOM     17  N   UNL     1      42.467  24.685  -5.913  0.00  0.00    +0.000 N 
ATOM     18  C   UNL     1      43.341  23.633  -6.042  0.00  0.00    +0.000 C 
ATOM     19  O   UNL     1      43.141  22.433  -5.967  0.00  0.00    +0.000 OA
ATOM     20  C   UNL     1      44.797  23.914  -6.323  0.00  0.00    +0.000 C 
BRANCH  17  21
ATOM     21  O   UNL     1      42.948  26.013  -6.046  0.00  0.00    +0.000 OA
ATOM     22  H   UNL     1      43.484  25.975  -6.865  0.00  0.00    +0.000 HD
ENDBRANCH  17  21
ENDBRANCH  16  17
ENDBRANCH  14  15
ENDBRANCH  13  14
ENDBRANCH  10  12
ENDBRANCH   7   8
ENDBRANCH   4   6
BRANCH   3  23
ATOM     23  O   UNL     1      30.684  23.810  -1.636  0.00  0.00    +0.000 OA
ATOM     24  H   UNL     1      30.482  22.895  -1.367  0.00  0.00    +0.000 HD
ENDBRANCH   3  23
ENDBRANCH   2   3
BRANCH   1  25
ATOM     25  C   UNL     1      26.189  23.022  -0.364  0.00  0.00    +0.000 C 
ATOM     26  C   UNL     1      25.203  22.681   0.228  0.00  0.00    +0.000 C 
BRANCH  26  27
ATOM     27  C   UNL     1      23.939  22.237   0.972  0.00  0.00    +0.000 C 
BRANCH  27  28
ATOM     28  N   UNL     1      22.819  21.863   1.627  0.00  0.00    +0.000 N 
ATOM     29  C   UNL     1      22.385  22.227   2.879  0.00  0.00    +0.000 C 
ATOM     30  O   UNL     1      22.965  22.983   3.645  0.00  0.00    +0.000 OA
ATOM     31  H   UNL     1      22.223  21.232   1.106  0.00  0.00    +0.000 HD
BRANCH  29  32
ATOM     32  C   UNL     1      21.129  21.647   3.289  0.00  0.00    +0.000 C 
ATOM     33  C   UNL     1      20.094  21.143   3.632  0.00  0.00    +0.000 C 
BRANCH  33  34
ATOM     34  C   UNL     1      18.858  20.519   4.059  0.00  0.00    +0.000 C 
ATOM     35  O   UNL     1      18.232  21.058   4.966  0.00  0.00    +0.000 OA
ATOM     36  N   UNL     1      18.492  19.338   3.436  0.00  0.00    +0.000 N 
BRANCH  36  37
ATOM     37  C   UNL     1      17.353  18.619   3.515  0.00  0.00    +0.000 C 
ATOM     38  C   UNL     1      16.342  17.976   3.586  0.00  0.00    +0.000 C 
BRANCH  38  39
ATOM     39  C   UNL     1      15.054  17.150   3.674  0.00  0.00    +0.000 C 
ATOM     40  C   UNL     1      14.044  16.507   3.747  0.00  0.00    +0.000 C 
BRANCH  40  41
ATOM     41  C   UNL     1      12.753  15.690   3.843  0.00  0.00    +0.000 C 
BRANCH  41  42
ATOM     42  N   UNL     1      11.527  14.914   3.934  0.00  0.00    +0.000 NA
ATOM     43  H   UNL     1      11.571  14.272   4.724  0.00  0.00    +0.000 HD
ATOM     44  H   UNL     1      10.732  15.525   4.112  0.00  0.00    +0.000 HD
ENDBRANCH  41  42
ENDBRANCH  40  41
ENDBRANCH  38  39
ENDBRANCH  36  37
BRANCH  36  45
ATOM     45  O   UNL     1      19.206  18.963   2.276  0.00  0.00    +0.000 OA
ATOM     46  H   UNL     1      19.181  19.789   1.758  0.00  0.00    +0.000 HD
ENDBRANCH  36  45
ENDBRANCH  33  34
ENDBRANCH  29  32
ENDBRANCH  27  28
ENDBRANCH  26  27
ENDBRANCH   1  25
TORSDOF 19
ENDMDL
MODEL 8
REMARK VINA RESULT:      -4.4     30.634     36.356
REMARK  Name = Deferoxamine.pdbqt.pdb
REMARK  19 active torsions:
REMARK  status: ('A' for Active; 'I' for Inactive)
REMARK    1  A    between atoms: C_1  and  C_2
REMARK    2  A    between atoms: C_3  and  C_4
REMARK    3  A    between atoms: C_4  and  N_5
REMARK    4  A    between atoms: C_6  and  C_9
REMARK    5  A    between atoms: C_10  and  C_11
REMARK    6  A    between atoms: N_13  and  O_14
REMARK    7  A    between atoms: N_13  and  C_16
REMARK    8  A    between atoms: C_17  and  C_18
REMARK    9  A    between atoms: C_19  and  C_20
REMARK   10  A    between atoms: C_20  and  N_21
REMARK   11  A    between atoms: C_24  and  N_25
REMARK   12  A    between atoms: N_25  and  O_28
REMARK   13  A    between atoms: C_26  and  C_30
REMARK   14  A    between atoms: C_31  and  C_32
REMARK   15  A    between atoms: N_34  and  C_36
REMARK   16  A    between atoms: C_37  and  C_38
REMARK   17  A    between atoms: C_38  and  C_39
REMARK   18  A    between atoms: C_40  and  N_41
REMARK   19  A    between atoms: N_41  and  O_45
REMARK                            x       y       z     vdW  Elec       q    Type
REMARK                         _______ _______ _______ _____ _____    ______ ____
ROOT
ATOM      1  C   UNL     1      43.675   3.796  16.669  0.00  0.00    +0.000 C 
ATOM      2  C   UNL     1      44.050   3.013  15.839  0.00  0.00    +0.000 C 
ENDROOT
BRANCH   2   3
ATOM      3  N   UNL     1      44.471   2.132  14.908  0.00  0.00    +0.000 N 
ATOM      4  C   UNL     1      43.764   1.418  13.956  0.00  0.00    +0.000 C 
ATOM      5  O   UNL     1      42.541   1.339  13.905  0.00  0.00    +0.000 OA
BRANCH   4   6
ATOM      6  C   UNL     1      44.528   0.684  12.969  0.00  0.00    +0.000 C 
ATOM      7  C   UNL     1      45.169   0.069  12.160  0.00  0.00    +0.000 C 
BRANCH   7   8
ATOM      8  C   UNL     1      45.958  -0.667  11.203  0.00  0.00    +0.000 C 
ATOM      9  O   UNL     1      45.430  -1.053  10.170  0.00  0.00    +0.000 OA
ATOM     10  N   UNL     1      47.272  -0.870  11.560  0.00  0.00    +0.000 N 
ATOM     11  H   UNL     1      47.559  -0.482  12.450  0.00  0.00    +0.000 HD
BRANCH  10  12
ATOM     12  C   UNL     1      48.247  -1.515  10.883  0.00  0.00    +0.000 C 
ATOM     13  C   UNL     1      49.114  -2.084  10.279  0.00  0.00    +0.000 C 
BRANCH  13  14
ATOM     14  C   UNL     1      50.223  -2.802   9.502  0.00  0.00    +0.000 C 
BRANCH  14  15
ATOM     15  C   UNL     1      51.324  -3.525   8.722  0.00  0.00    +0.000 C 
ATOM     16  C   UNL     1      52.187  -4.094   8.112  0.00  0.00    +0.000 C 
BRANCH  16  17
ATOM     17  N   UNL     1      53.151  -4.738   7.426  0.00  0.00    +0.000 N 
ATOM     18  C   UNL     1      54.516  -4.580   7.416  0.00  0.00    +0.000 C 
ATOM     19  O   UNL     1      55.220  -3.804   8.039  0.00  0.00    +0.000 OA
ATOM     20  C   UNL     1      55.354  -5.463   6.525  0.00  0.00    +0.000 C 
BRANCH  17  21
ATOM     21  O   UNL     1      52.557  -5.727   6.599  0.00  0.00    +0.000 OA
ATOM     22  H   UNL     1      51.669  -5.356   6.413  0.00  0.00    +0.000 HD
ENDBRANCH  17  21
ENDBRANCH  16  17
ENDBRANCH  14  15
ENDBRANCH  13  14
ENDBRANCH  10  12
ENDBRANCH   7   8
ENDBRANCH   4   6
BRANCH   3  23
ATOM     23  O   UNL     1      45.859   2.295  14.702  0.00  0.00    +0.000 OA
ATOM     24  H   UNL     1      45.908   2.329  13.729  0.00  0.00    +0.000 HD
ENDBRANCH   3  23
ENDBRANCH   2   3
BRANCH   1  25
ATOM     25  C   UNL     1      43.208   4.788  17.738  0.00  0.00    +0.000 C 
ATOM     26  C   UNL     1      42.836   5.555  18.582  0.00  0.00    +0.000 C 
BRANCH  26  27
ATOM     27  C   UNL     1      42.356   6.524  19.668  0.00  0.00    +0.000 C 
BRANCH  27  28
ATOM     28  N   UNL     1      41.951   7.378  20.632  0.00  0.00    +0.000 N 
ATOM     29  C   UNL     1      40.672   7.729  20.996  0.00  0.00    +0.000 C 
ATOM     30  O   UNL     1      39.643   7.310  20.487  0.00  0.00    +0.000 OA
ATOM     31  H   UNL     1      42.705   7.806  21.154  0.00  0.00    +0.000 HD
BRANCH  29  32
ATOM     32  C   UNL     1      40.579   8.677  22.080  0.00  0.00    +0.000 C 
ATOM     33  C   UNL     1      40.506   9.484  22.967  0.00  0.00    +0.000 C 
BRANCH  33  34
ATOM     34  C   UNL     1      40.410  10.472  24.022  0.00  0.00    +0.000 C 
ATOM     35  O   UNL     1      40.114  10.079  25.145  0.00  0.00    +0.000 OA
ATOM     36  N   UNL     1      40.623  11.796  23.676  0.00  0.00    +0.000 N 
BRANCH  36  37
ATOM     37  C   UNL     1      40.741  12.898  24.446  0.00  0.00    +0.000 C 
ATOM     38  C   UNL     1      40.843  13.877  25.133  0.00  0.00    +0.000 C 
BRANCH  38  39
ATOM     39  C   UNL     1      40.967  15.128  26.009  0.00  0.00    +0.000 C 
ATOM     40  C   UNL     1      41.069  16.106  26.696  0.00  0.00    +0.000 C 
BRANCH  40  41
ATOM     41  C   UNL     1      41.204  17.353  27.573  0.00  0.00    +0.000 C 
BRANCH  41  42
ATOM     42  N   UNL     1      41.330  18.538  28.406  0.00  0.00    +0.000 NA
ATOM     43  H   UNL     1      40.604  18.550  29.120  0.00  0.00    +0.000 HD
ATOM     44  H   UNL     1      42.218  18.528  28.907  0.00  0.00    +0.000 HD
ENDBRANCH  41  42
ENDBRANCH  40  41
ENDBRANCH  38  39
ENDBRANCH  36  37
BRANCH  36  45
ATOM     45  O   UNL     1      41.158  12.058  22.395  0.00  0.00    +0.000 OA
ATOM     46  H   UNL     1      40.762  12.926  22.193  0.00  0.00    +0.000 HD
ENDBRANCH  36  45
ENDBRANCH  33  34
ENDBRANCH  29  32
ENDBRANCH  27  28
ENDBRANCH  26  27
ENDBRANCH   1  25
TORSDOF 19
ENDMDL
MODEL 9
REMARK VINA RESULT:      -4.4     15.040     19.349
REMARK  Name = Deferoxamine.pdbqt.pdb
REMARK  19 active torsions:
REMARK  status: ('A' for Active; 'I' for Inactive)
REMARK    1  A    between atoms: C_1  and  C_2
REMARK    2  A    between atoms: C_3  and  C_4
REMARK    3  A    between atoms: C_4  and  N_5
REMARK    4  A    between atoms: C_6  and  C_9
REMARK    5  A    between atoms: C_10  and  C_11
REMARK    6  A    between atoms: N_13  and  O_14
REMARK    7  A    between atoms: N_13  and  C_16
REMARK    8  A    between atoms: C_17  and  C_18
REMARK    9  A    between atoms: C_19  and  C_20
REMARK   10  A    between atoms: C_20  and  N_21
REMARK   11  A    between atoms: C_24  and  N_25
REMARK   12  A    between atoms: N_25  and  O_28
REMARK   13  A    between atoms: C_26  and  C_30
REMARK   14  A    between atoms: C_31  and  C_32
REMARK   15  A    between atoms: N_34  and  C_36
REMARK   16  A    between atoms: C_37  and  C_38
REMARK   17  A    between atoms: C_38  and  C_39
REMARK   18  A    between atoms: C_40  and  N_41
REMARK   19  A    between atoms: N_41  and  O_45
REMARK                            x       y       z     vdW  Elec       q    Type
REMARK                         _______ _______ _______ _____ _____    ______ ____
ROOT
ATOM      1  C   UNL     1      21.539  31.051  24.275  0.00  0.00    +0.000 C 
ATOM      2  C   UNL     1      20.363  30.846  24.405  0.00  0.00    +0.000 C 
ENDROOT
BRANCH   2   3
ATOM      3  N   UNL     1      19.042  30.615  24.552  0.00  0.00    +0.000 N 
ATOM      4  C   UNL     1      17.963  31.027  23.789  0.00  0.00    +0.000 C 
ATOM      5  O   UNL     1      18.018  31.859  22.889  0.00  0.00    +0.000 OA
BRANCH   4   6
ATOM      6  C   UNL     1      16.669  30.457  24.101  0.00  0.00    +0.000 C 
ATOM      7  C   UNL     1      15.600  29.979  24.372  0.00  0.00    +0.000 C 
BRANCH   7   8
ATOM      8  C   UNL     1      14.329  29.387  24.707  0.00  0.00    +0.000 C 
ATOM      9  O   UNL     1      13.621  29.933  25.540  0.00  0.00    +0.000 OA
ATOM     10  N   UNL     1      14.027  28.226  24.031  0.00  0.00    +0.000 N 
ATOM     11  H   UNL     1      14.718  27.903  23.366  0.00  0.00    +0.000 HD
BRANCH  10  12
ATOM     12  C   UNL     1      12.927  27.448  24.125  0.00  0.00    +0.000 C 
ATOM     13  C   UNL     1      11.947  26.759  24.204  0.00  0.00    +0.000 C 
BRANCH  13  14
ATOM     14  C   UNL     1      10.696  25.880  24.295  0.00  0.00    +0.000 C 
BRANCH  14  15
ATOM     15  C   UNL     1       9.447  24.998  24.378  0.00  0.00    +0.000 C 
ATOM     16  C   UNL     1       8.467  24.307  24.440  0.00  0.00    +0.000 C 
BRANCH  16  17
ATOM     17  N   UNL     1       7.367  23.533  24.504  0.00  0.00    +0.000 N 
ATOM     18  C   UNL     1       6.139  23.749  25.084  0.00  0.00    +0.000 C 
ATOM     19  O   UNL     1       5.721  24.715  25.697  0.00  0.00    +0.000 OA
ATOM     20  C   UNL     1       5.083  22.675  24.994  0.00  0.00    +0.000 C 
BRANCH  17  21
ATOM     21  O   UNL     1       7.617  22.307  23.835  0.00  0.00    +0.000 OA
ATOM     22  H   UNL     1       7.434  22.525  22.897  0.00  0.00    +0.000 HD
ENDBRANCH  17  21
ENDBRANCH  16  17
ENDBRANCH  14  15
ENDBRANCH  13  14
ENDBRANCH  10  12
ENDBRANCH   7   8
ENDBRANCH   4   6
BRANCH   3  23
ATOM     23  O   UNL     1      18.853  29.500  25.400  0.00  0.00    +0.000 OA
ATOM     24  H   UNL     1      17.927  29.625  25.680  0.00  0.00    +0.000 HD
ENDBRANCH   3  23
ENDBRANCH   2   3
BRANCH   1  25
ATOM     25  C   UNL     1      23.042  31.298  24.116  0.00  0.00    +0.000 C 
ATOM     26  C   UNL     1      24.221  31.486  24.004  0.00  0.00    +0.000 C 
BRANCH  26  27
ATOM     27  C   UNL     1      25.730  31.719  23.872  0.00  0.00    +0.000 C 
BRANCH  27  28
ATOM     28  N   UNL     1      27.063  31.909  23.766  0.00  0.00    +0.000 N 
ATOM     29  C   UNL     1      27.827  32.959  24.219  0.00  0.00    +0.000 C 
ATOM     30  O   UNL     1      27.412  33.939  24.819  0.00  0.00    +0.000 OA
ATOM     31  H   UNL     1      27.554  31.163  23.289  0.00  0.00    +0.000 HD
BRANCH  29  32
ATOM     32  C   UNL     1      29.240  32.856  23.943  0.00  0.00    +0.000 C 
ATOM     33  C   UNL     1      30.414  32.789  23.699  0.00  0.00    +0.000 C 
BRANCH  33  34
ATOM     34  C   UNL     1      31.830  32.731  23.401  0.00  0.00    +0.000 C 
ATOM     35  O   UNL     1      32.598  33.301  24.171  0.00  0.00    +0.000 OA
ATOM     36  N   UNL     1      32.213  32.067  22.248  0.00  0.00    +0.000 N 
BRANCH  36  37
ATOM     37  C   UNL     1      33.438  31.731  21.792  0.00  0.00    +0.000 C 
ATOM     38  C   UNL     1      34.526  31.428  21.388  0.00  0.00    +0.000 C 
BRANCH  38  39
ATOM     39  C   UNL     1      35.918  31.040  20.879  0.00  0.00    +0.000 C 
ATOM     40  C   UNL     1      37.008  30.731  20.483  0.00  0.00    +0.000 C 
BRANCH  40  41
ATOM     41  C   UNL     1      38.398  30.332  19.978  0.00  0.00    +0.000 C 
BRANCH  41  42
ATOM     42  N   UNL     1      39.717  29.955  19.500  0.00  0.00    +0.000 NA
ATOM     43  H   UNL     1      39.875  30.323  18.563  0.00  0.00    +0.000 HD
ATOM     44  H   UNL     1      40.440  30.365  20.089  0.00  0.00    +0.000 HD
ENDBRANCH  41  42
ENDBRANCH  40  41
ENDBRANCH  38  39
ENDBRANCH  36  37
BRANCH  36  45
ATOM     45  O   UNL     1      31.235  31.290  21.587  0.00  0.00    +0.000 OA
ATOM     46  H   UNL     1      31.747  30.928  20.840  0.00  0.00    +0.000 HD
ENDBRANCH  36  45
ENDBRANCH  33  34
ENDBRANCH  29  32
ENDBRANCH  27  28
ENDBRANCH  26  27
ENDBRANCH   1  25
TORSDOF 19
ENDMDL
