MODEL 1
REMARK VINA RESULT:      -6.8      0.000      0.000
REMARK  Name = 
REMARK  25 active torsions:
REMARK  status: ('A' for Active; 'I' for Inactive)
REMARK    1  A    between atoms: O_2  and  C_17
REMARK    2  A    between atoms: O_2  and  C_36
REMARK    3  A    between atoms: O_3  and  C_20
REMARK    4  A    between atoms: O_3  and  C_37
REMARK    5  A    between atoms: O_4  and  C_21
REMARK    6  A    between atoms: O_5  and  C_22
REMARK    7  A    between atoms: O_7  and  C_30
REMARK    8  A    between atoms: O_8  and  C_31
REMARK    9  A    between atoms: O_8  and  C_39
REMARK   10  A    between atoms: O_12  and  C_41
REMARK   11  A    between atoms: O_13  and  C_51
REMARK   12  A    between atoms: O_13  and  C_55
REMARK   13  A    between atoms: N_15  and  C_44
REMARK   14  A    between atoms: C_18  and  C_29
REMARK   15  A    between atoms: C_24  and  C_33
REMARK   16  A    between atoms: C_24  and  C_34
REMARK   17  A    between atoms: C_32  and  C_35
REMARK   18  A    between atoms: C_36  and  C_38
REMARK   19  A    between atoms: C_37  and  C_40
REMARK   20  A    between atoms: C_39  and  C_41
REMARK   21  A    between atoms: C_41  and  C_44
REMARK   22  A    between atoms: C_44  and  C_48
REMARK   23  A    between atoms: C_55  and  C_56
REMARK   24  A    between atoms: C_55  and  C_57
REMARK   25  A    between atoms: C_55  and  C_58
REMARK                            x       y       z     vdW  Elec       q    Type
REMARK                         _______ _______ _______ _____ _____    ______ ____
ROOT
ATOM      1  O   UNL     1      46.598   4.860  14.779  0.00  0.00    +0.000 OA
ATOM      2  O   UNL     1      51.664   0.568  15.817  0.00  0.00    +0.000 OA
ATOM      3  C   UNL     1      48.723   2.613  13.264  0.00  0.00    +0.000 C 
ATOM      4  C   UNL     1      47.335   3.142  13.731  0.00  0.00    +0.000 C 
ATOM      5  C   UNL     1      49.452   1.619  14.706  0.00  0.00    +0.000 C 
ATOM      6  C   UNL     1      47.864   4.146  14.835  0.00  0.00    +0.000 C 
ATOM      7  C   UNL     1      48.670   1.945  11.525  0.00  0.00    +0.000 C 
ATOM      8  C   UNL     1      49.767   1.113  10.224  0.00  0.00    +0.000 C 
ATOM      9  C   UNL     1      49.580   2.685  15.872  0.00  0.00    +0.000 C 
ATOM     10  C   UNL     1      48.299   3.531  16.148  0.00  0.00    +0.000 C 
ATOM     11  C   UNL     1      51.375   0.390  10.430  0.00  0.00    +0.000 C 
ATOM     12  C   UNL     1      46.560   4.466  13.350  0.00  0.00    +0.000 C 
ATOM     13  C   UNL     1      51.042   0.611  14.733  0.00  0.00    +0.000 C 
ATOM     14  C   UNL     1      48.945  -0.167   9.734  0.00  0.00    +0.000 C 
ATOM     15  C   UNL     1      51.389  -0.690  11.611  0.00  0.00    +0.000 C 
ATOM     16  C   UNL     1      48.423   0.562  15.291  0.00  0.00    +0.000 C 
ATOM     17  C   UNL     1      51.856  -0.381  13.307  0.00  0.00    +0.000 C 
ATOM     18  C   UNL     1      49.287  -1.576  10.402  0.00  0.00    +0.000 C 
ATOM     19  C   UNL     1      50.524  -1.728  11.358  0.00  0.00    +0.000 C 
ATOM     20  C   UNL     1      51.713  -0.404   9.069  0.00  0.00    +0.000 C 
ATOM     21  C   UNL     1      52.639   1.306  10.369  0.00  0.00    +0.000 C 
ATOM     22  C   UNL     1      50.521  -2.997  12.174  0.00  0.00    +0.000 C 
ENDROOT
BRANCH  17  23
ATOM     23  O   UNL     1      53.275  -0.232  13.273  0.00  0.00    +0.000 OA
ATOM     24  H   UNL     1      53.590  -0.956  12.699  0.00  0.00    +0.000 HD
ENDBRANCH  17  23
BRANCH   9  25
ATOM     25  O   UNL     1      50.618   3.606  15.537  0.00  0.00    +0.000 OA
ATOM     26  H   UNL     1      50.954   3.975  16.374  0.00  0.00    +0.000 HD
ENDBRANCH   9  25
BRANCH   8  27
ATOM     27  O   UNL     1      49.787   2.039   9.120  0.00  0.00    +0.000 OA
ATOM     28  H   UNL     1      50.130   2.896   9.428  0.00  0.00    +0.000 HD
ENDBRANCH   8  27
BRANCH  18  29
ATOM     29  O   UNL     1      48.116  -2.000  11.159  0.00  0.00    +0.000 OA
BRANCH  29  31
ATOM     30  O   UNL     1      46.475  -2.544   9.707  0.00  0.00    +0.000 OA
ATOM     31  C   UNL     1      47.272  -2.885  10.574  0.00  0.00    +0.000 C 
BRANCH  31  32
ATOM     32  C   UNL     1      47.273  -4.290  11.188  0.00  0.00    +0.000 C 
BRANCH  32  33
ATOM     33  O   UNL     1      47.368  -5.370  10.252  0.00  0.00    +0.000 OA
ATOM     34  H   UNL     1      46.453  -5.565   9.972  0.00  0.00    +0.000 HD
ENDBRANCH  32  33
BRANCH  32  35
ATOM     35  C   UNL     1      46.021  -4.430  12.095  0.00  0.00    +0.000 C 
BRANCH  35  36
ATOM     36  C   UNL     1      46.379  -4.723  13.548  0.00  0.00    +0.000 A 
ATOM     37  C   UNL     1      47.680  -4.463  14.007  0.00  0.00    +0.000 A 
ATOM     38  C   UNL     1      45.432  -5.213  14.462  0.00  0.00    +0.000 A 
ATOM     39  C   UNL     1      48.032  -4.711  15.336  0.00  0.00    +0.000 A 
ATOM     40  C   UNL     1      45.786  -5.461  15.790  0.00  0.00    +0.000 A 
ATOM     41  C   UNL     1      47.086  -5.213  16.226  0.00  0.00    +0.000 A 
ENDBRANCH  35  36
BRANCH  35  43
ATOM     42  O   UNL     1      43.715  -4.144  10.405  0.00  0.00    +0.000 OA
ATOM     43  N   UNL     1      45.128  -5.475  11.613  0.00  0.00    +0.000 N 
ATOM     44  C   UNL     1      44.000  -5.221  10.902  0.00  0.00    +0.000 C 
ATOM     45  H   UNL     1      45.177  -6.378  12.066  0.00  0.00    +0.000 HD
BRANCH  44  46
ATOM     46  O   UNL     1      43.276  -6.357  10.821  0.00  0.00    +0.000 OA
BRANCH  46  47
ATOM     47  C   UNL     1      42.032  -6.497  11.554  0.00  0.00    +0.000 C 
ATOM     48  C   UNL     1      41.925  -5.462  12.678  0.00  0.00    +0.000 C 
ATOM     49  C   UNL     1      40.935  -6.211  10.517  0.00  0.00    +0.000 C 
ATOM     50  C   UNL     1      41.853  -7.928  12.074  0.00  0.00    +0.000 C 
ENDBRANCH  46  47
ENDBRANCH  44  46
ENDBRANCH  35  43
ENDBRANCH  32  35
ENDBRANCH  31  32
ENDBRANCH  29  31
ENDBRANCH  18  29
BRANCH   7  51
ATOM     51  O   UNL     1      48.470   0.767  12.078  0.00  0.00    +0.000 OA
BRANCH  51  53
ATOM     52  O   UNL     1      47.144   1.766  10.949  0.00  0.00    +0.000 OA
ATOM     53  C   UNL     1      47.161   0.769  11.664  0.00  0.00    +0.000 C 
BRANCH  53  54
ATOM     54  C   UNL     1      45.803  -0.370  12.391  0.00  0.00    +0.000 A 
ATOM     55  C   UNL     1      45.854  -1.019  13.701  0.00  0.00    +0.000 A 
ATOM     56  C   UNL     1      44.512  -0.642  11.843  0.00  0.00    +0.000 A 
ATOM     57  C   UNL     1      44.832  -1.780  14.324  0.00  0.00    +0.000 A 
ATOM     58  C   UNL     1      43.472  -1.404  12.453  0.00  0.00    +0.000 A 
ATOM     59  C   UNL     1      43.630  -1.973  13.693  0.00  0.00    +0.000 A 
ENDBRANCH  53  54
ENDBRANCH  51  53
ENDBRANCH   7  51
BRANCH   4  60
ATOM     60  O   UNL     1      46.487   2.087  14.244  0.00  0.00    +0.000 OA
BRANCH  60  62
ATOM     61  O   UNL     1      45.155   2.414  16.011  0.00  0.00    +0.000 OA
ATOM     62  C   UNL     1      45.267   2.292  14.794  0.00  0.00    +0.000 C 
ATOM     63  C   UNL     1      44.058   2.249  13.914  0.00  0.00    +0.000 C 
ENDBRANCH  60  62
ENDBRANCH   4  60
TORSDOF 17
ENDMDL
MODEL 2
REMARK VINA RESULT:      -6.7      2.418      6.604
REMARK  Name = 
REMARK  25 active torsions:
REMARK  status: ('A' for Active; 'I' for Inactive)
REMARK    1  A    between atoms: O_2  and  C_17
REMARK    2  A    between atoms: O_2  and  C_36
REMARK    3  A    between atoms: O_3  and  C_20
REMARK    4  A    between atoms: O_3  and  C_37
REMARK    5  A    between atoms: O_4  and  C_21
REMARK    6  A    between atoms: O_5  and  C_22
REMARK    7  A    between atoms: O_7  and  C_30
REMARK    8  A    between atoms: O_8  and  C_31
REMARK    9  A    between atoms: O_8  and  C_39
REMARK   10  A    between atoms: O_12  and  C_41
REMARK   11  A    between atoms: O_13  and  C_51
REMARK   12  A    between atoms: O_13  and  C_55
REMARK   13  A    between atoms: N_15  and  C_44
REMARK   14  A    between atoms: C_18  and  C_29
REMARK   15  A    between atoms: C_24  and  C_33
REMARK   16  A    between atoms: C_24  and  C_34
REMARK   17  A    between atoms: C_32  and  C_35
REMARK   18  A    between atoms: C_36  and  C_38
REMARK   19  A    between atoms: C_37  and  C_40
REMARK   20  A    between atoms: C_39  and  C_41
REMARK   21  A    between atoms: C_41  and  C_44
REMARK   22  A    between atoms: C_44  and  C_48
REMARK   23  A    between atoms: C_55  and  C_56
REMARK   24  A    between atoms: C_55  and  C_57
REMARK   25  A    between atoms: C_55  and  C_58
REMARK                            x       y       z     vdW  Elec       q    Type
REMARK                         _______ _______ _______ _____ _____    ______ ____
ROOT
ATOM      1  O   UNL     1      42.434  -3.901  12.337  0.00  0.00    +0.000 OA
ATOM      2  O   UNL     1      45.711   1.908  13.155  0.00  0.00    +0.000 OA
ATOM      3  C   UNL     1      45.343  -2.200  11.626  0.00  0.00    +0.000 C 
ATOM      4  C   UNL     1      44.500  -3.335  12.281  0.00  0.00    +0.000 C 
ATOM      5  C   UNL     1      45.328  -0.734  12.831  0.00  0.00    +0.000 C 
ATOM      6  C   UNL     1      43.093  -2.613  12.198  0.00  0.00    +0.000 C 
ATOM      7  C   UNL     1      46.918  -2.845  10.868  0.00  0.00    +0.000 C 
ATOM      8  C   UNL     1      48.476  -2.257   9.963  0.00  0.00    +0.000 C 
ATOM      9  C   UNL     1      43.793  -0.352  12.940  0.00  0.00    +0.000 C 
ATOM     10  C   UNL     1      42.827  -1.541  13.233  0.00  0.00    +0.000 C 
ATOM     11  C   UNL     1      49.086  -0.602   9.772  0.00  0.00    +0.000 C 
ATOM     12  C   UNL     1      43.607  -4.460  11.621  0.00  0.00    +0.000 C 
ATOM     13  C   UNL     1      46.270   0.890  12.691  0.00  0.00    +0.000 C 
ATOM     14  C   UNL     1      49.697  -2.917  10.754  0.00  0.00    +0.000 C 
ATOM     15  C   UNL     1      49.224   0.143  11.182  0.00  0.00    +0.000 C 
ATOM     16  C   UNL     1      45.702  -1.165  14.311  0.00  0.00    +0.000 C 
ATOM     17  C   UNL     1      48.000   1.210  11.927  0.00  0.00    +0.000 C 
ATOM     18  C   UNL     1      50.440  -2.033  11.857  0.00  0.00    +0.000 C 
ATOM     19  C   UNL     1      50.107  -0.505  12.013  0.00  0.00    +0.000 C 
ATOM     20  C   UNL     1      50.571  -0.715   9.158  0.00  0.00    +0.000 C 
ATOM     21  C   UNL     1      48.530   0.289   8.616  0.00  0.00    +0.000 C 
ATOM     22  C   UNL     1      50.613   0.109  13.294  0.00  0.00    +0.000 C 
ENDROOT
BRANCH  17  23
ATOM     23  O   UNL     1      48.049   2.412  11.159  0.00  0.00    +0.000 OA
ATOM     24  H   UNL     1      47.347   2.312  10.489  0.00  0.00    +0.000 HD
ENDBRANCH  17  23
BRANCH   9  25
ATOM     25  O   UNL     1      43.377   0.223  11.701  0.00  0.00    +0.000 OA
ATOM     26  H   UNL     1      43.787  -0.302  10.991  0.00  0.00    +0.000 HD
ENDBRANCH   9  25
BRANCH   8  27
ATOM     27  O   UNL     1      48.416  -2.907   8.678  0.00  0.00    +0.000 OA
ATOM     28  H   UNL     1      49.288  -2.845   8.249  0.00  0.00    +0.000 HD
ENDBRANCH   8  27
BRANCH  18  29
ATOM     29  O   UNL     1      50.195  -2.650  13.154  0.00  0.00    +0.000 OA
BRANCH  29  31
ATOM     30  O   UNL     1      52.398  -2.794  13.628  0.00  0.00    +0.000 OA
ATOM     31  C   UNL     1      51.253  -3.196  13.804  0.00  0.00    +0.000 C 
BRANCH  31  32
ATOM     32  C   UNL     1      50.934  -4.443  14.635  0.00  0.00    +0.000 C 
BRANCH  32  33
ATOM     33  O   UNL     1      50.056  -5.389  14.015  0.00  0.00    +0.000 OA
ATOM     34  H   UNL     1      49.283  -5.467  14.606  0.00  0.00    +0.000 HD
ENDBRANCH  32  33
BRANCH  32  35
ATOM     35  C   UNL     1      50.394  -3.987  16.017  0.00  0.00    +0.000 C 
BRANCH  35  36
ATOM     36  C   UNL     1      49.429  -4.994  16.633  0.00  0.00    +0.000 A 
ATOM     37  C   UNL     1      49.921  -5.993  17.488  0.00  0.00    +0.000 A 
ATOM     38  C   UNL     1      48.044  -4.933  16.400  0.00  0.00    +0.000 A 
ATOM     39  C   UNL     1      49.057  -6.921  18.074  0.00  0.00    +0.000 A 
ATOM     40  C   UNL     1      47.183  -5.863  16.987  0.00  0.00    +0.000 A 
ATOM     41  C   UNL     1      47.689  -6.858  17.820  0.00  0.00    +0.000 A 
ENDBRANCH  35  36
BRANCH  35  43
ATOM     42  O   UNL     1      50.169  -1.972  18.054  0.00  0.00    +0.000 OA
ATOM     43  N   UNL     1      49.730  -2.694  15.930  0.00  0.00    +0.000 N 
ATOM     44  C   UNL     1      49.589  -1.856  16.988  0.00  0.00    +0.000 C 
ATOM     45  H   UNL     1      49.100  -2.543  15.153  0.00  0.00    +0.000 HD
BRANCH  44  46
ATOM     46  O   UNL     1      48.730  -0.872  16.647  0.00  0.00    +0.000 OA
BRANCH  46  47
ATOM     47  C   UNL     1      49.045   0.517  16.925  0.00  0.00    +0.000 C 
ATOM     48  C   UNL     1      50.537   0.803  16.723  0.00  0.00    +0.000 C 
ATOM     49  C   UNL     1      48.247   1.314  15.882  0.00  0.00    +0.000 C 
ATOM     50  C   UNL     1      48.568   0.925  18.323  0.00  0.00    +0.000 C 
ENDBRANCH  46  47
ENDBRANCH  44  46
ENDBRANCH  35  43
ENDBRANCH  32  35
ENDBRANCH  31  32
ENDBRANCH  29  31
ENDBRANCH  18  29
BRANCH   7  51
ATOM     51  O   UNL     1      47.492  -2.535  12.012  0.00  0.00    +0.000 OA
BRANCH  51  53
ATOM     52  O   UNL     1      47.753  -3.753  13.586  0.00  0.00    +0.000 OA
ATOM     53  C   UNL     1      47.505  -3.856  12.389  0.00  0.00    +0.000 C 
BRANCH  53  54
ATOM     54  C   UNL     1      47.463  -5.324  11.159  0.00  0.00    +0.000 A 
ATOM     55  C   UNL     1      48.636  -6.036  10.650  0.00  0.00    +0.000 A 
ATOM     56  C   UNL     1      46.313  -6.018  10.672  0.00  0.00    +0.000 A 
ATOM     57  C   UNL     1      48.649  -7.191   9.826  0.00  0.00    +0.000 A 
ATOM     58  C   UNL     1      46.306  -7.179   9.845  0.00  0.00    +0.000 A 
ATOM     59  C   UNL     1      47.473  -7.767   9.421  0.00  0.00    +0.000 A 
ENDBRANCH  53  54
ENDBRANCH  51  53
ENDBRANCH   7  51
BRANCH   4  60
ATOM     60  O   UNL     1      44.934  -3.638  13.627  0.00  0.00    +0.000 OA
BRANCH  60  62
ATOM     61  O   UNL     1      45.059  -5.836  14.028  0.00  0.00    +0.000 OA
ATOM     62  C   UNL     1      44.567  -4.746  14.313  0.00  0.00    +0.000 C 
ATOM     63  C   UNL     1      43.477  -4.641  15.332  0.00  0.00    +0.000 C 
ENDBRANCH  60  62
ENDBRANCH   4  60
TORSDOF 17
ENDMDL
MODEL 3
REMARK VINA RESULT:      -6.5      3.077      6.051
REMARK  Name = 
REMARK  25 active torsions:
REMARK  status: ('A' for Active; 'I' for Inactive)
REMARK    1  A    between atoms: O_2  and  C_17
REMARK    2  A    between atoms: O_2  and  C_36
REMARK    3  A    between atoms: O_3  and  C_20
REMARK    4  A    between atoms: O_3  and  C_37
REMARK    5  A    between atoms: O_4  and  C_21
REMARK    6  A    between atoms: O_5  and  C_22
REMARK    7  A    between atoms: O_7  and  C_30
REMARK    8  A    between atoms: O_8  and  C_31
REMARK    9  A    between atoms: O_8  and  C_39
REMARK   10  A    between atoms: O_12  and  C_41
REMARK   11  A    between atoms: O_13  and  C_51
REMARK   12  A    between atoms: O_13  and  C_55
REMARK   13  A    between atoms: N_15  and  C_44
REMARK   14  A    between atoms: C_18  and  C_29
REMARK   15  A    between atoms: C_24  and  C_33
REMARK   16  A    between atoms: C_24  and  C_34
REMARK   17  A    between atoms: C_32  and  C_35
REMARK   18  A    between atoms: C_36  and  C_38
REMARK   19  A    between atoms: C_37  and  C_40
REMARK   20  A    between atoms: C_39  and  C_41
REMARK   21  A    between atoms: C_41  and  C_44
REMARK   22  A    between atoms: C_44  and  C_48
REMARK   23  A    between atoms: C_55  and  C_56
REMARK   24  A    between atoms: C_55  and  C_57
REMARK   25  A    between atoms: C_55  and  C_58
REMARK                            x       y       z     vdW  Elec       q    Type
REMARK                         _______ _______ _______ _____ _____    ______ ____
ROOT
ATOM      1  O   UNL     1      42.380  -1.564  12.436  0.00  0.00    +0.000 OA
ATOM      2  O   UNL     1      47.807   2.236  13.556  0.00  0.00    +0.000 OA
ATOM      3  C   UNL     1      45.732  -1.192  11.742  0.00  0.00    +0.000 C 
ATOM      4  C   UNL     1      44.492  -1.917  12.342  0.00  0.00    +0.000 C 
ATOM      5  C   UNL     1      46.343   0.038  13.052  0.00  0.00    +0.000 C 
ATOM      6  C   UNL     1      43.521  -0.666  12.368  0.00  0.00    +0.000 C 
ATOM      7  C   UNL     1      46.885  -2.374  10.877  0.00  0.00    +0.000 C 
ATOM      8  C   UNL     1      48.542  -2.422   9.960  0.00  0.00    +0.000 C 
ATOM      9  C   UNL     1      45.114   1.020  13.248  0.00  0.00    +0.000 C 
ATOM     10  C   UNL     1      43.737   0.328  13.489  0.00  0.00    +0.000 C 
ATOM     11  C   UNL     1      49.794  -1.167   9.868  0.00  0.00    +0.000 C 
ATOM     12  C   UNL     1      43.204  -2.502  11.636  0.00  0.00    +0.000 C 
ATOM     13  C   UNL     1      47.882   1.121  12.996  0.00  0.00    +0.000 C 
ATOM     14  C   UNL     1      49.373  -3.598  10.651  0.00  0.00    +0.000 C 
ATOM     15  C   UNL     1      50.238  -0.670  11.323  0.00  0.00    +0.000 C 
ATOM     16  C   UNL     1      46.505  -0.632  14.480  0.00  0.00    +0.000 C 
ATOM     17  C   UNL     1      49.583   0.745  12.192  0.00  0.00    +0.000 C 
ATOM     18  C   UNL     1      50.424  -3.204  11.787  0.00  0.00    +0.000 C 
ATOM     19  C   UNL     1      50.768  -1.697  12.069  0.00  0.00    +0.000 C 
ATOM     20  C   UNL     1      51.090  -1.843   9.191  0.00  0.00    +0.000 C 
ATOM     21  C   UNL     1      49.662  -0.032   8.803  0.00  0.00    +0.000 C 
ATOM     22  C   UNL     1      51.491  -1.462  13.372  0.00  0.00    +0.000 C 
ENDROOT
BRANCH  17  23
ATOM     23  O   UNL     1      50.132   1.875  11.514  0.00  0.00    +0.000 OA
ATOM     24  H   UNL     1      50.391   1.540  10.635  0.00  0.00    +0.000 HD
ENDBRANCH  17  23
BRANCH   9  25
ATOM     25  O   UNL     1      44.975   1.818  12.072  0.00  0.00    +0.000 OA
ATOM     26  H   UNL     1      44.775   2.726  12.366  0.00  0.00    +0.000 HD
ENDBRANCH   9  25
BRANCH   8  27
ATOM     27  O   UNL     1      48.209  -2.876   8.633  0.00  0.00    +0.000 OA
ATOM     28  H   UNL     1      48.707  -2.352   7.982  0.00  0.00    +0.000 HD
ENDBRANCH   8  27
BRANCH  18  29
ATOM     29  O   UNL     1      49.946  -3.766  13.043  0.00  0.00    +0.000 OA
BRANCH  29  31
ATOM     30  O   UNL     1      50.328  -5.971  12.738  0.00  0.00    +0.000 OA
ATOM     31  C   UNL     1      50.448  -4.966  13.430  0.00  0.00    +0.000 C 
BRANCH  31  32
ATOM     32  C   UNL     1      51.023  -5.005  14.850  0.00  0.00    +0.000 C 
BRANCH  32  33
ATOM     33  O   UNL     1      51.644  -6.238  15.230  0.00  0.00    +0.000 OA
ATOM     34  H   UNL     1      50.941  -6.780  15.636  0.00  0.00    +0.000 HD
ENDBRANCH  32  33
BRANCH  32  35
ATOM     35  C   UNL     1      49.901  -4.603  15.845  0.00  0.00    +0.000 C 
BRANCH  35  36
ATOM     36  C   UNL     1      50.115  -3.217  16.444  0.00  0.00    +0.000 A 
ATOM     37  C   UNL     1      49.016  -2.363  16.626  0.00  0.00    +0.000 A 
ATOM     38  C   UNL     1      51.383  -2.776  16.859  0.00  0.00    +0.000 A 
ATOM     39  C   UNL     1      49.183  -1.093  17.183  0.00  0.00    +0.000 A 
ATOM     40  C   UNL     1      51.547  -1.505  17.415  0.00  0.00    +0.000 A 
ATOM     41  C   UNL     1      50.448  -0.663  17.574  0.00  0.00    +0.000 A 
ENDBRANCH  35  36
BRANCH  35  43
ATOM     42  O   UNL     1      47.495  -5.689  16.982  0.00  0.00    +0.000 OA
ATOM     43  N   UNL     1      49.778  -5.568  16.928  0.00  0.00    +0.000 N 
ATOM     44  C   UNL     1      48.587  -5.939  17.464  0.00  0.00    +0.000 C 
ATOM     45  H   UNL     1      50.597  -5.741  17.496  0.00  0.00    +0.000 HD
BRANCH  44  46
ATOM     46  O   UNL     1      48.822  -6.644  18.591  0.00  0.00    +0.000 OA
BRANCH  46  47
ATOM     47  C   UNL     1      49.166  -5.970  19.829  0.00  0.00    +0.000 C 
ATOM     48  C   UNL     1      48.386  -4.660  19.988  0.00  0.00    +0.000 C 
ATOM     49  C   UNL     1      48.726  -6.940  20.936  0.00  0.00    +0.000 C 
ATOM     50  C   UNL     1      50.679  -5.753  19.941  0.00  0.00    +0.000 C 
ENDBRANCH  46  47
ENDBRANCH  44  46
ENDBRANCH  35  43
ENDBRANCH  32  35
ENDBRANCH  31  32
ENDBRANCH  29  31
ENDBRANCH  18  29
BRANCH   7  51
ATOM     51  O   UNL     1      47.540  -2.431  12.018  0.00  0.00    +0.000 OA
BRANCH  51  53
ATOM     52  O   UNL     1      47.233  -3.758  13.492  0.00  0.00    +0.000 OA
ATOM     53  C   UNL     1      47.003  -3.665  12.291  0.00  0.00    +0.000 C 
BRANCH  53  54
ATOM     54  C   UNL     1      46.407  -4.897  10.950  0.00  0.00    +0.000 A 
ATOM     55  C   UNL     1      47.218  -5.959  10.355  0.00  0.00    +0.000 A 
ATOM     56  C   UNL     1      45.081  -5.052  10.440  0.00  0.00    +0.000 A 
ATOM     57  C   UNL     1      46.791  -6.958   9.442  0.00  0.00    +0.000 A 
ATOM     58  C   UNL     1      44.633  -6.048   9.523  0.00  0.00    +0.000 A 
ATOM     59  C   UNL     1      45.486  -7.002   9.024  0.00  0.00    +0.000 A 
ENDBRANCH  53  54
ENDBRANCH  51  53
ENDBRANCH   7  51
BRANCH   4  60
ATOM     60  O   UNL     1      44.762  -2.486  13.645  0.00  0.00    +0.000 OA
BRANCH  60  62
ATOM     61  O   UNL     1      43.128  -2.917  15.111  0.00  0.00    +0.000 OA
ATOM     62  C   UNL     1      43.934  -3.343  14.287  0.00  0.00    +0.000 C 
ATOM     63  C   UNL     1      44.096  -4.813  14.064  0.00  0.00    +0.000 C 
ENDBRANCH  60  62
ENDBRANCH   4  60
TORSDOF 17
ENDMDL
MODEL 4
REMARK VINA RESULT:      -6.1     19.687     23.389
REMARK  Name = 
REMARK  25 active torsions:
REMARK  status: ('A' for Active; 'I' for Inactive)
REMARK    1  A    between atoms: O_2  and  C_17
REMARK    2  A    between atoms: O_2  and  C_36
REMARK    3  A    between atoms: O_3  and  C_20
REMARK    4  A    between atoms: O_3  and  C_37
REMARK    5  A    between atoms: O_4  and  C_21
REMARK    6  A    between atoms: O_5  and  C_22
REMARK    7  A    between atoms: O_7  and  C_30
REMARK    8  A    between atoms: O_8  and  C_31
REMARK    9  A    between atoms: O_8  and  C_39
REMARK   10  A    between atoms: O_12  and  C_41
REMARK   11  A    between atoms: O_13  and  C_51
REMARK   12  A    between atoms: O_13  and  C_55
REMARK   13  A    between atoms: N_15  and  C_44
REMARK   14  A    between atoms: C_18  and  C_29
REMARK   15  A    between atoms: C_24  and  C_33
REMARK   16  A    between atoms: C_24  and  C_34
REMARK   17  A    between atoms: C_32  and  C_35
REMARK   18  A    between atoms: C_36  and  C_38
REMARK   19  A    between atoms: C_37  and  C_40
REMARK   20  A    between atoms: C_39  and  C_41
REMARK   21  A    between atoms: C_41  and  C_44
REMARK   22  A    between atoms: C_44  and  C_48
REMARK   23  A    between atoms: C_55  and  C_56
REMARK   24  A    between atoms: C_55  and  C_57
REMARK   25  A    between atoms: C_55  and  C_58
REMARK                            x       y       z     vdW  Elec       q    Type
REMARK                         _______ _______ _______ _____ _____    ______ ____
ROOT
ATOM      1  O   UNL     1      19.868  -4.962  15.397  0.00  0.00    +0.000 OA
ATOM      2  O   UNL     1      25.410  -1.236  16.147  0.00  0.00    +0.000 OA
ATOM      3  C   UNL     1      23.272  -4.868  14.887  0.00  0.00    +0.000 C 
ATOM      4  C   UNL     1      21.959  -5.410  15.526  0.00  0.00    +0.000 C 
ATOM      5  C   UNL     1      23.864  -3.430  15.974  0.00  0.00    +0.000 C 
ATOM      6  C   UNL     1      21.057  -4.141  15.238  0.00  0.00    +0.000 C 
ATOM      7  C   UNL     1      24.412  -6.243  14.353  0.00  0.00    +0.000 C 
ATOM      8  C   UNL     1      26.118  -6.538  13.584  0.00  0.00    +0.000 C 
ATOM      9  C   UNL     1      22.680  -2.380  15.888  0.00  0.00    +0.000 C 
ATOM     10  C   UNL     1      21.255  -2.955  16.158  0.00  0.00    +0.000 C 
ATOM     11  C   UNL     1      27.439  -5.377  13.341  0.00  0.00    +0.000 C 
ATOM     12  C   UNL     1      20.689  -6.071  14.855  0.00  0.00    +0.000 C 
ATOM     13  C   UNL     1      25.460  -2.443  15.821  0.00  0.00    +0.000 C 
ATOM     14  C   UNL     1      26.840  -7.587  14.548  0.00  0.00    +0.000 C 
ATOM     15  C   UNL     1      27.817  -4.622  14.700  0.00  0.00    +0.000 C 
ATOM     16  C   UNL     1      23.900  -3.812  17.513  0.00  0.00    +0.000 C 
ATOM     17  C   UNL     1      27.185  -3.037  15.229  0.00  0.00    +0.000 C 
ATOM     18  C   UNL     1      27.837  -7.019  15.659  0.00  0.00    +0.000 C 
ATOM     19  C   UNL     1      28.243  -5.502  15.667  0.00  0.00    +0.000 C 
ATOM     20  C   UNL     1      28.737  -6.224  12.902  0.00  0.00    +0.000 C 
ATOM     21  C   UNL     1      27.435  -4.470  12.070  0.00  0.00    +0.000 C 
ATOM     22  C   UNL     1      28.894  -5.044  16.948  0.00  0.00    +0.000 C 
ENDROOT
BRANCH  17  23
ATOM     23  O   UNL     1      27.836  -2.086  14.386  0.00  0.00    +0.000 OA
ATOM     24  H   UNL     1      28.728  -1.981  14.767  0.00  0.00    +0.000 HD
ENDBRANCH  17  23
BRANCH   9  25
ATOM     25  O   UNL     1      22.658  -1.824  14.572  0.00  0.00    +0.000 OA
ATOM     26  H   UNL     1      22.350  -0.904  14.657  0.00  0.00    +0.000 HD
ENDBRANCH   9  25
BRANCH   8  27
ATOM     27  O   UNL     1      25.845  -7.231  12.350  0.00  0.00    +0.000 OA
ATOM     28  H   UNL     1      25.429  -6.613  11.723  0.00  0.00    +0.000 HD
ENDBRANCH   8  27
BRANCH  18  29
ATOM     29  O   UNL     1      27.252  -7.304  16.962  0.00  0.00    +0.000 OA
BRANCH  29  31
ATOM     30  O   UNL     1      27.649  -9.478  17.430  0.00  0.00    +0.000 OA
ATOM     31  C   UNL     1      27.811  -8.293  17.704  0.00  0.00    +0.000 C 
BRANCH  31  32
ATOM     32  C   UNL     1      28.511  -7.830  18.986  0.00  0.00    +0.000 C 
BRANCH  32  33
ATOM     33  O   UNL     1      29.936  -7.710  18.900  0.00  0.00    +0.000 OA
ATOM     34  H   UNL     1      30.161  -7.833  17.959  0.00  0.00    +0.000 HD
ENDBRANCH  32  33
BRANCH  32  35
ATOM     35  C   UNL     1      28.088  -8.773  20.144  0.00  0.00    +0.000 C 
BRANCH  35  36
ATOM     36  C   UNL     1      27.662  -8.013  21.395  0.00  0.00    +0.000 A 
ATOM     37  C   UNL     1      27.819  -6.618  21.446  0.00  0.00    +0.000 A 
ATOM     38  C   UNL     1      27.076  -8.661  22.495  0.00  0.00    +0.000 A 
ATOM     39  C   UNL     1      27.427  -5.895  22.575  0.00  0.00    +0.000 A 
ATOM     40  C   UNL     1      26.685  -7.936  23.623  0.00  0.00    +0.000 A 
ATOM     41  C   UNL     1      26.863  -6.555  23.663  0.00  0.00    +0.000 A 
ENDBRANCH  35  36
BRANCH  35  43
ATOM     42  O   UNL     1      28.093 -11.640  19.940  0.00  0.00    +0.000 OA
ATOM     43  N   UNL     1      29.158  -9.696  20.498  0.00  0.00    +0.000 N 
ATOM     44  C   UNL     1      29.021 -11.045  20.463  0.00  0.00    +0.000 C 
ATOM     45  H   UNL     1      29.914  -9.338  21.067  0.00  0.00    +0.000 HD
BRANCH  44  46
ATOM     46  O   UNL     1      30.087 -11.604  21.073  0.00  0.00    +0.000 OA
BRANCH  46  47
ATOM     47  C   UNL     1      31.049 -12.385  20.318  0.00  0.00    +0.000 C 
ATOM     48  C   UNL     1      31.222 -11.836  18.898  0.00  0.00    +0.000 C 
ATOM     49  C   UNL     1      32.373 -12.211  21.077  0.00  0.00    +0.000 C 
ATOM     50  C   UNL     1      30.677 -13.872  20.316  0.00  0.00    +0.000 C 
ENDBRANCH  46  47
ENDBRANCH  44  46
ENDBRANCH  35  43
ENDBRANCH  32  35
ENDBRANCH  31  32
ENDBRANCH  29  31
ENDBRANCH  18  29
BRANCH   7  51
ATOM     51  O   UNL     1      24.990  -6.101  15.527  0.00  0.00    +0.000 OA
BRANCH  51  53
ATOM     52  O   UNL     1      23.934  -7.699  14.927  0.00  0.00    +0.000 OA
ATOM     53  C   UNL     1      24.462  -7.293  15.957  0.00  0.00    +0.000 C 
BRANCH  53  54
ATOM     54  C   UNL     1      24.389  -7.835  17.794  0.00  0.00    +0.000 A 
ATOM     55  C   UNL     1      24.497  -6.939  18.946  0.00  0.00    +0.000 A 
ATOM     56  C   UNL     1      24.089  -9.135  18.305  0.00  0.00    +0.000 A 
ATOM     57  C   UNL     1      24.342  -7.277  20.314  0.00  0.00    +0.000 A 
ATOM     58  C   UNL     1      23.929  -9.494  19.676  0.00  0.00    +0.000 A 
ATOM     59  C   UNL     1      24.055  -8.567  20.682  0.00  0.00    +0.000 A 
ENDBRANCH  53  54
ENDBRANCH  51  53
ENDBRANCH   7  51
BRANCH   4  60
ATOM     60  O   UNL     1      22.116  -5.723  16.930  0.00  0.00    +0.000 OA
BRANCH  60  62
ATOM     61  O   UNL     1      21.020  -7.616  17.397  0.00  0.00    +0.000 OA
ATOM     62  C   UNL     1      21.221  -6.431  17.656  0.00  0.00    +0.000 C 
ATOM     63  C   UNL     1      20.403  -5.724  18.689  0.00  0.00    +0.000 C 
ENDBRANCH  60  62
ENDBRANCH   4  60
TORSDOF 17
ENDMDL
MODEL 5
REMARK VINA RESULT:      -6.0      3.083      8.863
REMARK  Name = 
REMARK  25 active torsions:
REMARK  status: ('A' for Active; 'I' for Inactive)
REMARK    1  A    between atoms: O_2  and  C_17
REMARK    2  A    between atoms: O_2  and  C_36
REMARK    3  A    between atoms: O_3  and  C_20
REMARK    4  A    between atoms: O_3  and  C_37
REMARK    5  A    between atoms: O_4  and  C_21
REMARK    6  A    between atoms: O_5  and  C_22
REMARK    7  A    between atoms: O_7  and  C_30
REMARK    8  A    between atoms: O_8  and  C_31
REMARK    9  A    between atoms: O_8  and  C_39
REMARK   10  A    between atoms: O_12  and  C_41
REMARK   11  A    between atoms: O_13  and  C_51
REMARK   12  A    between atoms: O_13  and  C_55
REMARK   13  A    between atoms: N_15  and  C_44
REMARK   14  A    between atoms: C_18  and  C_29
REMARK   15  A    between atoms: C_24  and  C_33
REMARK   16  A    between atoms: C_24  and  C_34
REMARK   17  A    between atoms: C_32  and  C_35
REMARK   18  A    between atoms: C_36  and  C_38
REMARK   19  A    between atoms: C_37  and  C_40
REMARK   20  A    between atoms: C_39  and  C_41
REMARK   21  A    between atoms: C_41  and  C_44
REMARK   22  A    between atoms: C_44  and  C_48
REMARK   23  A    between atoms: C_55  and  C_56
REMARK   24  A    between atoms: C_55  and  C_57
REMARK   25  A    between atoms: C_55  and  C_58
REMARK                            x       y       z     vdW  Elec       q    Type
REMARK                         _______ _______ _______ _____ _____    ______ ____
ROOT
ATOM      1  O   UNL     1      46.618  -5.703  11.510  0.00  0.00    +0.000 OA
ATOM      2  O   UNL     1      48.053   0.030   8.311  0.00  0.00    +0.000 OA
ATOM      3  C   UNL     1      47.764  -2.481  11.912  0.00  0.00    +0.000 C 
ATOM      4  C   UNL     1      46.759  -3.653  12.116  0.00  0.00    +0.000 C 
ATOM      5  C   UNL     1      47.280  -1.612  10.296  0.00  0.00    +0.000 C 
ATOM      6  C   UNL     1      47.232  -4.539  10.892  0.00  0.00    +0.000 C 
ATOM      7  C   UNL     1      48.074  -1.539  13.490  0.00  0.00    +0.000 C 
ATOM      8  C   UNL     1      49.029  -0.047  14.161  0.00  0.00    +0.000 C 
ATOM      9  C   UNL     1      47.446  -2.741   9.196  0.00  0.00    +0.000 C 
ATOM     10  C   UNL     1      46.756  -4.101   9.524  0.00  0.00    +0.000 C 
ATOM     11  C   UNL     1      49.846   1.243  13.256  0.00  0.00    +0.000 C 
ATOM     12  C   UNL     1      46.954  -5.063  12.804  0.00  0.00    +0.000 C 
ATOM     13  C   UNL     1      48.013  -0.043   9.559  0.00  0.00    +0.000 C 
ATOM     14  C   UNL     1      47.952   0.815  14.968  0.00  0.00    +0.000 C 
ATOM     15  C   UNL     1      48.866   1.930  12.194  0.00  0.00    +0.000 C 
ATOM     16  C   UNL     1      45.732  -1.270  10.234  0.00  0.00    +0.000 C 
ATOM     17  C   UNL     1      48.718   1.493  10.469  0.00  0.00    +0.000 C 
ATOM     18  C   UNL     1      47.266   2.047  14.217  0.00  0.00    +0.000 C 
ATOM     19  C   UNL     1      47.781   2.511  12.808  0.00  0.00    +0.000 C 
ATOM     20  C   UNL     1      50.252   2.382  14.320  0.00  0.00    +0.000 C 
ATOM     21  C   UNL     1      51.303   1.012  12.744  0.00  0.00    +0.000 C 
ATOM     22  C   UNL     1      46.838   3.436  12.080  0.00  0.00    +0.000 C 
ENDROOT
BRANCH  17  23
ATOM     23  O   UNL     1      49.910   1.993   9.863  0.00  0.00    +0.000 OA
ATOM     24  H   UNL     1      49.644   2.831   9.438  0.00  0.00    +0.000 HD
ENDBRANCH  17  23
BRANCH   9  25
ATOM     25  O   UNL     1      48.838  -3.015   9.030  0.00  0.00    +0.000 OA
ATOM     26  H   UNL     1      49.325  -2.300   9.479  0.00  0.00    +0.000 HD
ENDBRANCH   9  25
BRANCH   8  27
ATOM     27  O   UNL     1      49.930  -0.602  15.139  0.00  0.00    +0.000 OA
ATOM     28  H   UNL     1      49.417  -1.105  15.797  0.00  0.00    +0.000 HD
ENDBRANCH   8  27
BRANCH  18  29
ATOM     29  O   UNL     1      45.851   1.736  14.065  0.00  0.00    +0.000 OA
BRANCH  29  31
ATOM     30  O   UNL     1      43.770   2.482  14.528  0.00  0.00    +0.000 OA
ATOM     31  C   UNL     1      44.964   2.450  14.804  0.00  0.00    +0.000 C 
BRANCH  31  32
ATOM     32  C   UNL     1      45.584   3.332  15.893  0.00  0.00    +0.000 C 
BRANCH  32  33
ATOM     33  O   UNL     1      45.318   2.926  17.240  0.00  0.00    +0.000 OA
ATOM     34  H   UNL     1      46.059   3.267  17.776  0.00  0.00    +0.000 HD
ENDBRANCH  32  33
BRANCH  32  35
ATOM     35  C   UNL     1      45.146   4.800  15.644  0.00  0.00    +0.000 C 
BRANCH  35  36
ATOM     36  C   UNL     1      46.236   5.634  14.978  0.00  0.00    +0.000 A 
ATOM     37  C   UNL     1      45.893   6.542  13.964  0.00  0.00    +0.000 A 
ATOM     38  C   UNL     1      47.582   5.550  15.375  0.00  0.00    +0.000 A 
ATOM     39  C   UNL     1      46.870   7.326  13.346  0.00  0.00    +0.000 A 
ATOM     40  C   UNL     1      48.556   6.334  14.755  0.00  0.00    +0.000 A 
ATOM     41  C   UNL     1      48.201   7.219  13.739  0.00  0.00    +0.000 A 
ENDBRANCH  35  36
BRANCH  35  43
ATOM     42  O   UNL     1      43.237   6.920  15.987  0.00  0.00    +0.000 OA
ATOM     43  N   UNL     1      44.746   5.454  16.882  0.00  0.00    +0.000 N 
ATOM     44  C   UNL     1      43.909   6.522  16.923  0.00  0.00    +0.000 C 
ATOM     45  H   UNL     1      45.328   5.311  17.696  0.00  0.00    +0.000 HD
BRANCH  44  46
ATOM     46  O   UNL     1      43.932   7.040  18.170  0.00  0.00    +0.000 OA
BRANCH  46  47
ATOM     47  C   UNL     1      44.628   8.283  18.443  0.00  0.00    +0.000 C 
ATOM     48  C   UNL     1      45.835   8.464  17.517  0.00  0.00    +0.000 C 
ATOM     49  C   UNL     1      43.601   9.382  18.130  0.00  0.00    +0.000 C 
ATOM     50  C   UNL     1      45.020   8.386  19.921  0.00  0.00    +0.000 C 
ENDBRANCH  46  47
ENDBRANCH  44  46
ENDBRANCH  35  43
ENDBRANCH  32  35
ENDBRANCH  31  32
ENDBRANCH  29  31
ENDBRANCH  18  29
BRANCH   7  51
ATOM     51  O   UNL     1      47.124  -0.722  13.086  0.00  0.00    +0.000 OA
BRANCH  51  53
ATOM     52  O   UNL     1      47.004  -1.910  14.699  0.00  0.00    +0.000 OA
ATOM     53  C   UNL     1      46.242  -1.263  13.989  0.00  0.00    +0.000 C 
BRANCH  53  54
ATOM     54  C   UNL     1      44.337  -1.181  13.810  0.00  0.00    +0.000 A 
ATOM     55  C   UNL     1      43.376  -1.911  14.637  0.00  0.00    +0.000 A 
ATOM     56  C   UNL     1      43.580  -0.317  12.960  0.00  0.00    +0.000 A 
ATOM     57  C   UNL     1      41.962  -1.801  14.613  0.00  0.00    +0.000 A 
ATOM     58  C   UNL     1      42.160  -0.192  12.921  0.00  0.00    +0.000 A 
ATOM     59  C   UNL     1      41.350  -0.932  13.746  0.00  0.00    +0.000 A 
ENDBRANCH  53  54
ENDBRANCH  51  53
ENDBRANCH   7  51
BRANCH   4  60
ATOM     60  O   UNL     1      45.381  -3.218  12.039  0.00  0.00    +0.000 OA
BRANCH  60  62
ATOM     61  O   UNL     1      44.117  -4.715  13.119  0.00  0.00    +0.000 OA
ATOM     62  C   UNL     1      44.316  -4.051  12.104  0.00  0.00    +0.000 C 
ATOM     63  C   UNL     1      43.463  -4.236  10.889  0.00  0.00    +0.000 C 
ENDBRANCH  60  62
ENDBRANCH   4  60
TORSDOF 17
ENDMDL
MODEL 6
REMARK VINA RESULT:      -6.0     11.845     17.561
REMARK  Name = 
REMARK  25 active torsions:
REMARK  status: ('A' for Active; 'I' for Inactive)
REMARK    1  A    between atoms: O_2  and  C_17
REMARK    2  A    between atoms: O_2  and  C_36
REMARK    3  A    between atoms: O_3  and  C_20
REMARK    4  A    between atoms: O_3  and  C_37
REMARK    5  A    between atoms: O_4  and  C_21
REMARK    6  A    between atoms: O_5  and  C_22
REMARK    7  A    between atoms: O_7  and  C_30
REMARK    8  A    between atoms: O_8  and  C_31
REMARK    9  A    between atoms: O_8  and  C_39
REMARK   10  A    between atoms: O_12  and  C_41
REMARK   11  A    between atoms: O_13  and  C_51
REMARK   12  A    between atoms: O_13  and  C_55
REMARK   13  A    between atoms: N_15  and  C_44
REMARK   14  A    between atoms: C_18  and  C_29
REMARK   15  A    between atoms: C_24  and  C_33
REMARK   16  A    between atoms: C_24  and  C_34
REMARK   17  A    between atoms: C_32  and  C_35
REMARK   18  A    between atoms: C_36  and  C_38
REMARK   19  A    between atoms: C_37  and  C_40
REMARK   20  A    between atoms: C_39  and  C_41
REMARK   21  A    between atoms: C_41  and  C_44
REMARK   22  A    between atoms: C_44  and  C_48
REMARK   23  A    between atoms: C_55  and  C_56
REMARK   24  A    between atoms: C_55  and  C_57
REMARK   25  A    between atoms: C_55  and  C_58
REMARK                            x       y       z     vdW  Elec       q    Type
REMARK                         _______ _______ _______ _____ _____    ______ ____
ROOT
ATOM      1  O   UNL     1      42.258  10.524  26.174  0.00  0.00    +0.000 OA
ATOM      2  O   UNL     1      38.573   7.481  21.449  0.00  0.00    +0.000 OA
ATOM      3  C   UNL     1      42.245   9.409  22.916  0.00  0.00    +0.000 C 
ATOM      4  C   UNL     1      42.312  10.493  24.032  0.00  0.00    +0.000 C 
ATOM      5  C   UNL     1      40.409   9.121  22.532  0.00  0.00    +0.000 C 
ATOM      6  C   UNL     1      41.671   9.626  25.192  0.00  0.00    +0.000 C 
ATOM      7  C   UNL     1      43.505   9.704  21.574  0.00  0.00    +0.000 C 
ATOM      8  C   UNL     1      44.098   9.001  19.919  0.00  0.00    +0.000 C 
ATOM      9  C   UNL     1      39.814   8.602  23.906  0.00  0.00    +0.000 C 
ATOM     10  C   UNL     1      40.167   9.465  25.156  0.00  0.00    +0.000 C 
ATOM     11  C   UNL     1      43.312   7.791  18.884  0.00  0.00    +0.000 C 
ATOM     12  C   UNL     1      43.359  10.703  25.197  0.00  0.00    +0.000 C 
ATOM     13  C   UNL     1      39.663   8.035  21.187  0.00  0.00    +0.000 C 
ATOM     14  C   UNL     1      44.130  10.246  18.918  0.00  0.00    +0.000 C 
ATOM     15  C   UNL     1      41.800   8.195  18.548  0.00  0.00    +0.000 C 
ATOM     16  C   UNL     1      39.625  10.477  22.285  0.00  0.00    +0.000 C 
ATOM     17  C   UNL     1      40.349   7.654  19.436  0.00  0.00    +0.000 C 
ATOM     18  C   UNL     1      42.871  10.471  17.962  0.00  0.00    +0.000 C 
ATOM     19  C   UNL     1      41.735   9.389  17.870  0.00  0.00    +0.000 C 
ATOM     20  C   UNL     1      44.112   7.774  17.486  0.00  0.00    +0.000 C 
ATOM     21  C   UNL     1      43.531   6.273  19.182  0.00  0.00    +0.000 C 
ATOM     22  C   UNL     1      40.468   9.879  17.214  0.00  0.00    +0.000 C 
ENDROOT
BRANCH  17  23
ATOM     23  O   UNL     1      40.185   6.285  19.067  0.00  0.00    +0.000 OA
ATOM     24  H   UNL     1      39.507   6.293  18.365  0.00  0.00    +0.000 HD
ENDBRANCH  17  23
BRANCH   9  25
ATOM     25  O   UNL     1      40.318   7.289  24.155  0.00  0.00    +0.000 OA
ATOM     26  H   UNL     1      40.906   7.352  24.929  0.00  0.00    +0.000 HD
ENDBRANCH   9  25
BRANCH   8  27
ATOM     27  O   UNL     1      45.469   8.625  20.154  0.00  0.00    +0.000 OA
ATOM     28  H   UNL     1      45.498   7.703  20.467  0.00  0.00    +0.000 HD
ENDBRANCH   8  27
BRANCH  18  29
ATOM     29  O   UNL     1      42.232  11.718  18.361  0.00  0.00    +0.000 OA
BRANCH  29  31
ATOM     30  O   UNL     1      41.310  13.304  17.044  0.00  0.00    +0.000 OA
ATOM     31  C   UNL     1      42.312  12.770  17.508  0.00  0.00    +0.000 C 
BRANCH  31  32
ATOM     32  C   UNL     1      43.728  13.128  17.046  0.00  0.00    +0.000 C 
BRANCH  32  33
ATOM     33  O   UNL     1      44.687  13.321  18.092  0.00  0.00    +0.000 OA
ATOM     34  H   UNL     1      45.555  13.100  17.706  0.00  0.00    +0.000 HD
ENDBRANCH  32  33
BRANCH  32  35
ATOM     35  C   UNL     1      43.642  14.368  16.116  0.00  0.00    +0.000 C 
BRANCH  35  36
ATOM     36  C   UNL     1      44.910  14.575  15.295  0.00  0.00    +0.000 A 
ATOM     37  C   UNL     1      45.729  15.686  15.552  0.00  0.00    +0.000 A 
ATOM     38  C   UNL     1      45.310  13.663  14.303  0.00  0.00    +0.000 A 
ATOM     39  C   UNL     1      46.902  15.894  14.822  0.00  0.00    +0.000 A 
ATOM     40  C   UNL     1      46.482  13.874  13.574  0.00  0.00    +0.000 A 
ATOM     41  C   UNL     1      47.276  14.990  13.832  0.00  0.00    +0.000 A 
ENDBRANCH  35  36
BRANCH  35  43
ATOM     42  O   UNL     1      41.685  16.397  15.558  0.00  0.00    +0.000 OA
ATOM     43  N   UNL     1      43.369  15.583  16.872  0.00  0.00    +0.000 N 
ATOM     44  C   UNL     1      42.491  16.533  16.463  0.00  0.00    +0.000 C 
ATOM     45  H   UNL     1      44.058  15.874  17.553  0.00  0.00    +0.000 HD
BRANCH  44  46
ATOM     46  O   UNL     1      42.646  17.626  17.240  0.00  0.00    +0.000 OA
BRANCH  46  47
ATOM     47  C   UNL     1      43.432  18.756  16.781  0.00  0.00    +0.000 C 
ATOM     48  C   UNL     1      42.810  20.086  17.220  0.00  0.00    +0.000 C 
ATOM     49  C   UNL     1      44.790  18.595  17.482  0.00  0.00    +0.000 C 
ATOM     50  C   UNL     1      43.653  18.700  15.265  0.00  0.00    +0.000 C 
ENDBRANCH  46  47
ENDBRANCH  44  46
ENDBRANCH  35  43
ENDBRANCH  32  35
ENDBRANCH  31  32
ENDBRANCH  29  31
ENDBRANCH  18  29
BRANCH   7  51
ATOM     51  O   UNL     1      42.546  10.341  20.936  0.00  0.00    +0.000 OA
BRANCH  51  53
ATOM     52  O   UNL     1      44.187  11.181  21.729  0.00  0.00    +0.000 OA
ATOM     53  C   UNL     1      43.156  11.548  21.174  0.00  0.00    +0.000 C 
BRANCH  53  54
ATOM     54  C   UNL     1      42.305  13.247  20.935  0.00  0.00    +0.000 A 
ATOM     55  C   UNL     1      42.997  14.516  20.704  0.00  0.00    +0.000 A 
ATOM     56  C   UNL     1      40.906  13.509  20.811  0.00  0.00    +0.000 A 
ATOM     57  C   UNL     1      42.410  15.775  20.416  0.00  0.00    +0.000 A 
ATOM     58  C   UNL     1      40.298  14.766  20.522  0.00  0.00    +0.000 A 
ATOM     59  C   UNL     1      41.047  15.899  20.324  0.00  0.00    +0.000 A 
ENDBRANCH  53  54
ENDBRANCH  51  53
ENDBRANCH   7  51
BRANCH   4  60
ATOM     60  O   UNL     1      41.559  11.681  23.692  0.00  0.00    +0.000 OA
BRANCH  60  62
ATOM     61  O   UNL     1      40.524  12.971  25.199  0.00  0.00    +0.000 OA
ATOM     62  C   UNL     1      41.495  12.788  24.468  0.00  0.00    +0.000 C 
ATOM     63  C   UNL     1      42.559  13.831  24.334  0.00  0.00    +0.000 C 
ENDBRANCH  60  62
ENDBRANCH   4  60
TORSDOF 17
ENDMDL
MODEL 7
REMARK VINA RESULT:      -5.9      3.297      6.614
REMARK  Name = 
REMARK  25 active torsions:
REMARK  status: ('A' for Active; 'I' for Inactive)
REMARK    1  A    between atoms: O_2  and  C_17
REMARK    2  A    between atoms: O_2  and  C_36
REMARK    3  A    between atoms: O_3  and  C_20
REMARK    4  A    between atoms: O_3  and  C_37
REMARK    5  A    between atoms: O_4  and  C_21
REMARK    6  A    between atoms: O_5  and  C_22
REMARK    7  A    between atoms: O_7  and  C_30
REMARK    8  A    between atoms: O_8  and  C_31
REMARK    9  A    between atoms: O_8  and  C_39
REMARK   10  A    between atoms: O_12  and  C_41
REMARK   11  A    between atoms: O_13  and  C_51
REMARK   12  A    between atoms: O_13  and  C_55
REMARK   13  A    between atoms: N_15  and  C_44
REMARK   14  A    between atoms: C_18  and  C_29
REMARK   15  A    between atoms: C_24  and  C_33
REMARK   16  A    between atoms: C_24  and  C_34
REMARK   17  A    between atoms: C_32  and  C_35
REMARK   18  A    between atoms: C_36  and  C_38
REMARK   19  A    between atoms: C_37  and  C_40
REMARK   20  A    between atoms: C_39  and  C_41
REMARK   21  A    between atoms: C_41  and  C_44
REMARK   22  A    between atoms: C_44  and  C_48
REMARK   23  A    between atoms: C_55  and  C_56
REMARK   24  A    between atoms: C_55  and  C_57
REMARK   25  A    between atoms: C_55  and  C_58
REMARK                            x       y       z     vdW  Elec       q    Type
REMARK                         _______ _______ _______ _____ _____    ______ ____
ROOT
ATOM      1  O   UNL     1      42.390  -3.533  12.316  0.00  0.00    +0.000 OA
ATOM      2  O   UNL     1      46.026   2.062  13.103  0.00  0.00    +0.000 OA
ATOM      3  C   UNL     1      45.411  -2.034  11.623  0.00  0.00    +0.000 C 
ATOM      4  C   UNL     1      44.488  -3.102  12.281  0.00  0.00    +0.000 C 
ATOM      5  C   UNL     1      45.476  -0.553  12.808  0.00  0.00    +0.000 C 
ATOM      6  C   UNL     1      43.132  -2.292  12.169  0.00  0.00    +0.000 C 
ATOM      7  C   UNL     1      46.951  -2.790  10.894  0.00  0.00    +0.000 C 
ATOM      8  C   UNL     1      48.555  -2.317  10.004  0.00  0.00    +0.000 C 
ATOM      9  C   UNL     1      43.969  -0.071  12.891  0.00  0.00    +0.000 C 
ATOM     10  C   UNL     1      42.924  -1.191  13.186  0.00  0.00    +0.000 C 
ATOM     11  C   UNL     1      49.274  -0.708   9.799  0.00  0.00    +0.000 C 
ATOM     12  C   UNL     1      43.532  -4.176  11.624  0.00  0.00    +0.000 C 
ATOM     13  C   UNL     1      46.523   1.004  12.659  0.00  0.00    +0.000 C 
ATOM     14  C   UNL     1      49.721  -3.044  10.820  0.00  0.00    +0.000 C 
ATOM     15  C   UNL     1      49.441   0.047  11.200  0.00  0.00    +0.000 C 
ATOM     16  C   UNL     1      45.802  -0.987  14.298  0.00  0.00    +0.000 C 
ATOM     17  C   UNL     1      48.281   1.200  11.915  0.00  0.00    +0.000 C 
ATOM     18  C   UNL     1      50.505  -2.194  11.921  0.00  0.00    +0.000 C 
ATOM     19  C   UNL     1      50.270  -0.646  12.052  0.00  0.00    +0.000 C 
ATOM     20  C   UNL     1      50.756  -0.925   9.207  0.00  0.00    +0.000 C 
ATOM     21  C   UNL     1      48.792   0.201   8.623  0.00  0.00    +0.000 C 
ATOM     22  C   UNL     1      50.799  -0.048  13.332  0.00  0.00    +0.000 C 
ENDROOT
BRANCH  17  23
ATOM     23  O   UNL     1      48.417   2.386  11.132  0.00  0.00    +0.000 OA
ATOM     24  H   UNL     1      48.702   3.073  11.763  0.00  0.00    +0.000 HD
ENDBRANCH  17  23
BRANCH   9  25
ATOM     25  O   UNL     1      43.606   0.512  11.639  0.00  0.00    +0.000 OA
ATOM     26  H   UNL     1      44.420   0.574  11.107  0.00  0.00    +0.000 HD
ENDBRANCH   9  25
BRANCH   8  27
ATOM     27  O   UNL     1      48.470  -2.980   8.727  0.00  0.00    +0.000 OA
ATOM     28  H   UNL     1      49.367  -3.205   8.424  0.00  0.00    +0.000 HD
ENDBRANCH   8  27
BRANCH  18  29
ATOM     29  O   UNL     1      50.204  -2.775  13.222  0.00  0.00    +0.000 OA
BRANCH  29  31
ATOM     30  O   UNL     1      52.060  -2.702  14.507  0.00  0.00    +0.000 OA
ATOM     31  C   UNL     1      51.221  -3.361  13.903  0.00  0.00    +0.000 C 
BRANCH  31  32
ATOM     32  C   UNL     1      51.335  -4.879  13.724  0.00  0.00    +0.000 C 
BRANCH  32  33
ATOM     33  O   UNL     1      50.123  -5.550  13.361  0.00  0.00    +0.000 OA
ATOM     34  H   UNL     1      49.943  -5.299  12.435  0.00  0.00    +0.000 HD
ENDBRANCH  32  33
BRANCH  32  35
ATOM     35  C   UNL     1      51.954  -5.480  15.014  0.00  0.00    +0.000 C 
BRANCH  35  36
ATOM     36  C   UNL     1      53.055  -6.493  14.721  0.00  0.00    +0.000 A 
ATOM     37  C   UNL     1      53.908  -6.910  15.757  0.00  0.00    +0.000 A 
ATOM     38  C   UNL     1      53.225  -7.058  13.446  0.00  0.00    +0.000 A 
ATOM     39  C   UNL     1      54.917  -7.845  15.519  0.00  0.00    +0.000 A 
ATOM     40  C   UNL     1      54.236  -7.992  13.211  0.00  0.00    +0.000 A 
ATOM     41  C   UNL     1      55.083  -8.383  14.245  0.00  0.00    +0.000 A 
ENDBRANCH  35  36
BRANCH  35  43
ATOM     42  O   UNL     1      50.883  -4.557  17.516  0.00  0.00    +0.000 OA
ATOM     43  N   UNL     1      50.941  -6.116  15.845  0.00  0.00    +0.000 N 
ATOM     44  C   UNL     1      50.579  -5.649  17.067  0.00  0.00    +0.000 C 
ATOM     45  H   UNL     1      50.718  -7.084  15.652  0.00  0.00    +0.000 HD
BRANCH  44  46
ATOM     46  O   UNL     1      49.813  -6.580  17.675  0.00  0.00    +0.000 OA
BRANCH  46  47
ATOM     47  C   UNL     1      48.409  -6.327  17.940  0.00  0.00    +0.000 C 
ATOM     48  C   UNL     1      47.757  -5.542  16.798  0.00  0.00    +0.000 C 
ATOM     49  C   UNL     1      47.768  -7.722  18.006  0.00  0.00    +0.000 C 
ATOM     50  C   UNL     1      48.217  -5.635  19.294  0.00  0.00    +0.000 C 
ENDBRANCH  46  47
ENDBRANCH  44  46
ENDBRANCH  35  43
ENDBRANCH  32  35
ENDBRANCH  31  32
ENDBRANCH  29  31
ENDBRANCH  18  29
BRANCH   7  51
ATOM     51  O   UNL     1      47.529  -2.502  12.042  0.00  0.00    +0.000 OA
BRANCH  51  53
ATOM     52  O   UNL     1      47.715  -3.713  13.632  0.00  0.00    +0.000 OA
ATOM     53  C   UNL     1      47.442  -3.814  12.441  0.00  0.00    +0.000 C 
BRANCH  53  54
ATOM     54  C   UNL     1      47.266  -5.293  11.236  0.00  0.00    +0.000 A 
ATOM     55  C   UNL     1      48.374  -5.990  10.583  0.00  0.00    +0.000 A 
ATOM     56  C   UNL     1      46.074  -6.009  10.907  0.00  0.00    +0.000 A 
ATOM     57  C   UNL     1      48.300  -7.152   9.772  0.00  0.00    +0.000 A 
ATOM     58  C   UNL     1      45.979  -7.177  10.095  0.00  0.00    +0.000 A 
ATOM     59  C   UNL     1      47.091  -7.750   9.527  0.00  0.00    +0.000 A 
ENDBRANCH  53  54
ENDBRANCH  51  53
ENDBRANCH   7  51
BRANCH   4  60
ATOM     60  O   UNL     1      44.885  -3.415  13.637  0.00  0.00    +0.000 OA
BRANCH  60  62
ATOM     61  O   UNL     1      43.416  -3.811  15.277  0.00  0.00    +0.000 OA
ATOM     62  C   UNL     1      44.209  -4.258  14.451  0.00  0.00    +0.000 C 
ATOM     63  C   UNL     1      44.529  -5.719  14.409  0.00  0.00    +0.000 C 
ENDBRANCH  60  62
ENDBRANCH   4  60
TORSDOF 17
ENDMDL
MODEL 8
REMARK VINA RESULT:      -5.8      3.665      7.447
REMARK  Name = 
REMARK  25 active torsions:
REMARK  status: ('A' for Active; 'I' for Inactive)
REMARK    1  A    between atoms: O_2  and  C_17
REMARK    2  A    between atoms: O_2  and  C_36
REMARK    3  A    between atoms: O_3  and  C_20
REMARK    4  A    between atoms: O_3  and  C_37
REMARK    5  A    between atoms: O_4  and  C_21
REMARK    6  A    between atoms: O_5  and  C_22
REMARK    7  A    between atoms: O_7  and  C_30
REMARK    8  A    between atoms: O_8  and  C_31
REMARK    9  A    between atoms: O_8  and  C_39
REMARK   10  A    between atoms: O_12  and  C_41
REMARK   11  A    between atoms: O_13  and  C_51
REMARK   12  A    between atoms: O_13  and  C_55
REMARK   13  A    between atoms: N_15  and  C_44
REMARK   14  A    between atoms: C_18  and  C_29
REMARK   15  A    between atoms: C_24  and  C_33
REMARK   16  A    between atoms: C_24  and  C_34
REMARK   17  A    between atoms: C_32  and  C_35
REMARK   18  A    between atoms: C_36  and  C_38
REMARK   19  A    between atoms: C_37  and  C_40
REMARK   20  A    between atoms: C_39  and  C_41
REMARK   21  A    between atoms: C_41  and  C_44
REMARK   22  A    between atoms: C_44  and  C_48
REMARK   23  A    between atoms: C_55  and  C_56
REMARK   24  A    between atoms: C_55  and  C_57
REMARK   25  A    between atoms: C_55  and  C_58
REMARK                            x       y       z     vdW  Elec       q    Type
REMARK                         _______ _______ _______ _____ _____    ______ ____
ROOT
ATOM      1  O   UNL     1      42.382  -3.651  12.552  0.00  0.00    +0.000 OA
ATOM      2  O   UNL     1      45.851   2.085  13.026  0.00  0.00    +0.000 OA
ATOM      3  C   UNL     1      45.330  -2.081  11.713  0.00  0.00    +0.000 C 
ATOM      4  C   UNL     1      44.463  -3.154  12.437  0.00  0.00    +0.000 C 
ATOM      5  C   UNL     1      45.380  -0.556  12.842  0.00  0.00    +0.000 C 
ATOM      6  C   UNL     1      43.078  -2.393  12.338  0.00  0.00    +0.000 C 
ATOM      7  C   UNL     1      46.872  -2.813  10.965  0.00  0.00    +0.000 C 
ATOM      8  C   UNL     1      48.432  -2.321  10.009  0.00  0.00    +0.000 C 
ATOM      9  C   UNL     1      43.861  -0.120  12.955  0.00  0.00    +0.000 C 
ATOM     10  C   UNL     1      42.863  -1.262  13.321  0.00  0.00    +0.000 C 
ATOM     11  C   UNL     1      49.091  -0.697   9.725  0.00  0.00    +0.000 C 
ATOM     12  C   UNL     1      43.525  -4.282  11.848  0.00  0.00    +0.000 C 
ATOM     13  C   UNL     1      46.370   1.028  12.606  0.00  0.00    +0.000 C 
ATOM     14  C   UNL     1      49.645  -2.979  10.815  0.00  0.00    +0.000 C 
ATOM     15  C   UNL     1      49.274   0.113  11.093  0.00  0.00    +0.000 C 
ATOM     16  C   UNL     1      45.765  -0.924  14.336  0.00  0.00    +0.000 C 
ATOM     17  C   UNL     1      48.097   1.253  11.801  0.00  0.00    +0.000 C 
ATOM     18  C   UNL     1      50.433  -2.064  11.860  0.00  0.00    +0.000 C 
ATOM     19  C   UNL     1      50.150  -0.521  11.943  0.00  0.00    +0.000 C 
ATOM     20  C   UNL     1      50.561  -0.888   9.096  0.00  0.00    +0.000 C 
ATOM     21  C   UNL     1      48.544   0.151   8.533  0.00  0.00    +0.000 C 
ATOM     22  C   UNL     1      50.696   0.141  13.184  0.00  0.00    +0.000 C 
ENDROOT
BRANCH  17  23
ATOM     23  O   UNL     1      48.170   2.414  10.972  0.00  0.00    +0.000 OA
ATOM     24  H   UNL     1      47.449   2.306  10.324  0.00  0.00    +0.000 HD
ENDBRANCH  17  23
BRANCH   9  25
ATOM     25  O   UNL     1      43.442   0.404  11.694  0.00  0.00    +0.000 OA
ATOM     26  H   UNL     1      44.237   0.473  11.135  0.00  0.00    +0.000 HD
ENDBRANCH   9  25
BRANCH   8  27
ATOM     27  O   UNL     1      48.331  -3.032   8.760  0.00  0.00    +0.000 OA
ATOM     28  H   UNL     1      49.227  -3.240   8.438  0.00  0.00    +0.000 HD
ENDBRANCH   8  27
BRANCH  18  29
ATOM     29  O   UNL     1      50.190  -2.607  13.190  0.00  0.00    +0.000 OA
BRANCH  29  31
ATOM     30  O   UNL     1      52.098  -2.936  14.353  0.00  0.00    +0.000 OA
ATOM     31  C   UNL     1      51.147  -3.400  13.733  0.00  0.00    +0.000 C 
BRANCH  31  32
ATOM     32  C   UNL     1      51.042  -4.887  13.375  0.00  0.00    +0.000 C 
BRANCH  32  33
ATOM     33  O   UNL     1      50.803  -5.770  14.477  0.00  0.00    +0.000 OA
ATOM     34  H   UNL     1      49.880  -5.612  14.754  0.00  0.00    +0.000 HD
ENDBRANCH  32  33
BRANCH  32  35
ATOM     35  C   UNL     1      52.315  -5.293  12.586  0.00  0.00    +0.000 C 
BRANCH  35  36
ATOM     36  C   UNL     1      52.030  -6.330  11.505  0.00  0.00    +0.000 A 
ATOM     37  C   UNL     1      52.152  -5.972  10.152  0.00  0.00    +0.000 A 
ATOM     38  C   UNL     1      51.683  -7.655  11.819  0.00  0.00    +0.000 A 
ATOM     39  C   UNL     1      51.908  -6.905   9.142  0.00  0.00    +0.000 A 
ATOM     40  C   UNL     1      51.438  -8.585  10.807  0.00  0.00    +0.000 A 
ATOM     41  C   UNL     1      51.548  -8.210   9.469  0.00  0.00    +0.000 A 
ENDBRANCH  35  36
BRANCH  35  43
ATOM     42  O   UNL     1      55.159  -4.929  12.391  0.00  0.00    +0.000 OA
ATOM     43  N   UNL     1      53.349  -5.812  13.472  0.00  0.00    +0.000 N 
ATOM     44  C   UNL     1      54.676  -5.669  13.231  0.00  0.00    +0.000 C 
ATOM     45  H   UNL     1      53.087  -6.548  14.115  0.00  0.00    +0.000 HD
BRANCH  44  46
ATOM     46  O   UNL     1      55.358  -6.458  14.089  0.00  0.00    +0.000 OA
BRANCH  46  47
ATOM     47  C   UNL     1      56.072  -7.628  13.613  0.00  0.00    +0.000 C 
ATOM     48  C   UNL     1      57.524  -7.290  13.256  0.00  0.00    +0.000 C 
ATOM     49  C   UNL     1      56.073  -8.596  14.805  0.00  0.00    +0.000 C 
ATOM     50  C   UNL     1      55.335  -8.290  12.444  0.00  0.00    +0.000 C 
ENDBRANCH  46  47
ENDBRANCH  44  46
ENDBRANCH  35  43
ENDBRANCH  32  35
ENDBRANCH  31  32
ENDBRANCH  29  31
ENDBRANCH  18  29
BRANCH   7  51
ATOM     51  O   UNL     1      47.474  -2.464  12.083  0.00  0.00    +0.000 OA
BRANCH  51  53
ATOM     52  O   UNL     1      47.686  -3.595  13.729  0.00  0.00    +0.000 OA
ATOM     53  C   UNL     1      47.421  -3.758  12.542  0.00  0.00    +0.000 C 
BRANCH  53  54
ATOM     54  C   UNL     1      47.287  -5.295  11.407  0.00  0.00    +0.000 A 
ATOM     55  C   UNL     1      46.037  -5.896  10.939  0.00  0.00    +0.000 A 
ATOM     56  C   UNL     1      48.351  -5.987  10.751  0.00  0.00    +0.000 A 
ATOM     57  C   UNL     1      45.890  -6.963  10.016  0.00  0.00    +0.000 A 
ATOM     58  C   UNL     1      48.223  -7.060   9.822  0.00  0.00    +0.000 A 
ATOM     59  C   UNL     1      46.994  -7.550   9.453  0.00  0.00    +0.000 A 
ENDBRANCH  53  54
ENDBRANCH  51  53
ENDBRANCH   7  51
BRANCH   4  60
ATOM     60  O   UNL     1      44.910  -3.403  13.790  0.00  0.00    +0.000 OA
BRANCH  60  62
ATOM     61  O   UNL     1      43.477  -3.884  15.440  0.00  0.00    +0.000 OA
ATOM     62  C   UNL     1      44.320  -4.279  14.637  0.00  0.00    +0.000 C 
ATOM     63  C   UNL     1      44.792  -5.698  14.658  0.00  0.00    +0.000 C 
ENDBRANCH  60  62
ENDBRANCH   4  60
TORSDOF 17
ENDMDL
MODEL 9
REMARK VINA RESULT:      -5.7     34.550     38.838
REMARK  Name = 
REMARK  25 active torsions:
REMARK  status: ('A' for Active; 'I' for Inactive)
REMARK    1  A    between atoms: O_2  and  C_17
REMARK    2  A    between atoms: O_2  and  C_36
REMARK    3  A    between atoms: O_3  and  C_20
REMARK    4  A    between atoms: O_3  and  C_37
REMARK    5  A    between atoms: O_4  and  C_21
REMARK    6  A    between atoms: O_5  and  C_22
REMARK    7  A    between atoms: O_7  and  C_30
REMARK    8  A    between atoms: O_8  and  C_31
REMARK    9  A    between atoms: O_8  and  C_39
REMARK   10  A    between atoms: O_12  and  C_41
REMARK   11  A    between atoms: O_13  and  C_51
REMARK   12  A    between atoms: O_13  and  C_55
REMARK   13  A    between atoms: N_15  and  C_44
REMARK   14  A    between atoms: C_18  and  C_29
REMARK   15  A    between atoms: C_24  and  C_33
REMARK   16  A    between atoms: C_24  and  C_34
REMARK   17  A    between atoms: C_32  and  C_35
REMARK   18  A    between atoms: C_36  and  C_38
REMARK   19  A    between atoms: C_37  and  C_40
REMARK   20  A    between atoms: C_39  and  C_41
REMARK   21  A    between atoms: C_41  and  C_44
REMARK   22  A    between atoms: C_44  and  C_48
REMARK   23  A    between atoms: C_55  and  C_56
REMARK   24  A    between atoms: C_55  and  C_57
REMARK   25  A    between atoms: C_55  and  C_58
REMARK                            x       y       z     vdW  Elec       q    Type
REMARK                         _______ _______ _______ _____ _____    ______ ____
ROOT
ATOM      1  O   UNL     1      26.179  26.122  34.224  0.00  0.00    +0.000 OA
ATOM      2  O   UNL     1      27.976  19.755  35.404  0.00  0.00    +0.000 OA
ATOM      3  C   UNL     1      25.725  22.853  33.240  0.00  0.00    +0.000 C 
ATOM      4  C   UNL     1      25.272  24.220  33.833  0.00  0.00    +0.000 C 
ATOM      5  C   UNL     1      26.435  21.834  34.675  0.00  0.00    +0.000 C 
ATOM      6  C   UNL     1      26.713  24.770  34.194  0.00  0.00    +0.000 C 
ATOM      7  C   UNL     1      24.471  22.154  32.051  0.00  0.00    +0.000 C 
ATOM      8  C   UNL     1      24.148  20.639  30.961  0.00  0.00    +0.000 C 
ATOM      9  C   UNL     1      27.660  22.701  35.183  0.00  0.00    +0.000 C 
ATOM     10  C   UNL     1      27.351  24.207  35.446  0.00  0.00    +0.000 C 
ATOM     11  C   UNL     1      24.989  19.076  30.960  0.00  0.00    +0.000 C 
ATOM     12  C   UNL     1      25.233  25.659  33.180  0.00  0.00    +0.000 C 
ATOM     13  C   UNL     1      27.025  20.047  34.646  0.00  0.00    +0.000 C 
ATOM     14  C   UNL     1      22.668  20.162  31.330  0.00  0.00    +0.000 C 
ATOM     15  C   UNL     1      25.028  18.426  32.422  0.00  0.00    +0.000 C 
ATOM     16  C   UNL     1      25.465  21.804  35.930  0.00  0.00    +0.000 C 
ATOM     17  C   UNL     1      26.360  18.582  33.602  0.00  0.00    +0.000 C 
ATOM     18  C   UNL     1      22.507  18.982  32.394  0.00  0.00    +0.000 C 
ATOM     19  C   UNL     1      23.763  18.189  32.904  0.00  0.00    +0.000 C 
ATOM     20  C   UNL     1      24.130  18.079  30.030  0.00  0.00    +0.000 C 
ATOM     21  C   UNL     1      26.310  18.919  30.141  0.00  0.00    +0.000 C 
ATOM     22  C   UNL     1      23.509  17.360  34.139  0.00  0.00    +0.000 C 
ENDROOT
BRANCH  17  23
ATOM     23  O   UNL     1      27.403  17.756  33.083  0.00  0.00    +0.000 OA
ATOM     24  H   UNL     1      28.218  18.085  33.508  0.00  0.00    +0.000 HD
ENDBRANCH  17  23
BRANCH   9  25
ATOM     25  O   UNL     1      28.691  22.658  34.195  0.00  0.00    +0.000 OA
ATOM     26  H   UNL     1      28.336  23.085  33.395  0.00  0.00    +0.000 HD
ENDBRANCH   9  25
BRANCH   8  27
ATOM     27  O   UNL     1      24.091  21.163  29.619  0.00  0.00    +0.000 OA
ATOM     28  H   UNL     1      24.626  20.599  29.034  0.00  0.00    +0.000 HD
ENDBRANCH   8  27
BRANCH  18  29
ATOM     29  O   UNL     1      21.855  19.539  33.572  0.00  0.00    +0.000 OA
BRANCH  29  31
ATOM     30  O   UNL     1      20.237  18.958  35.037  0.00  0.00    +0.000 OA
ATOM     31  C   UNL     1      20.611  19.091  33.877  0.00  0.00    +0.000 C 
BRANCH  31  32
ATOM     32  C   UNL     1      19.780  18.612  32.681  0.00  0.00    +0.000 C 
BRANCH  32  33
ATOM     33  O   UNL     1      18.675  19.451  32.324  0.00  0.00    +0.000 OA
ATOM     34  H   UNL     1      18.073  18.894  31.795  0.00  0.00    +0.000 HD
ENDBRANCH  32  33
BRANCH  32  35
ATOM     35  C   UNL     1      19.322  17.154  32.954  0.00  0.00    +0.000 C 
BRANCH  35  36
ATOM     36  C   UNL     1      20.189  16.123  32.239  0.00  0.00    +0.000 A 
ATOM     37  C   UNL     1      20.517  16.312  30.887  0.00  0.00    +0.000 A 
ATOM     38  C   UNL     1      20.706  14.999  32.904  0.00  0.00    +0.000 A 
ATOM     39  C   UNL     1      21.318  15.388  30.211  0.00  0.00    +0.000 A 
ATOM     40  C   UNL     1      21.506  14.077  32.225  0.00  0.00    +0.000 A 
ATOM     41  C   UNL     1      21.809  14.270  30.879  0.00  0.00    +0.000 A 
ENDBRANCH  35  36
BRANCH  35  43
ATOM     42  O   UNL     1      16.953  17.977  34.358  0.00  0.00    +0.000 OA
ATOM     43  N   UNL     1      17.933  16.950  32.566  0.00  0.00    +0.000 N 
ATOM     44  C   UNL     1      16.882  17.286  33.355  0.00  0.00    +0.000 C 
ATOM     45  H   UNL     1      17.746  16.275  31.836  0.00  0.00    +0.000 HD
BRANCH  44  46
ATOM     46  O   UNL     1      15.759  16.753  32.828  0.00  0.00    +0.000 OA
BRANCH  46  47
ATOM     47  C   UNL     1      14.812  16.042  33.667  0.00  0.00    +0.000 C 
ATOM     48  C   UNL     1      13.935  17.011  34.466  0.00  0.00    +0.000 C 
ATOM     49  C   UNL     1      13.921  15.272  32.680  0.00  0.00    +0.000 C 
ATOM     50  C   UNL     1      15.524  15.033  34.574  0.00  0.00    +0.000 C 
ENDBRANCH  46  47
ENDBRANCH  44  46
ENDBRANCH  35  43
ENDBRANCH  32  35
ENDBRANCH  31  32
ENDBRANCH  29  31
ENDBRANCH  18  29
BRANCH   7  51
ATOM     51  O   UNL     1      23.997  21.486  33.082  0.00  0.00    +0.000 OA
BRANCH  51  53
ATOM     52  O   UNL     1      23.059  22.973  32.112  0.00  0.00    +0.000 OA
ATOM     53  C   UNL     1      22.864  22.263  33.093  0.00  0.00    +0.000 C 
BRANCH  53  54
ATOM     54  C   UNL     1      21.604  22.303  34.536  0.00  0.00    +0.000 A 
ATOM     55  C   UNL     1      21.895  21.947  35.925  0.00  0.00    +0.000 A 
ATOM     56  C   UNL     1      20.265  22.800  34.507  0.00  0.00    +0.000 A 
ATOM     57  C   UNL     1      21.028  22.063  37.042  0.00  0.00    +0.000 A 
ATOM     58  C   UNL     1      19.379  22.923  35.617  0.00  0.00    +0.000 A 
ATOM     59  C   UNL     1      19.758  22.556  36.885  0.00  0.00    +0.000 A 
ENDBRANCH  53  54
ENDBRANCH  51  53
ENDBRANCH   7  51
BRANCH   4  60
ATOM     60  O   UNL     1      24.393  24.063  34.972  0.00  0.00    +0.000 OA
BRANCH  60  62
ATOM     61  O   UNL     1      22.672  25.473  34.733  0.00  0.00    +0.000 OA
ATOM     62  C   UNL     1      23.576  25.035  35.441  0.00  0.00    +0.000 C 
ATOM     63  C   UNL     1      23.865  25.643  36.777  0.00  0.00    +0.000 C 
ENDBRANCH  60  62
ENDBRANCH   4  60
TORSDOF 17
ENDMDL
