MODEL 1
REMARK VINA RESULT:      -8.9      0.000      0.000
REMARK  Name = 
REMARK  13 active torsions:
REMARK  status: ('A' for Active; 'I' for Inactive)
REMARK    1  A    between atoms: O_1  and  C_13
REMARK    2  A    between atoms: O_1  and  C_19
REMARK    3  A    between atoms: O_3  and  C_14
REMARK    4  A    between atoms: O_4  and  C_22
REMARK    5  A    between atoms: O_5  and  C_24
REMARK    6  A    between atoms: O_6  and  C_26
REMARK    7  A    between atoms: O_8  and  C_30
REMARK    8  A    between atoms: O_11  and  C_35
REMARK    9  A    between atoms: O_11  and  C_39
REMARK   10  A    between atoms: N_12  and  C_21
REMARK   11  A    between atoms: C_14  and  C_25
REMARK   12  A    between atoms: C_23  and  C_29
REMARK   13  A    between atoms: C_25  and  C_30
REMARK                            x       y       z     vdW  Elec       q    Type
REMARK                         _______ _______ _______ _____ _____    ______ ____
ROOT
ATOM      1  O   UNL     1      43.457  -7.903   7.986  0.00  0.00    +0.000 OA
ATOM      2  O   UNL     1      48.688  -8.811   8.276  0.00  0.00    +0.000 OA
ATOM      3  C   UNL     1      45.166  -3.907  10.710  0.00  0.00    +0.000 C 
ATOM      4  C   UNL     1      47.426  -3.316  11.692  0.00  0.00    +0.000 C 
ATOM      5  C   UNL     1      46.183  -2.792  10.960  0.00  0.00    +0.000 C 
ATOM      6  C   UNL     1      48.113  -4.419  10.874  0.00  0.00    +0.000 C 
ATOM      7  C   UNL     1      45.797  -5.104  10.027  0.00  0.00    +0.000 A 
ATOM      8  C   UNL     1      47.177  -5.361  10.137  0.00  0.00    +0.000 A 
ATOM      9  C   UNL     1      44.992  -6.012   9.313  0.00  0.00    +0.000 A 
ATOM     10  C   UNL     1      47.715  -6.499   9.510  0.00  0.00    +0.000 A 
ATOM     11  C   UNL     1      45.537  -7.156   8.698  0.00  0.00    +0.000 A 
ATOM     12  C   UNL     1      46.902  -7.396   8.797  0.00  0.00    +0.000 A 
ATOM     13  C   UNL     1      44.668  -8.104   7.964  0.00  0.00    +0.000 C 
ATOM     14  C   UNL     1      47.487  -8.588   8.155  0.00  0.00    +0.000 C 
ATOM     15  C   UNL     1      45.261  -9.264   7.257  0.00  0.00    +0.000 A 
ATOM     16  C   UNL     1      46.634  -9.496   7.368  0.00  0.00    +0.000 A 
ATOM     17  C   UNL     1      44.491 -10.148   6.485  0.00  0.00    +0.000 A 
ATOM     18  C   UNL     1      47.229 -10.592   6.724  0.00  0.00    +0.000 A 
ATOM     19  C   UNL     1      45.090 -11.225   5.822  0.00  0.00    +0.000 A 
ATOM     20  C   UNL     1      46.457 -11.454   5.950  0.00  0.00    +0.000 A 
ENDROOT
BRANCH   4  21
ATOM     21  O   UNL     1      47.074  -3.814  12.989  0.00  0.00    +0.000 OA
ATOM     22  H   UNL     1      46.197  -4.244  12.904  0.00  0.00    +0.000 HD
ENDBRANCH   4  21
BRANCH   9  23
ATOM     23  O   UNL     1      43.648  -5.730   9.242  0.00  0.00    +0.000 OA
ATOM     24  H   UNL     1      43.536  -4.761   9.095  0.00  0.00    +0.000 HD
ENDBRANCH   9  23
BRANCH  10  25
ATOM     25  O   UNL     1      49.071  -6.684   9.628  0.00  0.00    +0.000 OA
ATOM     26  H   UNL     1      49.238  -7.412  10.270  0.00  0.00    +0.000 HD
ENDBRANCH  10  25
BRANCH   4  28
ATOM     27  O   UNL     1      49.610  -2.237  11.554  0.00  0.00    +0.000 OA
ATOM     28  C   UNL     1      48.426  -2.167  11.906  0.00  0.00    +0.000 C 
BRANCH  28  29
ATOM     29  C   UNL     1      47.910  -0.911  12.603  0.00  0.00    +0.000 C 
BRANCH  29  30
ATOM     30  O   UNL     1      47.803  -1.107  14.009  0.00  0.00    +0.000 OA
ATOM     31  H   UNL     1      46.845  -1.185  14.199  0.00  0.00    +0.000 HD
ENDBRANCH  29  30
ENDBRANCH  28  29
ENDBRANCH   4  28
BRANCH  17  32
ATOM     32  O   UNL     1      43.156  -9.941   6.260  0.00  0.00    +0.000 OA
ATOM     33  C   UNL     1      42.554 -11.108   5.696  0.00  0.00    +0.000 C 
ENDBRANCH  17  32
BRANCH   3  34
ATOM     34  O   UNL     1      44.677  -4.379  11.977  0.00  0.00    +0.000 OA
BRANCH  34  36
ATOM     35  O   UNL     1      42.895  -2.839  11.942  0.00  0.00    +0.000 OA
ATOM     36  C   UNL     1      43.263  -4.206  12.112  0.00  0.00    +0.000 C 
ATOM     37  C   UNL     1      42.818  -4.760  13.467  0.00  0.00    +0.000 C 
ATOM     38  C   UNL     1      43.315  -3.874  14.612  0.00  0.00    +0.000 C 
ATOM     39  C   UNL     1      42.875  -2.416  14.368  0.00  0.00    +0.000 C 
ATOM     40  C   UNL     1      43.372  -1.972  12.978  0.00  0.00    +0.000 C 
ATOM     41  C   UNL     1      42.920  -0.561  12.620  0.00  0.00    +0.000 C 
BRANCH  38  42
ATOM     42  N   UNL     1      42.802  -4.358  15.907  0.00  0.00    +0.000 NA
ATOM     43  H   UNL     1      43.196  -5.274  16.117  0.00  0.00    +0.000 HD
ATOM     44  H   UNL     1      41.794  -4.503  15.791  0.00  0.00    +0.000 HD
ENDBRANCH  38  42
BRANCH  39  45
ATOM     45  O   UNL     1      41.440  -2.356  14.464  0.00  0.00    +0.000 OA
ATOM     46  H   UNL     1      41.090  -2.279  13.561  0.00  0.00    +0.000 HD
ENDBRANCH  39  45
ENDBRANCH  34  36
ENDBRANCH   3  34
TORSDOF 11
ENDMDL
MODEL 2
REMARK VINA RESULT:      -8.8      2.163      4.776
REMARK  Name = 
REMARK  13 active torsions:
REMARK  status: ('A' for Active; 'I' for Inactive)
REMARK    1  A    between atoms: O_1  and  C_13
REMARK    2  A    between atoms: O_1  and  C_19
REMARK    3  A    between atoms: O_3  and  C_14
REMARK    4  A    between atoms: O_4  and  C_22
REMARK    5  A    between atoms: O_5  and  C_24
REMARK    6  A    between atoms: O_6  and  C_26
REMARK    7  A    between atoms: O_8  and  C_30
REMARK    8  A    between atoms: O_11  and  C_35
REMARK    9  A    between atoms: O_11  and  C_39
REMARK   10  A    between atoms: N_12  and  C_21
REMARK   11  A    between atoms: C_14  and  C_25
REMARK   12  A    between atoms: C_23  and  C_29
REMARK   13  A    between atoms: C_25  and  C_30
REMARK                            x       y       z     vdW  Elec       q    Type
REMARK                         _______ _______ _______ _____ _____    ______ ____
ROOT
ATOM      1  O   UNL     1      48.895  -7.783   8.895  0.00  0.00    +0.000 OA
ATOM      2  O   UNL     1      43.905  -8.631   7.269  0.00  0.00    +0.000 OA
ATOM      3  C   UNL     1      46.101  -5.378  12.462  0.00  0.00    +0.000 C 
ATOM      4  C   UNL     1      43.627  -4.882  12.684  0.00  0.00    +0.000 C 
ATOM      5  C   UNL     1      44.904  -5.320  13.412  0.00  0.00    +0.000 C 
ATOM      6  C   UNL     1      43.290  -5.856  11.546  0.00  0.00    +0.000 C 
ATOM      7  C   UNL     1      45.805  -6.211  11.231  0.00  0.00    +0.000 A 
ATOM      8  C   UNL     1      44.484  -6.402  10.783  0.00  0.00    +0.000 A 
ATOM      9  C   UNL     1      46.863  -6.761  10.482  0.00  0.00    +0.000 A 
ATOM     10  C   UNL     1      44.257  -7.159   9.619  0.00  0.00    +0.000 A 
ATOM     11  C   UNL     1      46.628  -7.508   9.311  0.00  0.00    +0.000 A 
ATOM     12  C   UNL     1      45.321  -7.707   8.883  0.00  0.00    +0.000 A 
ATOM     13  C   UNL     1      47.757  -8.065   8.533  0.00  0.00    +0.000 C 
ATOM     14  C   UNL     1      45.060  -8.489   7.660  0.00  0.00    +0.000 C 
ATOM     15  C   UNL     1      47.497  -8.913   7.345  0.00  0.00    +0.000 A 
ATOM     16  C   UNL     1      46.179  -9.101   6.922  0.00  0.00    +0.000 A 
ATOM     17  C   UNL     1      48.530  -9.526   6.619  0.00  0.00    +0.000 A 
ATOM     18  C   UNL     1      45.895  -9.886   5.794  0.00  0.00    +0.000 A 
ATOM     19  C   UNL     1      48.242 -10.330   5.509  0.00  0.00    +0.000 A 
ATOM     20  C   UNL     1      46.926 -10.500   5.090  0.00  0.00    +0.000 A 
ENDROOT
BRANCH   4  21
ATOM     21  O   UNL     1      43.771  -3.554  12.167  0.00  0.00    +0.000 OA
ATOM     22  H   UNL     1      42.900  -3.291  11.801  0.00  0.00    +0.000 HD
ENDBRANCH   4  21
BRANCH   9  23
ATOM     23  O   UNL     1      48.137  -6.538  10.949  0.00  0.00    +0.000 OA
ATOM     24  H   UNL     1      48.776  -6.987  10.347  0.00  0.00    +0.000 HD
ENDBRANCH   9  23
BRANCH  10  25
ATOM     25  O   UNL     1      42.948  -7.336   9.245  0.00  0.00    +0.000 OA
ATOM     26  H   UNL     1      42.886  -7.280   8.264  0.00  0.00    +0.000 HD
ENDBRANCH  10  25
BRANCH   4  28
ATOM     27  O   UNL     1      41.310  -5.232  13.367  0.00  0.00    +0.000 OA
ATOM     28  C   UNL     1      42.448  -4.855  13.672  0.00  0.00    +0.000 C 
BRANCH  28  29
ATOM     29  C   UNL     1      42.722  -4.316  15.074  0.00  0.00    +0.000 C 
BRANCH  29  30
ATOM     30  O   UNL     1      42.810  -2.896  15.074  0.00  0.00    +0.000 OA
ATOM     31  H   UNL     1      41.898  -2.568  15.213  0.00  0.00    +0.000 HD
ENDBRANCH  29  30
ENDBRANCH  28  29
ENDBRANCH   4  28
BRANCH  17  32
ATOM     32  O   UNL     1      49.838  -9.458   7.018  0.00  0.00    +0.000 OA
ATOM     33  C   UNL     1      50.693  -9.211   5.900  0.00  0.00    +0.000 C 
ENDBRANCH  17  32
BRANCH   3  34
ATOM     34  O   UNL     1      46.382  -4.049  11.991  0.00  0.00    +0.000 OA
BRANCH  34  36
ATOM     35  O   UNL     1      46.878  -2.523  13.715  0.00  0.00    +0.000 OA
ATOM     36  C   UNL     1      47.420  -3.414  12.743  0.00  0.00    +0.000 C 
ATOM     37  C   UNL     1      48.376  -2.706  11.780  0.00  0.00    +0.000 C 
ATOM     38  C   UNL     1      47.708  -1.485  11.143  0.00  0.00    +0.000 C 
ATOM     39  C   UNL     1      47.154  -0.563  12.249  0.00  0.00    +0.000 C 
ATOM     40  C   UNL     1      46.215  -1.382  13.156  0.00  0.00    +0.000 C 
ATOM     41  C   UNL     1      45.673  -0.566  14.324  0.00  0.00    +0.000 C 
BRANCH  38  42
ATOM     42  N   UNL     1      48.664  -0.753  10.292  0.00  0.00    +0.000 NA
ATOM     43  H   UNL     1      48.249  -0.571   9.380  0.00  0.00    +0.000 HD
ATOM     44  H   UNL     1      49.455  -1.384  10.123  0.00  0.00    +0.000 HD
ENDBRANCH  38  42
BRANCH  39  45
ATOM     45  O   UNL     1      48.266  -0.023  12.986  0.00  0.00    +0.000 OA
ATOM     46  H   UNL     1      48.973   0.170  12.348  0.00  0.00    +0.000 HD
ENDBRANCH  39  45
ENDBRANCH  34  36
ENDBRANCH   3  34
TORSDOF 11
ENDMDL
MODEL 3
REMARK VINA RESULT:      -7.7      2.744      5.852
REMARK  Name = 
REMARK  13 active torsions:
REMARK  status: ('A' for Active; 'I' for Inactive)
REMARK    1  A    between atoms: O_1  and  C_13
REMARK    2  A    between atoms: O_1  and  C_19
REMARK    3  A    between atoms: O_3  and  C_14
REMARK    4  A    between atoms: O_4  and  C_22
REMARK    5  A    between atoms: O_5  and  C_24
REMARK    6  A    between atoms: O_6  and  C_26
REMARK    7  A    between atoms: O_8  and  C_30
REMARK    8  A    between atoms: O_11  and  C_35
REMARK    9  A    between atoms: O_11  and  C_39
REMARK   10  A    between atoms: N_12  and  C_21
REMARK   11  A    between atoms: C_14  and  C_25
REMARK   12  A    between atoms: C_23  and  C_29
REMARK   13  A    between atoms: C_25  and  C_30
REMARK                            x       y       z     vdW  Elec       q    Type
REMARK                         _______ _______ _______ _____ _____    ______ ____
ROOT
ATOM      1  O   UNL     1      48.747  -5.986   9.922  0.00  0.00    +0.000 OA
ATOM      2  O   UNL     1      43.510  -6.643   9.286  0.00  0.00    +0.000 OA
ATOM      3  C   UNL     1      46.796  -1.718  11.993  0.00  0.00    +0.000 C 
ATOM      4  C   UNL     1      44.453  -0.760  12.107  0.00  0.00    +0.000 C 
ATOM      5  C   UNL     1      45.764  -1.003  12.866  0.00  0.00    +0.000 C 
ATOM      6  C   UNL     1      43.845  -2.088  11.634  0.00  0.00    +0.000 C 
ATOM      7  C   UNL     1      46.230  -2.977  11.366  0.00  0.00    +0.000 A 
ATOM      8  C   UNL     1      44.845  -3.130  11.166  0.00  0.00    +0.000 A 
ATOM      9  C   UNL     1      47.098  -3.993  10.922  0.00  0.00    +0.000 A 
ATOM     10  C   UNL     1      44.366  -4.303  10.555  0.00  0.00    +0.000 A 
ATOM     11  C   UNL     1      46.611  -5.160  10.301  0.00  0.00    +0.000 A 
ATOM     12  C   UNL     1      45.242  -5.313  10.120  0.00  0.00    +0.000 A 
ATOM     13  C   UNL     1      47.544  -6.208   9.830  0.00  0.00    +0.000 C 
ATOM     14  C   UNL     1      44.718  -6.530   9.473  0.00  0.00    +0.000 C 
ATOM     15  C   UNL     1      47.018  -7.465   9.245  0.00  0.00    +0.000 A 
ATOM     16  C   UNL     1      45.640  -7.604   9.065  0.00  0.00    +0.000 A 
ATOM     17  C   UNL     1      47.857  -8.520   8.854  0.00  0.00    +0.000 A 
ATOM     18  C   UNL     1      45.107  -8.775   8.502  0.00  0.00    +0.000 A 
ATOM     19  C   UNL     1      47.321  -9.697   8.317  0.00  0.00    +0.000 A 
ATOM     20  C   UNL     1      45.948  -9.819   8.131  0.00  0.00    +0.000 A 
ENDROOT
BRANCH   4  21
ATOM     21  O   UNL     1      44.673   0.106  10.986  0.00  0.00    +0.000 OA
ATOM     22  H   UNL     1      44.447   1.015  11.275  0.00  0.00    +0.000 HD
ENDBRANCH   4  21
BRANCH   9  23
ATOM     23  O   UNL     1      48.443  -3.795  11.125  0.00  0.00    +0.000 OA
ATOM     24  H   UNL     1      48.565  -3.304  11.972  0.00  0.00    +0.000 HD
ENDBRANCH   9  23
BRANCH  10  25
ATOM     25  O   UNL     1      43.004  -4.411  10.410  0.00  0.00    +0.000 OA
ATOM     26  H   UNL     1      42.721  -3.865   9.642  0.00  0.00    +0.000 HD
ENDBRANCH  10  25
BRANCH   4  28
ATOM     27  O   UNL     1      43.498   1.152  13.286  0.00  0.00    +0.000 OA
ATOM     28  C   UNL     1      43.441  -0.056  13.027  0.00  0.00    +0.000 C 
BRANCH  28  29
ATOM     29  C   UNL     1      42.344  -0.919  13.648  0.00  0.00    +0.000 C 
BRANCH  29  30
ATOM     30  O   UNL     1      41.051  -0.464  13.266  0.00  0.00    +0.000 OA
ATOM     31  H   UNL     1      41.018   0.487  13.497  0.00  0.00    +0.000 HD
ENDBRANCH  29  30
ENDBRANCH  28  29
ENDBRANCH   4  28
BRANCH  17  32
ATOM     32  O   UNL     1      49.208  -8.494   9.074  0.00  0.00    +0.000 OA
ATOM     33  C   UNL     1      49.720  -9.820   9.223  0.00  0.00    +0.000 C 
ENDBRANCH  17  32
BRANCH   3  34
ATOM     34  O   UNL     1      47.156  -0.853  10.902  0.00  0.00    +0.000 OA
BRANCH  34  36
ATOM     35  O   UNL     1      48.217   1.151  10.266  0.00  0.00    +0.000 OA
ATOM     36  C   UNL     1      48.036   0.198  11.311  0.00  0.00    +0.000 C 
ATOM     37  C   UNL     1      49.361  -0.409  11.775  0.00  0.00    +0.000 C 
ATOM     38  C   UNL     1      50.146  -0.982  10.593  0.00  0.00    +0.000 C 
ATOM     39  C   UNL     1      50.312   0.101   9.508  0.00  0.00    +0.000 C 
ATOM     40  C   UNL     1      48.920   0.641   9.126  0.00  0.00    +0.000 C 
ATOM     41  C   UNL     1      48.991   1.771   8.105  0.00  0.00    +0.000 C 
BRANCH  38  42
ATOM     42  N   UNL     1      51.463  -1.478  11.033  0.00  0.00    +0.000 NA
ATOM     43  H   UNL     1      51.344  -2.262  11.673  0.00  0.00    +0.000 HD
ATOM     44  H   UNL     1      51.895  -0.727  11.581  0.00  0.00    +0.000 HD
ENDBRANCH  38  42
BRANCH  39  45
ATOM     45  O   UNL     1      51.159   1.140  10.032  0.00  0.00    +0.000 OA
ATOM     46  H   UNL     1      52.040   1.025   9.638  0.00  0.00    +0.000 HD
ENDBRANCH  39  45
ENDBRANCH  34  36
ENDBRANCH   3  34
TORSDOF 11
ENDMDL
MODEL 4
REMARK VINA RESULT:      -7.5     35.647     39.249
REMARK  Name = 
REMARK  13 active torsions:
REMARK  status: ('A' for Active; 'I' for Inactive)
REMARK    1  A    between atoms: O_1  and  C_13
REMARK    2  A    between atoms: O_1  and  C_19
REMARK    3  A    between atoms: O_3  and  C_14
REMARK    4  A    between atoms: O_4  and  C_22
REMARK    5  A    between atoms: O_5  and  C_24
REMARK    6  A    between atoms: O_6  and  C_26
REMARK    7  A    between atoms: O_8  and  C_30
REMARK    8  A    between atoms: O_11  and  C_35
REMARK    9  A    between atoms: O_11  and  C_39
REMARK   10  A    between atoms: N_12  and  C_21
REMARK   11  A    between atoms: C_14  and  C_25
REMARK   12  A    between atoms: C_23  and  C_29
REMARK   13  A    between atoms: C_25  and  C_30
REMARK                            x       y       z     vdW  Elec       q    Type
REMARK                         _______ _______ _______ _____ _____    ______ ____
ROOT
ATOM      1  O   UNL     1      24.203  28.348   2.160  0.00  0.00    +0.000 OA
ATOM      2  O   UNL     1      23.373  25.470   6.553  0.00  0.00    +0.000 OA
ATOM      3  C   UNL     1      23.633  23.592   0.326  0.00  0.00    +0.000 C 
ATOM      4  C   UNL     1      23.405  21.322   1.429  0.00  0.00    +0.000 C 
ATOM      5  C   UNL     1      22.915  22.241   0.303  0.00  0.00    +0.000 C 
ATOM      6  C   UNL     1      23.166  21.970   2.801  0.00  0.00    +0.000 C 
ATOM      7  C   UNL     1      23.568  24.243   1.693  0.00  0.00    +0.000 A 
ATOM      8  C   UNL     1      23.385  23.472   2.858  0.00  0.00    +0.000 A 
ATOM      9  C   UNL     1      23.747  25.633   1.820  0.00  0.00    +0.000 A 
ATOM     10  C   UNL     1      23.359  24.115   4.108  0.00  0.00    +0.000 A 
ATOM     11  C   UNL     1      23.731  26.268   3.077  0.00  0.00    +0.000 A 
ATOM     12  C   UNL     1      23.535  25.504   4.222  0.00  0.00    +0.000 A 
ATOM     13  C   UNL     1      23.936  27.730   3.186  0.00  0.00    +0.000 C 
ATOM     14  C   UNL     1      23.513  26.156   5.545  0.00  0.00    +0.000 C 
ATOM     15  C   UNL     1      23.843  28.399   4.506  0.00  0.00    +0.000 A 
ATOM     16  C   UNL     1      23.649  27.619   5.649  0.00  0.00    +0.000 A 
ATOM     17  C   UNL     1      23.953  29.790   4.653  0.00  0.00    +0.000 A 
ATOM     18  C   UNL     1      23.569  28.216   6.917  0.00  0.00    +0.000 A 
ATOM     19  C   UNL     1      23.847  30.386   5.915  0.00  0.00    +0.000 A 
ATOM     20  C   UNL     1      23.667  29.598   7.048  0.00  0.00    +0.000 A 
ENDROOT
BRANCH   4  21
ATOM     21  O   UNL     1      24.796  21.021   1.265  0.00  0.00    +0.000 OA
ATOM     22  H   UNL     1      24.852  20.127   0.866  0.00  0.00    +0.000 HD
ENDBRANCH   4  21
BRANCH   9  23
ATOM     23  O   UNL     1      23.936  26.344   0.659  0.00  0.00    +0.000 OA
ATOM     24  H   UNL     1      23.105  26.311   0.129  0.00  0.00    +0.000 HD
ENDBRANCH   9  23
BRANCH  10  25
ATOM     25  O   UNL     1      23.150  23.317   5.207  0.00  0.00    +0.000 OA
ATOM     26  H   UNL     1      23.999  23.216   5.694  0.00  0.00    +0.000 HD
ENDBRANCH  10  25
BRANCH   4  28
ATOM     27  O   UNL     1      22.533  19.243   2.361  0.00  0.00    +0.000 OA
ATOM     28  C   UNL     1      22.645  19.986   1.379  0.00  0.00    +0.000 C 
BRANCH  28  29
ATOM     29  C   UNL     1      22.033  19.580   0.040  0.00  0.00    +0.000 C 
BRANCH  29  30
ATOM     30  O   UNL     1      21.802  18.177  -0.019  0.00  0.00    +0.000 OA
ATOM     31  H   UNL     1      22.606  17.787  -0.420  0.00  0.00    +0.000 HD
ENDBRANCH  29  30
ENDBRANCH  28  29
ENDBRANCH   4  28
BRANCH  17  32
ATOM     32  O   UNL     1      24.060  30.628   3.575  0.00  0.00    +0.000 OA
ATOM     33  C   UNL     1      25.249  31.416   3.666  0.00  0.00    +0.000 C 
ENDBRANCH  17  32
BRANCH   3  34
ATOM     34  O   UNL     1      25.028  23.378   0.048  0.00  0.00    +0.000 OA
BRANCH  34  36
ATOM     35  O   UNL     1      26.637  22.735  -1.547  0.00  0.00    +0.000 OA
ATOM     36  C   UNL     1      25.264  23.051  -1.324  0.00  0.00    +0.000 C 
ATOM     37  C   UNL     1      24.788  24.209  -2.205  0.00  0.00    +0.000 C 
ATOM     38  C   UNL     1      25.700  25.428  -2.049  0.00  0.00    +0.000 C 
ATOM     39  C   UNL     1      27.163  25.016  -2.312  0.00  0.00    +0.000 C 
ATOM     40  C   UNL     1      27.527  23.846  -1.378  0.00  0.00    +0.000 C 
ATOM     41  C   UNL     1      28.939  23.323  -1.618  0.00  0.00    +0.000 C 
BRANCH  38  42
ATOM     42  N   UNL     1      25.293  26.504  -2.971  0.00  0.00    +0.000 NA
ATOM     43  H   UNL     1      25.609  27.405  -2.616  0.00  0.00    +0.000 HD
ATOM     44  H   UNL     1      24.268  26.537  -2.955  0.00  0.00    +0.000 HD
ENDBRANCH  38  42
BRANCH  39  45
ATOM     45  O   UNL     1      27.287  24.648  -3.698  0.00  0.00    +0.000 OA
ATOM     46  H   UNL     1      27.948  25.237  -4.099  0.00  0.00    +0.000 HD
ENDBRANCH  39  45
ENDBRANCH  34  36
ENDBRANCH   3  34
TORSDOF 11
ENDMDL
MODEL 5
REMARK VINA RESULT:      -7.5      6.409     10.676
REMARK  Name = 
REMARK  13 active torsions:
REMARK  status: ('A' for Active; 'I' for Inactive)
REMARK    1  A    between atoms: O_1  and  C_13
REMARK    2  A    between atoms: O_1  and  C_19
REMARK    3  A    between atoms: O_3  and  C_14
REMARK    4  A    between atoms: O_4  and  C_22
REMARK    5  A    between atoms: O_5  and  C_24
REMARK    6  A    between atoms: O_6  and  C_26
REMARK    7  A    between atoms: O_8  and  C_30
REMARK    8  A    between atoms: O_11  and  C_35
REMARK    9  A    between atoms: O_11  and  C_39
REMARK   10  A    between atoms: N_12  and  C_21
REMARK   11  A    between atoms: C_14  and  C_25
REMARK   12  A    between atoms: C_23  and  C_29
REMARK   13  A    between atoms: C_25  and  C_30
REMARK                            x       y       z     vdW  Elec       q    Type
REMARK                         _______ _______ _______ _____ _____    ______ ____
ROOT
ATOM      1  O   UNL     1      49.026   1.997  11.439  0.00  0.00    +0.000 OA
ATOM      2  O   UNL     1      44.532  -0.801  11.933  0.00  0.00    +0.000 OA
ATOM      3  C   UNL     1      46.630   4.350  15.316  0.00  0.00    +0.000 C 
ATOM      4  C   UNL     1      44.328   4.094  16.344  0.00  0.00    +0.000 C 
ATOM      5  C   UNL     1      45.823   4.310  16.614  0.00  0.00    +0.000 C 
ATOM      6  C   UNL     1      44.098   2.774  15.594  0.00  0.00    +0.000 C 
ATOM      7  C   UNL     1      46.353   3.143  14.441  0.00  0.00    +0.000 A 
ATOM      8  C   UNL     1      45.145   2.427  14.551  0.00  0.00    +0.000 A 
ATOM      9  C   UNL     1      47.287   2.754  13.462  0.00  0.00    +0.000 A 
ATOM     10  C   UNL     1      44.919   1.331  13.700  0.00  0.00    +0.000 A 
ATOM     11  C   UNL     1      47.048   1.662  12.606  0.00  0.00    +0.000 A 
ATOM     12  C   UNL     1      45.861   0.950  12.729  0.00  0.00    +0.000 A 
ATOM     13  C   UNL     1      48.039   1.281  11.575  0.00  0.00    +0.000 C 
ATOM     14  C   UNL     1      45.598  -0.198  11.841  0.00  0.00    +0.000 C 
ATOM     15  C   UNL     1      47.811   0.084  10.730  0.00  0.00    +0.000 A 
ATOM     16  C   UNL     1      46.613  -0.620  10.860  0.00  0.00    +0.000 A 
ATOM     17  C   UNL     1      48.755  -0.363   9.791  0.00  0.00    +0.000 A 
ATOM     18  C   UNL     1      46.357  -1.750  10.067  0.00  0.00    +0.000 A 
ATOM     19  C   UNL     1      48.509  -1.505   9.020  0.00  0.00    +0.000 A 
ATOM     20  C   UNL     1      47.305  -2.192   9.150  0.00  0.00    +0.000 A 
ENDROOT
BRANCH   4  21
ATOM     21  O   UNL     1      43.789   5.187  15.591  0.00  0.00    +0.000 OA
ATOM     22  H   UNL     1      43.995   5.015  14.647  0.00  0.00    +0.000 HD
ENDBRANCH   4  21
BRANCH   9  23
ATOM     23  O   UNL     1      48.446   3.490  13.382  0.00  0.00    +0.000 OA
ATOM     24  H   UNL     1      49.038   3.074  12.712  0.00  0.00    +0.000 HD
ENDBRANCH   9  23
BRANCH  10  25
ATOM     25  O   UNL     1      43.736   0.653  13.870  0.00  0.00    +0.000 OA
ATOM     26  H   UNL     1      43.001   1.202  13.514  0.00  0.00    +0.000 HD
ENDBRANCH  10  25
BRANCH   4  28
ATOM     27  O   UNL     1      42.337   4.207  17.750  0.00  0.00    +0.000 OA
ATOM     28  C   UNL     1      43.560   4.042  17.676  0.00  0.00    +0.000 C 
BRANCH  28  29
ATOM     29  C   UNL     1      44.375   3.794  18.943  0.00  0.00    +0.000 C 
BRANCH  29  30
ATOM     30  O   UNL     1      43.991   2.579  19.576  0.00  0.00    +0.000 OA
ATOM     31  H   UNL     1      43.604   2.018  18.873  0.00  0.00    +0.000 HD
ENDBRANCH  29  30
ENDBRANCH  28  29
ENDBRANCH   4  28
BRANCH  17  32
ATOM     32  O   UNL     1      49.986   0.223   9.663  0.00  0.00    +0.000 OA
ATOM     33  C   UNL     1      50.143   0.786   8.359  0.00  0.00    +0.000 C 
ENDBRANCH  17  32
BRANCH   3  34
ATOM     34  O   UNL     1      46.222   5.500  14.554  0.00  0.00    +0.000 OA
BRANCH  34  36
ATOM     35  O   UNL     1      46.639   7.568  15.601  0.00  0.00    +0.000 OA
ATOM     36  C   UNL     1      47.136   6.592  14.689  0.00  0.00    +0.000 C 
ATOM     37  C   UNL     1      47.417   7.184  13.306  0.00  0.00    +0.000 C 
ATOM     38  C   UNL     1      46.188   7.917  12.763  0.00  0.00    +0.000 C 
ATOM     39  C   UNL     1      45.710   8.960  13.794  0.00  0.00    +0.000 C 
ATOM     40  C   UNL     1      45.468   8.254  15.142  0.00  0.00    +0.000 C 
ATOM     41  C   UNL     1      45.059   9.224  16.245  0.00  0.00    +0.000 C 
BRANCH  38  42
ATOM     42  N   UNL     1      46.494   8.566  11.475  0.00  0.00    +0.000 NA
ATOM     43  H   UNL     1      45.987   9.446  11.399  0.00  0.00    +0.000 HD
ATOM     44  H   UNL     1      46.119   7.958  10.739  0.00  0.00    +0.000 HD
ENDBRANCH  38  42
BRANCH  39  45
ATOM     45  O   UNL     1      46.719   9.981  13.903  0.00  0.00    +0.000 OA
ATOM     46  H   UNL     1      47.283   9.755  14.662  0.00  0.00    +0.000 HD
ENDBRANCH  39  45
ENDBRANCH  34  36
ENDBRANCH   3  34
TORSDOF 11
ENDMDL
MODEL 6
REMARK VINA RESULT:      -6.9      3.291      9.596
REMARK  Name = 
REMARK  13 active torsions:
REMARK  status: ('A' for Active; 'I' for Inactive)
REMARK    1  A    between atoms: O_1  and  C_13
REMARK    2  A    between atoms: O_1  and  C_19
REMARK    3  A    between atoms: O_3  and  C_14
REMARK    4  A    between atoms: O_4  and  C_22
REMARK    5  A    between atoms: O_5  and  C_24
REMARK    6  A    between atoms: O_6  and  C_26
REMARK    7  A    between atoms: O_8  and  C_30
REMARK    8  A    between atoms: O_11  and  C_35
REMARK    9  A    between atoms: O_11  and  C_39
REMARK   10  A    between atoms: N_12  and  C_21
REMARK   11  A    between atoms: C_14  and  C_25
REMARK   12  A    between atoms: C_23  and  C_29
REMARK   13  A    between atoms: C_25  and  C_30
REMARK                            x       y       z     vdW  Elec       q    Type
REMARK                         _______ _______ _______ _____ _____    ______ ____
ROOT
ATOM      1  O   UNL     1      47.704  -6.336  11.522  0.00  0.00    +0.000 OA
ATOM      2  O   UNL     1      42.843  -7.014   9.478  0.00  0.00    +0.000 OA
ATOM      3  C   UNL     1      48.602  -9.169   7.341  0.00  0.00    +0.000 C 
ATOM      4  C   UNL     1      47.088 -10.314   5.663  0.00  0.00    +0.000 C 
ATOM      5  C   UNL     1      48.367  -9.491   5.864  0.00  0.00    +0.000 C 
ATOM      6  C   UNL     1      45.864  -9.551   6.189  0.00  0.00    +0.000 C 
ATOM      7  C   UNL     1      47.383  -8.537   7.983  0.00  0.00    +0.000 A 
ATOM      8  C   UNL     1      46.093  -8.750   7.459  0.00  0.00    +0.000 A 
ATOM      9  C   UNL     1      47.523  -7.768   9.153  0.00  0.00    +0.000 A 
ATOM     10  C   UNL     1      44.987  -8.167   8.103  0.00  0.00    +0.000 A 
ATOM     11  C   UNL     1      46.409  -7.197   9.799  0.00  0.00    +0.000 A 
ATOM     12  C   UNL     1      45.140  -7.398   9.269  0.00  0.00    +0.000 A 
ATOM     13  C   UNL     1      46.579  -6.404  11.037  0.00  0.00    +0.000 C 
ATOM     14  C   UNL     1      43.964  -6.804   9.933  0.00  0.00    +0.000 C 
ATOM     15  C   UNL     1      45.409  -5.746  11.667  0.00  0.00    +0.000 A 
ATOM     16  C   UNL     1      44.139  -5.958  11.127  0.00  0.00    +0.000 A 
ATOM     17  C   UNL     1      45.529  -4.921  12.796  0.00  0.00    +0.000 A 
ATOM     18  C   UNL     1      43.007  -5.362  11.704  0.00  0.00    +0.000 A 
ATOM     19  C   UNL     1      44.403  -4.307  13.355  0.00  0.00    +0.000 A 
ATOM     20  C   UNL     1      43.140  -4.536  12.816  0.00  0.00    +0.000 A 
ENDROOT
BRANCH   4  21
ATOM     21  O   UNL     1      47.196 -11.582   6.320  0.00  0.00    +0.000 OA
ATOM     22  H   UNL     1      47.687 -11.433   7.156  0.00  0.00    +0.000 HD
ENDBRANCH   4  21
BRANCH   9  23
ATOM     23  O   UNL     1      48.798  -7.597   9.637  0.00  0.00    +0.000 OA
ATOM     24  H   UNL     1      48.849  -7.990  10.541  0.00  0.00    +0.000 HD
ENDBRANCH   9  23
BRANCH  10  25
ATOM     25  O   UNL     1      43.757  -8.386   7.533  0.00  0.00    +0.000 OA
ATOM     26  H   UNL     1      43.523  -7.611   6.972  0.00  0.00    +0.000 HD
ENDBRANCH  10  25
BRANCH   4  28
ATOM     27  O   UNL     1      47.644 -10.167   3.291  0.00  0.00    +0.000 OA
ATOM     28  C   UNL     1      46.882 -10.598   4.165  0.00  0.00    +0.000 C 
BRANCH  28  29
ATOM     29  C   UNL     1      45.666 -11.433   3.773  0.00  0.00    +0.000 C 
BRANCH  29  30
ATOM     30  O   UNL     1      45.833 -12.797   4.143  0.00  0.00    +0.000 OA
ATOM     31  H   UNL     1      45.379 -13.323   3.454  0.00  0.00    +0.000 HD
ENDBRANCH  29  30
ENDBRANCH  28  29
ENDBRANCH   4  28
BRANCH  17  32
ATOM     32  O   UNL     1      46.747  -4.597  13.333  0.00  0.00    +0.000 OA
ATOM     33  C   UNL     1      47.038  -3.214  13.122  0.00  0.00    +0.000 C 
ENDBRANCH  17  32
BRANCH   3  34
ATOM     34  O   UNL     1      48.839 -10.397   8.050  0.00  0.00    +0.000 OA
BRANCH  34  36
ATOM     35  O   UNL     1      50.249 -12.164   7.389  0.00  0.00    +0.000 OA
ATOM     36  C   UNL     1      50.192 -10.844   7.926  0.00  0.00    +0.000 C 
ATOM     37  C   UNL     1      50.879 -10.745   9.290  0.00  0.00    +0.000 C 
ATOM     38  C   UNL     1      50.329 -11.794  10.259  0.00  0.00    +0.000 C 
ATOM     39  C   UNL     1      50.430 -13.193   9.619  0.00  0.00    +0.000 C 
ATOM     40  C   UNL     1      49.712 -13.171   8.255  0.00  0.00    +0.000 C 
ATOM     41  C   UNL     1      49.822 -14.499   7.515  0.00  0.00    +0.000 C 
BRANCH  38  42
ATOM     42  N   UNL     1      51.061 -11.757  11.538  0.00  0.00    +0.000 NA
ATOM     43  H   UNL     1      52.020 -11.453  11.382  0.00  0.00    +0.000 HD
ATOM     44  H   UNL     1      51.121 -12.724  11.874  0.00  0.00    +0.000 HD
ENDBRANCH  38  42
BRANCH  39  45
ATOM     45  O   UNL     1      51.823 -13.527   9.480  0.00  0.00    +0.000 OA
ATOM     46  H   UNL     1      52.213 -12.900   8.849  0.00  0.00    +0.000 HD
ENDBRANCH  39  45
ENDBRANCH  34  36
ENDBRANCH   3  34
TORSDOF 11
ENDMDL
MODEL 7
REMARK VINA RESULT:      -6.9     22.204     27.906
REMARK  Name = 
REMARK  13 active torsions:
REMARK  status: ('A' for Active; 'I' for Inactive)
REMARK    1  A    between atoms: O_1  and  C_13
REMARK    2  A    between atoms: O_1  and  C_19
REMARK    3  A    between atoms: O_3  and  C_14
REMARK    4  A    between atoms: O_4  and  C_22
REMARK    5  A    between atoms: O_5  and  C_24
REMARK    6  A    between atoms: O_6  and  C_26
REMARK    7  A    between atoms: O_8  and  C_30
REMARK    8  A    between atoms: O_11  and  C_35
REMARK    9  A    between atoms: O_11  and  C_39
REMARK   10  A    between atoms: N_12  and  C_21
REMARK   11  A    between atoms: C_14  and  C_25
REMARK   12  A    between atoms: C_23  and  C_29
REMARK   13  A    between atoms: C_25  and  C_30
REMARK                            x       y       z     vdW  Elec       q    Type
REMARK                         _______ _______ _______ _____ _____    ______ ____
ROOT
ATOM      1  O   UNL     1      22.920  -4.069  30.683  0.00  0.00    +0.000 OA
ATOM      2  O   UNL     1      26.097   0.175  31.088  0.00  0.00    +0.000 OA
ATOM      3  C   UNL     1      26.632  -5.088  27.294  0.00  0.00    +0.000 C 
ATOM      4  C   UNL     1      28.595  -3.748  26.415  0.00  0.00    +0.000 C 
ATOM      5  C   UNL     1      28.107  -5.123  26.892  0.00  0.00    +0.000 C 
ATOM      6  C   UNL     1      28.423  -2.697  27.522  0.00  0.00    +0.000 C 
ATOM      7  C   UNL     1      26.342  -3.979  28.285  0.00  0.00    +0.000 A 
ATOM      8  C   UNL     1      27.167  -2.839  28.363  0.00  0.00    +0.000 A 
ATOM      9  C   UNL     1      25.203  -4.051  29.109  0.00  0.00    +0.000 A 
ATOM     10  C   UNL     1      26.844  -1.821  29.278  0.00  0.00    +0.000 A 
ATOM     11  C   UNL     1      24.881  -3.022  30.015  0.00  0.00    +0.000 A 
ATOM     12  C   UNL     1      25.706  -1.907  30.098  0.00  0.00    +0.000 A 
ATOM     13  C   UNL     1      23.670  -3.114  30.861  0.00  0.00    +0.000 C 
ATOM     14  C   UNL     1      25.383  -0.822  31.044  0.00  0.00    +0.000 C 
ATOM     15  C   UNL     1      23.380  -2.061  31.864  0.00  0.00    +0.000 A 
ATOM     16  C   UNL     1      24.215  -0.944  31.935  0.00  0.00    +0.000 A 
ATOM     17  C   UNL     1      22.287  -2.140  32.741  0.00  0.00    +0.000 A 
ATOM     18  C   UNL     1      23.964   0.079  32.863  0.00  0.00    +0.000 A 
ATOM     19  C   UNL     1      22.054  -1.131  33.684  0.00  0.00    +0.000 A 
ATOM     20  C   UNL     1      22.886  -0.016  33.737  0.00  0.00    +0.000 A 
ENDROOT
BRANCH   4  21
ATOM     21  O   UNL     1      27.886  -3.342  25.238  0.00  0.00    +0.000 OA
ATOM     22  H   UNL     1      27.574  -2.425  25.392  0.00  0.00    +0.000 HD
ENDBRANCH   4  21
BRANCH   9  23
ATOM     23  O   UNL     1      24.420  -5.175  28.990  0.00  0.00    +0.000 OA
ATOM     24  H   UNL     1      23.472  -4.904  29.028  0.00  0.00    +0.000 HD
ENDBRANCH   9  23
BRANCH  10  25
ATOM     25  O   UNL     1      27.698  -0.747  29.330  0.00  0.00    +0.000 OA
ATOM     26  H   UNL     1      27.249   0.036  28.937  0.00  0.00    +0.000 HD
ENDBRANCH  10  25
BRANCH   4  28
ATOM     27  O   UNL     1      30.806  -4.779  26.356  0.00  0.00    +0.000 OA
ATOM     28  C   UNL     1      30.085  -3.826  26.040  0.00  0.00    +0.000 C 
BRANCH  28  29
ATOM     29  C   UNL     1      30.671  -2.650  25.262  0.00  0.00    +0.000 C 
BRANCH  29  30
ATOM     30  O   UNL     1      32.013  -2.386  25.658  0.00  0.00    +0.000 OA
ATOM     31  H   UNL     1      32.440  -1.948  24.893  0.00  0.00    +0.000 HD
ENDBRANCH  29  30
ENDBRANCH  28  29
ENDBRANCH   4  28
BRANCH  17  32
ATOM     32  O   UNL     1      21.473  -3.240  32.791  0.00  0.00    +0.000 OA
ATOM     33  C   UNL     1      20.114  -2.872  32.543  0.00  0.00    +0.000 C 
ENDBRANCH  17  32
BRANCH   3  34
ATOM     34  O   UNL     1      25.842  -4.801  26.127  0.00  0.00    +0.000 OA
BRANCH  34  36
ATOM     35  O   UNL     1      26.102  -6.626  24.661  0.00  0.00    +0.000 OA
ATOM     36  C   UNL     1      25.231  -5.974  25.583  0.00  0.00    +0.000 C 
ATOM     37  C   UNL     1      23.894  -5.591  24.943  0.00  0.00    +0.000 C 
ATOM     38  C   UNL     1      24.111  -4.775  23.666  0.00  0.00    +0.000 C 
ATOM     39  C   UNL     1      25.052  -5.541  22.715  0.00  0.00    +0.000 C 
ATOM     40  C   UNL     1      26.355  -5.876  23.466  0.00  0.00    +0.000 C 
ATOM     41  C   UNL     1      27.322  -6.700  22.622  0.00  0.00    +0.000 C 
BRANCH  38  42
ATOM     42  N   UNL     1      22.825  -4.492  23.003  0.00  0.00    +0.000 NA
ATOM     43  H   UNL     1      22.941  -4.520  21.992  0.00  0.00    +0.000 HD
ATOM     44  H   UNL     1      22.578  -3.524  23.234  0.00  0.00    +0.000 HD
ENDBRANCH  38  42
BRANCH  39  45
ATOM     45  O   UNL     1      24.374  -6.731  22.271  0.00  0.00    +0.000 OA
ATOM     46  H   UNL     1      25.051  -7.406  22.097  0.00  0.00    +0.000 HD
ENDBRANCH  39  45
ENDBRANCH  34  36
ENDBRANCH   3  34
TORSDOF 11
ENDMDL
MODEL 8
REMARK VINA RESULT:      -6.8     37.405     41.584
REMARK  Name = 
REMARK  13 active torsions:
REMARK  status: ('A' for Active; 'I' for Inactive)
REMARK    1  A    between atoms: O_1  and  C_13
REMARK    2  A    between atoms: O_1  and  C_19
REMARK    3  A    between atoms: O_3  and  C_14
REMARK    4  A    between atoms: O_4  and  C_22
REMARK    5  A    between atoms: O_5  and  C_24
REMARK    6  A    between atoms: O_6  and  C_26
REMARK    7  A    between atoms: O_8  and  C_30
REMARK    8  A    between atoms: O_11  and  C_35
REMARK    9  A    between atoms: O_11  and  C_39
REMARK   10  A    between atoms: N_12  and  C_21
REMARK   11  A    between atoms: C_14  and  C_25
REMARK   12  A    between atoms: C_23  and  C_29
REMARK   13  A    between atoms: C_25  and  C_30
REMARK                            x       y       z     vdW  Elec       q    Type
REMARK                         _______ _______ _______ _____ _____    ______ ____
ROOT
ATOM      1  O   UNL     1      13.745   5.891  31.081  0.00  0.00    +0.000 OA
ATOM      2  O   UNL     1      14.089   9.953  27.668  0.00  0.00    +0.000 OA
ATOM      3  C   UNL     1      12.579   9.945  34.000  0.00  0.00    +0.000 C 
ATOM      4  C   UNL     1      12.610  12.445  33.590  0.00  0.00    +0.000 C 
ATOM      5  C   UNL     1      11.851  11.271  34.222  0.00  0.00    +0.000 C 
ATOM      6  C   UNL     1      12.773  12.233  32.077  0.00  0.00    +0.000 C 
ATOM      7  C   UNL     1      12.908   9.719  32.538  0.00  0.00    +0.000 A 
ATOM      8  C   UNL     1      13.035  10.801  31.646  0.00  0.00    +0.000 A 
ATOM      9  C   UNL     1      13.149   8.416  32.064  0.00  0.00    +0.000 A 
ATOM     10  C   UNL     1      13.370  10.547  30.304  0.00  0.00    +0.000 A 
ATOM     11  C   UNL     1      13.495   8.171  30.721  0.00  0.00    +0.000 A 
ATOM     12  C   UNL     1      13.603   9.241  29.841  0.00  0.00    +0.000 A 
ATOM     13  C   UNL     1      13.756   6.792  30.248  0.00  0.00    +0.000 C 
ATOM     14  C   UNL     1      13.962   9.000  28.431  0.00  0.00    +0.000 C 
ATOM     15  C   UNL     1      14.047   6.538  28.817  0.00  0.00    +0.000 A 
ATOM     16  C   UNL     1      14.156   7.623  27.944  0.00  0.00    +0.000 A 
ATOM     17  C   UNL     1      14.226   5.243  28.306  0.00  0.00    +0.000 A 
ATOM     18  C   UNL     1      14.443   7.421  26.585  0.00  0.00    +0.000 A 
ATOM     19  C   UNL     1      14.486   5.043  26.945  0.00  0.00    +0.000 A 
ATOM     20  C   UNL     1      14.606   6.132  26.087  0.00  0.00    +0.000 A 
ENDROOT
BRANCH   4  21
ATOM     21  O   UNL     1      13.894  12.604  34.204  0.00  0.00    +0.000 OA
ATOM     22  H   UNL     1      14.568  12.408  33.519  0.00  0.00    +0.000 HD
ENDBRANCH   4  21
BRANCH   9  23
ATOM     23  O   UNL     1      13.027   7.391  32.973  0.00  0.00    +0.000 OA
ATOM     24  H   UNL     1      13.128   7.761  33.881  0.00  0.00    +0.000 HD
ENDBRANCH   9  23
BRANCH  10  25
ATOM     25  O   UNL     1      13.453  11.638  29.472  0.00  0.00    +0.000 OA
ATOM     26  H   UNL     1      12.553  11.851  29.136  0.00  0.00    +0.000 HD
ENDBRANCH  10  25
BRANCH   4  28
ATOM     27  O   UNL     1      10.672  13.775  34.243  0.00  0.00    +0.000 OA
ATOM     28  C   UNL     1      11.834  13.753  33.821  0.00  0.00    +0.000 C 
BRANCH  28  29
ATOM     29  C   UNL     1      12.550  15.059  33.487  0.00  0.00    +0.000 C 
BRANCH  29  30
ATOM     30  O   UNL     1      13.448  15.436  34.524  0.00  0.00    +0.000 OA
ATOM     31  H   UNL     1      14.128  14.733  34.564  0.00  0.00    +0.000 HD
ENDBRANCH  29  30
ENDBRANCH  28  29
ENDBRANCH   4  28
BRANCH  17  32
ATOM     32  O   UNL     1      14.052   4.126  29.078  0.00  0.00    +0.000 OA
ATOM     33  C   UNL     1      15.230   3.317  29.068  0.00  0.00    +0.000 C 
ENDBRANCH  17  32
BRANCH   3  34
ATOM     34  O   UNL     1      13.837   9.987  34.694  0.00  0.00    +0.000 OA
BRANCH  34  36
ATOM     35  O   UNL     1      14.250  10.879  36.834  0.00  0.00    +0.000 OA
ATOM     36  C   UNL     1      13.688   9.792  36.103  0.00  0.00    +0.000 C 
ATOM     37  C   UNL     1      14.310   8.450  36.493  0.00  0.00    +0.000 C 
ATOM     38  C   UNL     1      15.836   8.500  36.381  0.00  0.00    +0.000 C 
ATOM     39  C   UNL     1      16.376   9.690  37.200  0.00  0.00    +0.000 C 
ATOM     40  C   UNL     1      15.676  10.979  36.727  0.00  0.00    +0.000 C 
ATOM     41  C   UNL     1      16.098  12.202  37.533  0.00  0.00    +0.000 C 
BRANCH  38  42
ATOM     42  N   UNL     1      16.435   7.237  36.850  0.00  0.00    +0.000 NA
ATOM     43  H   UNL     1      16.324   7.152  37.858  0.00  0.00    +0.000 HD
ATOM     44  H   UNL     1      17.444   7.305  36.680  0.00  0.00    +0.000 HD
ENDBRANCH  38  42
BRANCH  39  45
ATOM     45  O   UNL     1      16.125   9.430  38.594  0.00  0.00    +0.000 OA
ATOM     46  H   UNL     1      15.852  10.268  39.003  0.00  0.00    +0.000 HD
ENDBRANCH  39  45
ENDBRANCH  34  36
ENDBRANCH   3  34
TORSDOF 11
ENDMDL
MODEL 9
REMARK VINA RESULT:      -6.8     35.467     38.261
REMARK  Name = 
REMARK  13 active torsions:
REMARK  status: ('A' for Active; 'I' for Inactive)
REMARK    1  A    between atoms: O_1  and  C_13
REMARK    2  A    between atoms: O_1  and  C_19
REMARK    3  A    between atoms: O_3  and  C_14
REMARK    4  A    between atoms: O_4  and  C_22
REMARK    5  A    between atoms: O_5  and  C_24
REMARK    6  A    between atoms: O_6  and  C_26
REMARK    7  A    between atoms: O_8  and  C_30
REMARK    8  A    between atoms: O_11  and  C_35
REMARK    9  A    between atoms: O_11  and  C_39
REMARK   10  A    between atoms: N_12  and  C_21
REMARK   11  A    between atoms: C_14  and  C_25
REMARK   12  A    between atoms: C_23  and  C_29
REMARK   13  A    between atoms: C_25  and  C_30
REMARK                            x       y       z     vdW  Elec       q    Type
REMARK                         _______ _______ _______ _____ _____    ______ ____
ROOT
ATOM      1  O   UNL     1      23.090  22.001  -4.146  0.00  0.00    +0.000 OA
ATOM      2  O   UNL     1      17.969  21.054  -3.074  0.00  0.00    +0.000 OA
ATOM      3  C   UNL     1      23.165  20.792   0.839  0.00  0.00    +0.000 C 
ATOM      4  C   UNL     1      21.344  20.353   2.545  0.00  0.00    +0.000 C 
ATOM      5  C   UNL     1      22.717  19.921   2.013  0.00  0.00    +0.000 C 
ATOM      6  C   UNL     1      20.280  20.258   1.443  0.00  0.00    +0.000 C 
ATOM      7  C   UNL     1      22.106  20.869  -0.244  0.00  0.00    +0.000 A 
ATOM      8  C   UNL     1      20.747  20.653   0.053  0.00  0.00    +0.000 A 
ATOM      9  C   UNL     1      22.469  21.215  -1.559  0.00  0.00    +0.000 A 
ATOM     10  C   UNL     1      19.795  20.763  -0.977  0.00  0.00    +0.000 A 
ATOM     11  C   UNL     1      21.508  21.334  -2.582  0.00  0.00    +0.000 A 
ATOM     12  C   UNL     1      20.169  21.105  -2.287  0.00  0.00    +0.000 A 
ATOM     13  C   UNL     1      21.912  21.713  -3.955  0.00  0.00    +0.000 C 
ATOM     14  C   UNL     1      19.153  21.224  -3.349  0.00  0.00    +0.000 C 
ATOM     15  C   UNL     1      20.904  21.763  -5.041  0.00  0.00    +0.000 A 
ATOM     16  C   UNL     1      19.561  21.535  -4.731  0.00  0.00    +0.000 A 
ATOM     17  C   UNL     1      21.247  22.042  -6.373  0.00  0.00    +0.000 A 
ATOM     18  C   UNL     1      18.577  21.586  -5.730  0.00  0.00    +0.000 A 
ATOM     19  C   UNL     1      20.268  22.067  -7.373  0.00  0.00    +0.000 A 
ATOM     20  C   UNL     1      18.932  21.851  -7.050  0.00  0.00    +0.000 A 
ENDROOT
BRANCH   4  21
ATOM     21  O   UNL     1      21.401  21.690   3.058  0.00  0.00    +0.000 OA
ATOM     22  H   UNL     1      21.609  22.280   2.302  0.00  0.00    +0.000 HD
ENDBRANCH   4  21
BRANCH   9  23
ATOM     23  O   UNL     1      23.805  21.430  -1.800  0.00  0.00    +0.000 OA
ATOM     24  H   UNL     1      24.178  20.633  -2.245  0.00  0.00    +0.000 HD
ENDBRANCH   9  23
BRANCH  10  25
ATOM     25  O   UNL     1      18.487  20.516  -0.637  0.00  0.00    +0.000 OA
ATOM     26  H   UNL     1      18.019  21.374  -0.526  0.00  0.00    +0.000 HD
ENDBRANCH  10  25
BRANCH   4  28
ATOM     27  O   UNL     1      21.697  18.626   4.233  0.00  0.00    +0.000 OA
ATOM     28  C   UNL     1      20.926  19.441   3.711  0.00  0.00    +0.000 C 
BRANCH  28  29
ATOM     29  C   UNL     1      19.487  19.556   4.207  0.00  0.00    +0.000 C 
BRANCH  29  30
ATOM     30  O   UNL     1      19.192  20.880   4.636  0.00  0.00    +0.000 OA
ATOM     31  H   UNL     1      18.258  20.869   4.929  0.00  0.00    +0.000 HD
ENDBRANCH  29  30
ENDBRANCH  28  29
ENDBRANCH   4  28
BRANCH  17  32
ATOM     32  O   UNL     1      22.549  22.194  -6.771  0.00  0.00    +0.000 OA
ATOM     33  C   UNL     1      22.869  21.267  -7.811  0.00  0.00    +0.000 C 
ENDBRANCH  17  32
BRANCH   3  34
ATOM     34  O   UNL     1      23.359  22.137   1.309  0.00  0.00    +0.000 OA
BRANCH  34  36
ATOM     35  O   UNL     1      24.277  22.925   3.329  0.00  0.00    +0.000 OA
ATOM     36  C   UNL     1      24.548  22.272   2.091  0.00  0.00    +0.000 C 
ATOM     37  C   UNL     1      25.608  23.010   1.269  0.00  0.00    +0.000 C 
ATOM     38  C   UNL     1      25.230  24.482   1.082  0.00  0.00    +0.000 C 
ATOM     39  C   UNL     1      24.959  25.125   2.457  0.00  0.00    +0.000 C 
ATOM     40  C   UNL     1      23.887  24.298   3.192  0.00  0.00    +0.000 C 
ATOM     41  C   UNL     1      23.605  24.822   4.596  0.00  0.00    +0.000 C 
BRANCH  38  42
ATOM     42  N   UNL     1      26.299  25.208   0.373  0.00  0.00    +0.000 NA
ATOM     43  H   UNL     1      26.860  24.557  -0.173  0.00  0.00    +0.000 HD
ATOM     44  H   UNL     1      26.926  25.589   1.091  0.00  0.00    +0.000 HD
ENDBRANCH  38  42
BRANCH  39  45
ATOM     45  O   UNL     1      26.197  25.162   3.190  0.00  0.00    +0.000 OA
ATOM     46  H   UNL     1      26.530  26.074   3.156  0.00  0.00    +0.000 HD
ENDBRANCH  39  45
ENDBRANCH  34  36
ENDBRANCH   3  34
TORSDOF 11
ENDMDL
