MODEL 1
REMARK VINA RESULT:      -6.7      0.000      0.000
REMARK  Name = Dronabinol.pdbqt.pdb
REMARK  3 active torsions:
REMARK  status: ('A' for Active; 'I' for Inactive)
REMARK    1  A    between atoms: C_13  and  O_18
REMARK    2  A    between atoms: C_16  and  C_20
REMARK    3  A    between atoms: C_21  and  C_22
REMARK                            x       y       z     vdW  Elec       q    Type
REMARK                         _______ _______ _______ _____ _____    ______ ____
ROOT
ATOM      1  O   UNL     1      23.481  -1.154  14.991  0.00  0.00    +0.000 OA
ATOM      2  C   UNL     1      25.355  -1.886  13.567  0.00  0.00    +0.000 A 
ATOM      3  C   UNL     1      25.739  -2.826  14.649  0.00  0.00    +0.000 A 
ATOM      4  C   UNL     1      23.986  -1.265  13.640  0.00  0.00    +0.000 C 
ATOM      5  C   UNL     1      26.292  -1.888  12.474  0.00  0.00    +0.000 A 
ATOM      6  C   UNL     1      24.856  -3.022  15.797  0.00  0.00    +0.000 A 
ATOM      7  C   UNL     1      27.581  -2.730  12.429  0.00  0.00    +0.000 A 
ATOM      8  C   UNL     1      26.993  -3.499  14.390  0.00  0.00    +0.000 A 
ATOM      9  C   UNL     1      27.954  -3.605  13.503  0.00  0.00    +0.000 A 
ATOM     10  C   UNL     1      23.758  -2.153  15.892  0.00  0.00    +0.000 A 
ATOM     11  C   UNL     1      24.051   0.185  13.087  0.00  0.00    +0.000 C 
ATOM     12  C   UNL     1      22.985  -2.117  12.805  0.00  0.00    +0.000 C 
ATOM     13  C   UNL     1      25.034  -3.982  16.800  0.00  0.00    +0.000 A 
ATOM     14  C   UNL     1      22.887  -2.226  16.980  0.00  0.00    +0.000 A 
ATOM     15  C   UNL     1      29.383  -3.701  13.936  0.00  0.00    +0.000 C 
ATOM     16  C   UNL     1      23.080  -3.186  17.968  0.00  0.00    +0.000 A 
ATOM     17  C   UNL     1      24.151  -4.067  17.879  0.00  0.00    +0.000 A 
ENDROOT
BRANCH  13  18
ATOM     18  O   UNL     1      26.076  -4.865  16.739  0.00  0.00    +0.000 OA
ATOM     19  H   UNL     1      25.919  -5.497  16.015  0.00  0.00    +0.000 HD
ENDBRANCH  13  18
BRANCH  16  20
ATOM     20  C   UNL     1      22.174  -3.273  19.062  0.00  0.00    +0.000 C 
ATOM     21  C   UNL     1      21.201  -3.354  20.244  0.00  0.00    +0.000 C 
BRANCH  21  22
ATOM     22  C   UNL     1      20.228  -3.423  21.424  0.00  0.00    +0.000 C 
ATOM     23  C   UNL     1      19.255  -3.488  22.606  0.00  0.00    +0.000 C 
ATOM     24  C   UNL     1      18.282  -3.551  23.788  0.00  0.00    +0.000 C 
ENDBRANCH  21  22
ENDBRANCH  16  20
TORSDOF 3
ENDMDL
MODEL 2
REMARK VINA RESULT:      -6.4     10.343     17.213
REMARK  Name = Dronabinol.pdbqt.pdb
REMARK  3 active torsions:
REMARK  status: ('A' for Active; 'I' for Inactive)
REMARK    1  A    between atoms: C_13  and  O_18
REMARK    2  A    between atoms: C_16  and  C_20
REMARK    3  A    between atoms: C_21  and  C_22
REMARK                            x       y       z     vdW  Elec       q    Type
REMARK                         _______ _______ _______ _____ _____    ______ ____
ROOT
ATOM      1  O   UNL     1      14.694   3.199  28.890  0.00  0.00    +0.000 OA
ATOM      2  C   UNL     1      13.638   5.417  29.086  0.00  0.00    +0.000 A 
ATOM      3  C   UNL     1      14.292   5.781  27.805  0.00  0.00    +0.000 A 
ATOM      4  C   UNL     1      13.602   3.959  29.457  0.00  0.00    +0.000 C 
ATOM      5  C   UNL     1      12.928   6.520  29.678  0.00  0.00    +0.000 A 
ATOM      6  C   UNL     1      14.982   4.761  27.018  0.00  0.00    +0.000 A 
ATOM      7  C   UNL     1      12.875   7.943  29.090  0.00  0.00    +0.000 A 
ATOM      8  C   UNL     1      14.114   7.175  27.459  0.00  0.00    +0.000 A 
ATOM      9  C   UNL     1      13.547   8.284  27.869  0.00  0.00    +0.000 A 
ATOM     10  C   UNL     1      15.138   3.507  27.627  0.00  0.00    +0.000 A 
ATOM     11  C   UNL     1      13.737   3.819  30.998  0.00  0.00    +0.000 C 
ATOM     12  C   UNL     1      12.260   3.334  28.974  0.00  0.00    +0.000 C 
ATOM     13  C   UNL     1      15.505   4.947  25.733  0.00  0.00    +0.000 A 
ATOM     14  C   UNL     1      15.830   2.484  26.978  0.00  0.00    +0.000 A 
ATOM     15  C   UNL     1      14.257   9.595  27.741  0.00  0.00    +0.000 C 
ATOM     16  C   UNL     1      16.344   2.687  25.702  0.00  0.00    +0.000 A 
ATOM     17  C   UNL     1      16.181   3.917  25.075  0.00  0.00    +0.000 A 
ENDROOT
BRANCH  13  18
ATOM     18  O   UNL     1      15.358   6.144  25.090  0.00  0.00    +0.000 OA
ATOM     19  H   UNL     1      15.575   6.031  24.147  0.00  0.00    +0.000 HD
ENDBRANCH  13  18
BRANCH  16  20
ATOM     20  C   UNL     1      17.026   1.632  25.033  0.00  0.00    +0.000 C 
ATOM     21  C   UNL     1      17.764   0.504  24.302  0.00  0.00    +0.000 C 
BRANCH  21  22
ATOM     22  C   UNL     1      18.506  -0.615  23.566  0.00  0.00    +0.000 C 
ATOM     23  C   UNL     1      19.246  -1.733  22.824  0.00  0.00    +0.000 C 
ATOM     24  C   UNL     1      19.988  -2.849  22.082  0.00  0.00    +0.000 C 
ENDBRANCH  21  22
ENDBRANCH  16  20
TORSDOF 3
ENDMDL
MODEL 3
REMARK VINA RESULT:      -6.2      1.195      3.302
REMARK  Name = Dronabinol.pdbqt.pdb
REMARK  3 active torsions:
REMARK  status: ('A' for Active; 'I' for Inactive)
REMARK    1  A    between atoms: C_13  and  O_18
REMARK    2  A    between atoms: C_16  and  C_20
REMARK    3  A    between atoms: C_21  and  C_22
REMARK                            x       y       z     vdW  Elec       q    Type
REMARK                         _______ _______ _______ _____ _____    ______ ____
ROOT
ATOM      1  O   UNL     1      25.604  -5.357  16.274  0.00  0.00    +0.000 OA
ATOM      2  C   UNL     1      26.822  -4.212  14.463  0.00  0.00    +0.000 A 
ATOM      3  C   UNL     1      25.930  -3.045  14.674  0.00  0.00    +0.000 A 
ATOM      4  C   UNL     1      26.842  -5.273  15.529  0.00  0.00    +0.000 C 
ATOM      5  C   UNL     1      27.715  -4.031  13.349  0.00  0.00    +0.000 A 
ATOM      6  C   UNL     1      25.020  -3.016  15.817  0.00  0.00    +0.000 A 
ATOM      7  C   UNL     1      27.733  -2.792  12.434  0.00  0.00    +0.000 A 
ATOM      8  C   UNL     1      26.121  -2.006  13.686  0.00  0.00    +0.000 A 
ATOM      9  C   UNL     1      26.836  -1.690  12.632  0.00  0.00    +0.000 A 
ATOM     10  C   UNL     1      24.917  -4.202  16.560  0.00  0.00    +0.000 A 
ATOM     11  C   UNL     1      27.036  -6.664  14.865  0.00  0.00    +0.000 C 
ATOM     12  C   UNL     1      28.002  -4.985  16.528  0.00  0.00    +0.000 C 
ATOM     13  C   UNL     1      24.243  -1.918  16.204  0.00  0.00    +0.000 A 
ATOM     14  C   UNL     1      24.034  -4.291  17.637  0.00  0.00    +0.000 A 
ATOM     15  C   UNL     1      26.203  -1.012  11.458  0.00  0.00    +0.000 C 
ATOM     16  C   UNL     1      23.269  -3.190  18.007  0.00  0.00    +0.000 A 
ATOM     17  C   UNL     1      23.374  -2.001  17.294  0.00  0.00    +0.000 A 
ENDROOT
BRANCH  13  18
ATOM     18  O   UNL     1      24.325  -0.735  15.526  0.00  0.00    +0.000 OA
ATOM     19  H   UNL     1      24.558  -0.913  14.596  0.00  0.00    +0.000 HD
ENDBRANCH  13  18
BRANCH  16  20
ATOM     20  C   UNL     1      22.389  -3.277  19.123  0.00  0.00    +0.000 C 
ATOM     21  C   UNL     1      21.431  -3.368  20.315  0.00  0.00    +0.000 C 
BRANCH  21  22
ATOM     22  C   UNL     1      20.465  -3.461  21.500  0.00  0.00    +0.000 C 
ATOM     23  C   UNL     1      19.496  -3.558  22.683  0.00  0.00    +0.000 C 
ATOM     24  C   UNL     1      18.528  -3.657  23.866  0.00  0.00    +0.000 C 
ENDBRANCH  21  22
ENDBRANCH  16  20
TORSDOF 3
ENDMDL
MODEL 4
REMARK VINA RESULT:      -6.1      7.809      9.442
REMARK  Name = Dronabinol.pdbqt.pdb
REMARK  3 active torsions:
REMARK  status: ('A' for Active; 'I' for Inactive)
REMARK    1  A    between atoms: C_13  and  O_18
REMARK    2  A    between atoms: C_16  and  C_20
REMARK    3  A    between atoms: C_21  and  C_22
REMARK                            x       y       z     vdW  Elec       q    Type
REMARK                         _______ _______ _______ _____ _____    ______ ____
ROOT
ATOM      1  O   UNL     1      25.553  -7.079  23.545  0.00  0.00    +0.000 OA
ATOM      2  C   UNL     1      27.083  -7.893  21.792  0.00  0.00    +0.000 A 
ATOM      3  C   UNL     1      27.908  -6.682  22.027  0.00  0.00    +0.000 A 
ATOM      4  C   UNL     1      26.042  -8.234  22.824  0.00  0.00    +0.000 C 
ATOM      5  C   UNL     1      27.571  -8.692  20.699  0.00  0.00    +0.000 A 
ATOM      6  C   UNL     1      27.613  -5.802  23.154  0.00  0.00    +0.000 A 
ATOM      7  C   UNL     1      28.787  -8.330  19.825  0.00  0.00    +0.000 A 
ATOM      8  C   UNL     1      28.990  -6.547  21.075  0.00  0.00    +0.000 A 
ATOM      9  C   UNL     1      29.549  -7.135  20.044  0.00  0.00    +0.000 A 
ATOM     10  C   UNL     1      26.428  -6.067  23.857  0.00  0.00    +0.000 A 
ATOM     11  C   UNL     1      24.804  -8.853  22.118  0.00  0.00    +0.000 C 
ATOM     12  C   UNL     1      26.639  -9.242  23.849  0.00  0.00    +0.000 C 
ATOM     13  C   UNL     1      28.403  -4.720  23.565  0.00  0.00    +0.000 A 
ATOM     14  C   UNL     1      26.032  -5.249  24.916  0.00  0.00    +0.000 A 
ATOM     15  C   UNL     1      30.040  -6.330  18.882  0.00  0.00    +0.000 C 
ATOM     16  C   UNL     1      26.829  -4.179  25.309  0.00  0.00    +0.000 A 
ATOM     17  C   UNL     1      28.016  -3.914  24.637  0.00  0.00    +0.000 A 
ENDROOT
BRANCH  13  18
ATOM     18  O   UNL     1      29.577  -4.436  22.926  0.00  0.00    +0.000 OA
ATOM     19  H   UNL     1      29.515  -3.555  22.516  0.00  0.00    +0.000 HD
ENDBRANCH  13  18
BRANCH  16  20
ATOM     20  C   UNL     1      26.434  -3.363  26.407  0.00  0.00    +0.000 C 
ATOM     21  C   UNL     1      26.021  -2.480  27.590  0.00  0.00    +0.000 C 
BRANCH  21  22
ATOM     22  C   UNL     1      25.619  -1.593  28.771  0.00  0.00    +0.000 C 
ATOM     23  C   UNL     1      25.213  -0.701  29.950  0.00  0.00    +0.000 C 
ATOM     24  C   UNL     1      24.805   0.190  31.127  0.00  0.00    +0.000 C 
ENDBRANCH  21  22
ENDBRANCH  16  20
TORSDOF 3
ENDMDL
MODEL 5
REMARK VINA RESULT:      -6.0     26.797     29.042
REMARK  Name = Dronabinol.pdbqt.pdb
REMARK  3 active torsions:
REMARK  status: ('A' for Active; 'I' for Inactive)
REMARK    1  A    between atoms: C_13  and  O_18
REMARK    2  A    between atoms: C_16  and  C_20
REMARK    3  A    between atoms: C_21  and  C_22
REMARK                            x       y       z     vdW  Elec       q    Type
REMARK                         _______ _______ _______ _____ _____    ______ ____
ROOT
ATOM      1  O   UNL     1      24.285  21.216  30.964  0.00  0.00    +0.000 OA
ATOM      2  C   UNL     1      23.750  18.902  30.304  0.00  0.00    +0.000 A 
ATOM      3  C   UNL     1      22.334  19.191  30.642  0.00  0.00    +0.000 A 
ATOM      4  C   UNL     1      24.685  20.073  30.171  0.00  0.00    +0.000 C 
ATOM      5  C   UNL     1      23.960  17.528  29.930  0.00  0.00    +0.000 A 
ATOM      6  C   UNL     1      21.920  20.556  30.957  0.00  0.00    +0.000 A 
ATOM      7  C   UNL     1      22.863  16.447  29.916  0.00  0.00    +0.000 A 
ATOM      8  C   UNL     1      21.489  18.019  30.568  0.00  0.00    +0.000 A 
ATOM      9  C   UNL     1      21.507  16.739  30.284  0.00  0.00    +0.000 A 
ATOM     10  C   UNL     1      22.948  21.501  31.098  0.00  0.00    +0.000 A 
ATOM     11  C   UNL     1      26.093  19.666  30.687  0.00  0.00    +0.000 C 
ATOM     12  C   UNL     1      24.762  20.509  28.678  0.00  0.00    +0.000 C 
ATOM     13  C   UNL     1      20.598  20.978  31.145  0.00  0.00    +0.000 A 
ATOM     14  C   UNL     1      22.657  22.819  31.451  0.00  0.00    +0.000 A 
ATOM     15  C   UNL     1      20.722  15.765  31.105  0.00  0.00    +0.000 C 
ATOM     16  C   UNL     1      21.338  23.220  31.634  0.00  0.00    +0.000 A 
ATOM     17  C   UNL     1      20.306  22.302  31.479  0.00  0.00    +0.000 A 
ENDROOT
BRANCH  13  18
ATOM     18  O   UNL     1      19.562  20.100  30.996  0.00  0.00    +0.000 OA
ATOM     19  H   UNL     1      19.194  19.884  31.873  0.00  0.00    +0.000 HD
ENDBRANCH  13  18
BRANCH  16  20
ATOM     20  C   UNL     1      21.045  24.572  31.969  0.00  0.00    +0.000 C 
ATOM     21  C   UNL     1      20.722  26.030  32.317  0.00  0.00    +0.000 C 
BRANCH  21  22
ATOM     22  C   UNL     1      20.392  27.485  32.658  0.00  0.00    +0.000 C 
ATOM     23  C   UNL     1      20.056  28.941  32.999  0.00  0.00    +0.000 C 
ATOM     24  C   UNL     1      19.719  30.396  33.342  0.00  0.00    +0.000 C 
ENDBRANCH  21  22
ENDBRANCH  16  20
TORSDOF 3
ENDMDL
MODEL 6
REMARK VINA RESULT:      -5.9     17.653     21.960
REMARK  Name = Dronabinol.pdbqt.pdb
REMARK  3 active torsions:
REMARK  status: ('A' for Active; 'I' for Inactive)
REMARK    1  A    between atoms: C_13  and  O_18
REMARK    2  A    between atoms: C_16  and  C_20
REMARK    3  A    between atoms: C_21  and  C_22
REMARK                            x       y       z     vdW  Elec       q    Type
REMARK                         _______ _______ _______ _____ _____    ______ ____
ROOT
ATOM      1  O   UNL     1      12.134   6.728  30.655  0.00  0.00    +0.000 OA
ATOM      2  C   UNL     1      13.497   6.517  28.612  0.00  0.00    +0.000 A 
ATOM      3  C   UNL     1      13.766   7.973  28.707  0.00  0.00    +0.000 A 
ATOM      4  C   UNL     1      12.914   5.838  29.822  0.00  0.00    +0.000 C 
ATOM      5  C   UNL     1      14.056   5.926  27.424  0.00  0.00    +0.000 A 
ATOM      6  C   UNL     1      13.351   8.719  29.892  0.00  0.00    +0.000 A 
ATOM      7  C   UNL     1      14.816   6.706  26.335  0.00  0.00    +0.000 A 
ATOM      8  C   UNL     1      14.488   8.486  27.562  0.00  0.00    +0.000 A 
ATOM      9  C   UNL     1      15.033   8.122  26.426  0.00  0.00    +0.000 A 
ATOM     10  C   UNL     1      12.545   8.029  30.810  0.00  0.00    +0.000 A 
ATOM     11  C   UNL     1      11.941   4.718  29.363  0.00  0.00    +0.000 C 
ATOM     12  C   UNL     1      14.063   5.235  30.683  0.00  0.00    +0.000 C 
ATOM     13  C   UNL     1      13.676  10.054  30.163  0.00  0.00    +0.000 A 
ATOM     14  C   UNL     1      12.053   8.673  31.947  0.00  0.00    +0.000 A 
ATOM     15  C   UNL     1      14.908   8.984  25.210  0.00  0.00    +0.000 C 
ATOM     16  C   UNL     1      12.386   9.999  32.199  0.00  0.00    +0.000 A 
ATOM     17  C   UNL     1      13.200  10.692  31.310  0.00  0.00    +0.000 A 
ENDROOT
BRANCH  13  18
ATOM     18  O   UNL     1      14.477  10.760  29.310  0.00  0.00    +0.000 OA
ATOM     19  H   UNL     1      13.931  11.389  28.804  0.00  0.00    +0.000 HD
ENDBRANCH  13  18
BRANCH  16  20
ATOM     20  C   UNL     1      11.904  10.643  33.373  0.00  0.00    +0.000 C 
ATOM     21  C   UNL     1      11.371  11.332  34.635  0.00  0.00    +0.000 C 
BRANCH  21  22
ATOM     22  C   UNL     1      10.830  12.014  35.894  0.00  0.00    +0.000 C 
ATOM     23  C   UNL     1      10.284  12.698  37.153  0.00  0.00    +0.000 C 
ATOM     24  C   UNL     1       9.736  13.379  38.411  0.00  0.00    +0.000 C 
ENDBRANCH  21  22
ENDBRANCH  16  20
TORSDOF 3
ENDMDL
MODEL 7
REMARK VINA RESULT:      -5.8      4.400      6.402
REMARK  Name = Dronabinol.pdbqt.pdb
REMARK  3 active torsions:
REMARK  status: ('A' for Active; 'I' for Inactive)
REMARK    1  A    between atoms: C_13  and  O_18
REMARK    2  A    between atoms: C_16  and  C_20
REMARK    3  A    between atoms: C_21  and  C_22
REMARK                            x       y       z     vdW  Elec       q    Type
REMARK                         _______ _______ _______ _____ _____    ______ ____
ROOT
ATOM      1  O   UNL     1      22.694  -1.472  13.994  0.00  0.00    +0.000 OA
ATOM      2  C   UNL     1      24.884  -2.602  14.002  0.00  0.00    +0.000 A 
ATOM      3  C   UNL     1      24.230  -3.754  13.334  0.00  0.00    +0.000 A 
ATOM      4  C   UNL     1      24.130  -1.300  14.036  0.00  0.00    +0.000 C 
ATOM      5  C   UNL     1      26.264  -2.859  14.325  0.00  0.00    +0.000 A 
ATOM      6  C   UNL     1      22.856  -3.640  12.854  0.00  0.00    +0.000 A 
ATOM      7  C   UNL     1      26.991  -4.190  14.056  0.00  0.00    +0.000 A 
ATOM      8  C   UNL     1      25.108  -4.897  13.199  0.00  0.00    +0.000 A 
ATOM      9  C   UNL     1      26.330  -5.306  13.444  0.00  0.00    +0.000 A 
ATOM     10  C   UNL     1      22.164  -2.476  13.222  0.00  0.00    +0.000 A 
ATOM     11  C   UNL     1      24.435  -0.566  15.371  0.00  0.00    +0.000 C 
ATOM     12  C   UNL     1      24.560  -0.420  12.826  0.00  0.00    +0.000 C 
ATOM     13  C   UNL     1      22.185  -4.597  12.082  0.00  0.00    +0.000 A 
ATOM     14  C   UNL     1      20.828  -2.299  12.857  0.00  0.00    +0.000 A 
ATOM     15  C   UNL     1      26.584  -6.696  13.936  0.00  0.00    +0.000 C 
ATOM     16  C   UNL     1      20.178  -3.261  12.092  0.00  0.00    +0.000 A 
ATOM     17  C   UNL     1      20.855  -4.410  11.701  0.00  0.00    +0.000 A 
ENDROOT
BRANCH  13  18
ATOM     18  O   UNL     1      22.824  -5.736  11.680  0.00  0.00    +0.000 OA
ATOM     19  H   UNL     1      22.162  -6.412  11.450  0.00  0.00    +0.000 HD
ENDBRANCH  13  18
BRANCH  16  20
ATOM     20  C   UNL     1      18.824  -3.063  11.700  0.00  0.00    +0.000 C 
ATOM     21  C   UNL     1      17.363  -2.862  11.283  0.00  0.00    +0.000 C 
BRANCH  21  22
ATOM     22  C   UNL     1      15.900  -2.669  10.873  0.00  0.00    +0.000 C 
ATOM     23  C   UNL     1      14.435  -2.479  10.467  0.00  0.00    +0.000 C 
ATOM     24  C   UNL     1      12.969  -2.286  10.063  0.00  0.00    +0.000 C 
ENDBRANCH  21  22
ENDBRANCH  16  20
TORSDOF 3
ENDMDL
MODEL 8
REMARK VINA RESULT:      -5.7     22.660     24.482
REMARK  Name = Dronabinol.pdbqt.pdb
REMARK  3 active torsions:
REMARK  status: ('A' for Active; 'I' for Inactive)
REMARK    1  A    between atoms: C_13  and  O_18
REMARK    2  A    between atoms: C_16  and  C_20
REMARK    3  A    between atoms: C_21  and  C_22
REMARK                            x       y       z     vdW  Elec       q    Type
REMARK                         _______ _______ _______ _____ _____    ______ ____
ROOT
ATOM      1  O   UNL     1      20.645  14.576  35.386  0.00  0.00    +0.000 OA
ATOM      2  C   UNL     1      20.618  16.009  33.381  0.00  0.00    +0.000 A 
ATOM      3  C   UNL     1      21.409  14.962  32.689  0.00  0.00    +0.000 A 
ATOM      4  C   UNL     1      19.956  15.635  34.680  0.00  0.00    +0.000 C 
ATOM      5  C   UNL     1      20.420  17.181  32.569  0.00  0.00    +0.000 A 
ATOM      6  C   UNL     1      21.630  13.668  33.329  0.00  0.00    +0.000 A 
ATOM      7  C   UNL     1      20.993  17.370  31.152  0.00  0.00    +0.000 A 
ATOM      8  C   UNL     1      21.848  15.369  31.371  0.00  0.00    +0.000 A 
ATOM      9  C   UNL     1      21.788  16.360  30.514  0.00  0.00    +0.000 A 
ATOM     10  C   UNL     1      21.221  13.558  34.667  0.00  0.00    +0.000 A 
ATOM     11  C   UNL     1      19.966  16.862  35.632  0.00  0.00    +0.000 C 
ATOM     12  C   UNL     1      18.494  15.177  34.405  0.00  0.00    +0.000 C 
ATOM     13  C   UNL     1      22.228  12.556  32.722  0.00  0.00    +0.000 A 
ATOM     14  C   UNL     1      21.439  12.379  35.382  0.00  0.00    +0.000 A 
ATOM     15  C   UNL     1      22.989  16.743  29.709  0.00  0.00    +0.000 C 
ATOM     16  C   UNL     1      22.034  11.286  34.762  0.00  0.00    +0.000 A 
ATOM     17  C   UNL     1      22.427  11.370  33.432  0.00  0.00    +0.000 A 
ENDROOT
BRANCH  13  18
ATOM     18  O   UNL     1      22.622  12.607  31.415  0.00  0.00    +0.000 OA
ATOM     19  H   UNL     1      23.531  12.266  31.340  0.00  0.00    +0.000 HD
ENDBRANCH  13  18
BRANCH  16  20
ATOM     20  C   UNL     1      22.230  10.076  35.488  0.00  0.00    +0.000 C 
ATOM     21  C   UNL     1      22.438   8.781  36.281  0.00  0.00    +0.000 C 
BRANCH  21  22
ATOM     22  C   UNL     1      22.640   7.491  37.081  0.00  0.00    +0.000 C 
ATOM     23  C   UNL     1      22.846   6.202  37.883  0.00  0.00    +0.000 C 
ATOM     24  C   UNL     1      23.053   4.914  38.687  0.00  0.00    +0.000 C 
ENDBRANCH  21  22
ENDBRANCH  16  20
TORSDOF 3
ENDMDL
MODEL 9
REMARK VINA RESULT:      -5.7      3.307      6.259
REMARK  Name = Dronabinol.pdbqt.pdb
REMARK  3 active torsions:
REMARK  status: ('A' for Active; 'I' for Inactive)
REMARK    1  A    between atoms: C_13  and  O_18
REMARK    2  A    between atoms: C_16  and  C_20
REMARK    3  A    between atoms: C_21  and  C_22
REMARK                            x       y       z     vdW  Elec       q    Type
REMARK                         _______ _______ _______ _____ _____    ______ ____
ROOT
ATOM      1  O   UNL     1      22.844  -4.598  15.588  0.00  0.00    +0.000 OA
ATOM      2  C   UNL     1      25.248  -4.157  15.906  0.00  0.00    +0.000 A 
ATOM      3  C   UNL     1      25.188  -3.272  14.717  0.00  0.00    +0.000 A 
ATOM      4  C   UNL     1      23.943  -4.574  16.529  0.00  0.00    +0.000 C 
ATOM      5  C   UNL     1      26.584  -4.300  16.422  0.00  0.00    +0.000 A 
ATOM      6  C   UNL     1      23.898  -2.940  14.115  0.00  0.00    +0.000 A 
ATOM      7  C   UNL     1      27.836  -3.652  15.801  0.00  0.00    +0.000 A 
ATOM      8  C   UNL     1      26.489  -2.788  14.310  0.00  0.00    +0.000 A 
ATOM      9  C   UNL     1      27.761  -2.830  14.627  0.00  0.00    +0.000 A 
ATOM     10  C   UNL     1      22.785  -3.640  14.605  0.00  0.00    +0.000 A 
ATOM     11  C   UNL     1      24.074  -6.024  17.071  0.00  0.00    +0.000 C 
ATOM     12  C   UNL     1      23.583  -3.595  17.685  0.00  0.00    +0.000 C 
ATOM     13  C   UNL     1      23.700  -2.005  13.091  0.00  0.00    +0.000 A 
ATOM     14  C   UNL     1      21.519  -3.433  14.057  0.00  0.00    +0.000 A 
ATOM     15  C   UNL     1      28.809  -2.937  13.564  0.00  0.00    +0.000 C 
ATOM     16  C   UNL     1      21.340  -2.502  13.040  0.00  0.00    +0.000 A 
ATOM     17  C   UNL     1      22.428  -1.784  12.557  0.00  0.00    +0.000 A 
ENDROOT
BRANCH  13  18
ATOM     18  O   UNL     1      24.749  -1.282  12.598  0.00  0.00    +0.000 OA
ATOM     19  H   UNL     1      24.406  -0.516  12.103  0.00  0.00    +0.000 HD
ENDBRANCH  13  18
BRANCH  16  20
ATOM     20  C   UNL     1      20.042  -2.275  12.502  0.00  0.00    +0.000 C 
ATOM     21  C   UNL     1      18.649  -2.026  11.911  0.00  0.00    +0.000 C 
BRANCH  21  22
ATOM     22  C   UNL     1      17.263  -1.777  11.311  0.00  0.00    +0.000 C 
ATOM     23  C   UNL     1      15.877  -1.527  10.706  0.00  0.00    +0.000 C 
ATOM     24  C   UNL     1      14.492  -1.280  10.099  0.00  0.00    +0.000 C 
ENDBRANCH  21  22
ENDBRANCH  16  20
TORSDOF 3
ENDMDL
