MODEL 1
REMARK VINA RESULT:      -6.8      0.000      0.000
REMARK  Name = Ellipticine.pdbqt.pdb
REMARK  0 active torsions:
REMARK  status: ('A' for Active; 'I' for Inactive)
REMARK                            x       y       z     vdW  Elec       q    Type
REMARK                         _______ _______ _______ _____ _____    ______ ____
ROOT
ATOM      1  N   UNL     1      24.961  24.185   1.782  0.00  0.00    +0.000 N 
ATOM      2  N   UNL     1      21.644  19.008  -0.069  0.00  0.00    +0.000 NA
ATOM      3  C   UNL     1      23.337  22.813   2.486  0.00  0.00    +0.000 A 
ATOM      4  C   UNL     1      24.219  23.075   1.434  0.00  0.00    +0.000 A 
ATOM      5  C   UNL     1      22.456  21.707   2.367  0.00  0.00    +0.000 A 
ATOM      6  C   UNL     1      23.580  23.818   3.488  0.00  0.00    +0.000 A 
ATOM      7  C   UNL     1      24.272  22.295   0.268  0.00  0.00    +0.000 A 
ATOM      8  C   UNL     1      23.397  21.198   0.152  0.00  0.00    +0.000 A 
ATOM      9  C   UNL     1      22.495  20.909   1.199  0.00  0.00    +0.000 A 
ATOM     10  C   UNL     1      24.593  24.651   3.017  0.00  0.00    +0.000 A 
ATOM     11  C   UNL     1      21.488  21.394   3.487  0.00  0.00    +0.000 C 
ATOM     12  C   UNL     1      23.027  24.092   4.754  0.00  0.00    +0.000 A 
ATOM     13  C   UNL     1      25.265  22.669  -0.806  0.00  0.00    +0.000 C 
ATOM     14  C   UNL     1      25.084  25.743   3.742  0.00  0.00    +0.000 A 
ATOM     15  C   UNL     1      23.393  20.374  -0.983  0.00  0.00    +0.000 A 
ATOM     16  C   UNL     1      21.657  19.809   1.019  0.00  0.00    +0.000 A 
ATOM     17  C   UNL     1      23.503  25.177   5.495  0.00  0.00    +0.000 A 
ATOM     18  C   UNL     1      24.514  25.986   4.993  0.00  0.00    +0.000 A 
ATOM     19  C   UNL     1      22.514  19.309  -1.048  0.00  0.00    +0.000 A 
ATOM     20  H   UNL     1      25.680  24.593   1.194  0.00  0.00    +0.000 HD
ENDROOT
TORSDOF 0
ENDMDL
MODEL 2
REMARK VINA RESULT:      -6.6     30.791     33.136
REMARK  Name = Ellipticine.pdbqt.pdb
REMARK  0 active torsions:
REMARK  status: ('A' for Active; 'I' for Inactive)
REMARK                            x       y       z     vdW  Elec       q    Type
REMARK                         _______ _______ _______ _____ _____    ______ ____
ROOT
ATOM      1  N   UNL     1      13.935  10.280  28.390  0.00  0.00    +0.000 N 
ATOM      2  N   UNL     1      12.643   7.697  34.125  0.00  0.00    +0.000 NA
ATOM      3  C   UNL     1      13.900   8.303  29.442  0.00  0.00    +0.000 A 
ATOM      4  C   UNL     1      13.671   9.674  29.600  0.00  0.00    +0.000 A 
ATOM      5  C   UNL     1      13.695   7.453  30.560  0.00  0.00    +0.000 A 
ATOM      6  C   UNL     1      14.316   8.110  28.078  0.00  0.00    +0.000 A 
ATOM      7  C   UNL     1      13.248  10.243  30.811  0.00  0.00    +0.000 A 
ATOM      8  C   UNL     1      13.045   9.397  31.919  0.00  0.00    +0.000 A 
ATOM      9  C   UNL     1      13.269   8.010  31.789  0.00  0.00    +0.000 A 
ATOM     10  C   UNL     1      14.326   9.356  27.455  0.00  0.00    +0.000 A 
ATOM     11  C   UNL     1      13.934   5.965  30.424  0.00  0.00    +0.000 C 
ATOM     12  C   UNL     1      14.685   6.983  27.318  0.00  0.00    +0.000 A 
ATOM     13  C   UNL     1      13.030  11.737  30.869  0.00  0.00    +0.000 C 
ATOM     14  C   UNL     1      14.685   9.539  26.115  0.00  0.00    +0.000 A 
ATOM     15  C   UNL     1      12.623   9.895  33.160  0.00  0.00    +0.000 A 
ATOM     16  C   UNL     1      13.049   7.230  32.924  0.00  0.00    +0.000 A 
ATOM     17  C   UNL     1      15.047   7.143  25.978  0.00  0.00    +0.000 A 
ATOM     18  C   UNL     1      15.045   8.402  25.390  0.00  0.00    +0.000 A 
ATOM     19  C   UNL     1      12.438   9.023  34.217  0.00  0.00    +0.000 A 
ATOM     20  H   UNL     1      13.848  11.277  28.224  0.00  0.00    +0.000 HD
ENDROOT
TORSDOF 0
ENDMDL
MODEL 3
REMARK VINA RESULT:      -6.2     35.155     36.982
REMARK  Name = Ellipticine.pdbqt.pdb
REMARK  0 active torsions:
REMARK  status: ('A' for Active; 'I' for Inactive)
REMARK                            x       y       z     vdW  Elec       q    Type
REMARK                         _______ _______ _______ _____ _____    ______ ____
ROOT
ATOM      1  N   UNL     1      33.029   7.616  35.201  0.00  0.00    +0.000 N 
ATOM      2  N   UNL     1      36.951  11.751  32.243  0.00  0.00    +0.000 NA
ATOM      3  C   UNL     1      33.493   9.805  35.094  0.00  0.00    +0.000 A 
ATOM      4  C   UNL     1      33.846   8.547  34.595  0.00  0.00    +0.000 A 
ATOM      5  C   UNL     1      34.198  10.940  34.618  0.00  0.00    +0.000 A 
ATOM      6  C   UNL     1      32.423   9.589  36.032  0.00  0.00    +0.000 A 
ATOM      7  C   UNL     1      34.864   8.360  33.646  0.00  0.00    +0.000 A 
ATOM      8  C   UNL     1      35.562   9.488  33.176  0.00  0.00    +0.000 A 
ATOM      9  C   UNL     1      35.227  10.770  33.662  0.00  0.00    +0.000 A 
ATOM     10  C   UNL     1      32.161   8.222  36.073  0.00  0.00    +0.000 A 
ATOM     11  C   UNL     1      33.843  12.317  35.137  0.00  0.00    +0.000 C 
ATOM     12  C   UNL     1      31.653  10.440  36.851  0.00  0.00    +0.000 A 
ATOM     13  C   UNL     1      35.162   6.956  33.176  0.00  0.00    +0.000 C 
ATOM     14  C   UNL     1      31.173   7.656  36.886  0.00  0.00    +0.000 A 
ATOM     15  C   UNL     1      36.591   9.377  32.229  0.00  0.00    +0.000 A 
ATOM     16  C   UNL     1      35.959  11.844  33.154  0.00  0.00    +0.000 A 
ATOM     17  C   UNL     1      30.661   9.896  37.670  0.00  0.00    +0.000 A 
ATOM     18  C   UNL     1      30.429   8.526  37.685  0.00  0.00    +0.000 A 
ATOM     19  C   UNL     1      37.246  10.516  31.799  0.00  0.00    +0.000 A 
ATOM     20  H   UNL     1      33.072   6.619  35.019  0.00  0.00    +0.000 HD
ENDROOT
TORSDOF 0
ENDMDL
MODEL 4
REMARK VINA RESULT:      -6.2     29.918     32.464
REMARK  Name = Ellipticine.pdbqt.pdb
REMARK  0 active torsions:
REMARK  status: ('A' for Active; 'I' for Inactive)
REMARK                            x       y       z     vdW  Elec       q    Type
REMARK                         _______ _______ _______ _____ _____    ______ ____
ROOT
ATOM      1  N   UNL     1      13.904   3.664  28.215  0.00  0.00    +0.000 N 
ATOM      2  N   UNL     1      14.254  10.075  28.342  0.00  0.00    +0.000 NA
ATOM      3  C   UNL     1      14.737   5.387  27.051  0.00  0.00    +0.000 A 
ATOM      4  C   UNL     1      14.009   5.040  28.193  0.00  0.00    +0.000 A 
ATOM      5  C   UNL     1      14.982   6.762  26.801  0.00  0.00    +0.000 A 
ATOM      6  C   UNL     1      15.066   4.156  26.383  0.00  0.00    +0.000 A 
ATOM      7  C   UNL     1      13.513   5.988  29.101  0.00  0.00    +0.000 A 
ATOM      8  C   UNL     1      13.758   7.352  28.851  0.00  0.00    +0.000 A 
ATOM      9  C   UNL     1      14.490   7.732  27.705  0.00  0.00    +0.000 A 
ATOM     10  C   UNL     1      14.535   3.109  27.132  0.00  0.00    +0.000 A 
ATOM     11  C   UNL     1      15.766   7.174  25.574  0.00  0.00    +0.000 C 
ATOM     12  C   UNL     1      15.772   3.840  25.204  0.00  0.00    +0.000 A 
ATOM     13  C   UNL     1      12.740   5.500  30.303  0.00  0.00    +0.000 C 
ATOM     14  C   UNL     1      14.668   1.764  26.770  0.00  0.00    +0.000 A 
ATOM     15  C   UNL     1      13.293   8.356  29.714  0.00  0.00    +0.000 A 
ATOM     16  C   UNL     1      14.696   9.099  27.519  0.00  0.00    +0.000 A 
ATOM     17  C   UNL     1      15.917   2.504  24.824  0.00  0.00    +0.000 A 
ATOM     18  C   UNL     1      15.373   1.486  25.597  0.00  0.00    +0.000 A 
ATOM     19  C   UNL     1      13.560   9.681  29.424  0.00  0.00    +0.000 A 
ATOM     20  H   UNL     1      13.423   3.144  28.940  0.00  0.00    +0.000 HD
ENDROOT
TORSDOF 0
ENDMDL
MODEL 5
REMARK VINA RESULT:      -6.1     19.763     22.662
REMARK  Name = Ellipticine.pdbqt.pdb
REMARK  0 active torsions:
REMARK  status: ('A' for Active; 'I' for Inactive)
REMARK                            x       y       z     vdW  Elec       q    Type
REMARK                         _______ _______ _______ _____ _____    ______ ____
ROOT
ATOM      1  N   UNL     1      16.000   3.575   8.284  0.00  0.00    +0.000 N 
ATOM      2  N   UNL     1      13.003  -1.494   5.725  0.00  0.00    +0.000 NA
ATOM      3  C   UNL     1      15.574   2.620   6.304  0.00  0.00    +0.000 A 
ATOM      4  C   UNL     1      15.373   2.504   7.682  0.00  0.00    +0.000 A 
ATOM      5  C   UNL     1      15.019   1.627   5.456  0.00  0.00    +0.000 A 
ATOM      6  C   UNL     1      16.354   3.812   6.101  0.00  0.00    +0.000 A 
ATOM      7  C   UNL     1      14.647   1.452   8.263  0.00  0.00    +0.000 A 
ATOM      8  C   UNL     1      14.098   0.467   7.419  0.00  0.00    +0.000 A 
ATOM      9  C   UNL     1      14.285   0.559   6.023  0.00  0.00    +0.000 A 
ATOM     10  C   UNL     1      16.600   4.379   7.349  0.00  0.00    +0.000 A 
ATOM     11  C   UNL     1      15.218   1.721   3.959  0.00  0.00    +0.000 C 
ATOM     12  C   UNL     1      16.873   4.460   4.962  0.00  0.00    +0.000 A 
ATOM     13  C   UNL     1      14.491   1.426   9.765  0.00  0.00    +0.000 C 
ATOM     14  C   UNL     1      17.335   5.556   7.524  0.00  0.00    +0.000 A 
ATOM     15  C   UNL     1      13.361  -0.613   7.929  0.00  0.00    +0.000 A 
ATOM     16  C   UNL     1      13.714  -0.450   5.247  0.00  0.00    +0.000 A 
ATOM     17  C   UNL     1      17.610   5.637   5.114  0.00  0.00    +0.000 A 
ATOM     18  C   UNL     1      17.835   6.173   6.376  0.00  0.00    +0.000 A 
ATOM     19  C   UNL     1      12.842  -1.553   7.058  0.00  0.00    +0.000 A 
ATOM     20  H   UNL     1      16.010   3.736   9.285  0.00  0.00    +0.000 HD
ENDROOT
TORSDOF 0
ENDMDL
MODEL 6
REMARK VINA RESULT:      -5.9      2.501      6.588
REMARK  Name = Ellipticine.pdbqt.pdb
REMARK  0 active torsions:
REMARK  status: ('A' for Active; 'I' for Inactive)
REMARK                            x       y       z     vdW  Elec       q    Type
REMARK                         _______ _______ _______ _____ _____    ______ ____
ROOT
ATOM      1  N   UNL     1      25.966  25.031   1.557  0.00  0.00    +0.000 N 
ATOM      2  N   UNL     1      23.908  28.775   6.351  0.00  0.00    +0.000 NA
ATOM      3  C   UNL     1      24.601  24.996   3.333  0.00  0.00    +0.000 A 
ATOM      4  C   UNL     1      25.491  25.792   2.606  0.00  0.00    +0.000 A 
ATOM      5  C   UNL     1      23.973  25.558   4.474  0.00  0.00    +0.000 A 
ATOM      6  C   UNL     1      24.561  23.716   2.675  0.00  0.00    +0.000 A 
ATOM      7  C   UNL     1      25.788  27.119   2.953  0.00  0.00    +0.000 A 
ATOM      8  C   UNL     1      25.163  27.675   4.086  0.00  0.00    +0.000 A 
ATOM      9  C   UNL     1      24.260  26.894   4.840  0.00  0.00    +0.000 A 
ATOM     10  C   UNL     1      25.418  23.774   1.578  0.00  0.00    +0.000 A 
ATOM     11  C   UNL     1      23.004  24.724   5.285  0.00  0.00    +0.000 C 
ATOM     12  C   UNL     1      23.869  22.513   2.916  0.00  0.00    +0.000 A 
ATOM     13  C   UNL     1      26.765  27.888   2.095  0.00  0.00    +0.000 C 
ATOM     14  C   UNL     1      25.623  22.697   0.709  0.00  0.00    +0.000 A 
ATOM     15  C   UNL     1      25.412  28.994   4.493  0.00  0.00    +0.000 A 
ATOM     16  C   UNL     1      23.677  27.506   5.949  0.00  0.00    +0.000 A 
ATOM     17  C   UNL     1      24.058  21.425   2.060  0.00  0.00    +0.000 A 
ATOM     18  C   UNL     1      24.922  21.520   0.976  0.00  0.00    +0.000 A 
ATOM     19  C   UNL     1      24.772  29.493   5.613  0.00  0.00    +0.000 A 
ATOM     20  H   UNL     1      26.630  25.367   0.869  0.00  0.00    +0.000 HD
ENDROOT
TORSDOF 0
ENDMDL
MODEL 7
REMARK VINA RESULT:      -5.9     28.617     30.014
REMARK  Name = Ellipticine.pdbqt.pdb
REMARK  0 active torsions:
REMARK  status: ('A' for Active; 'I' for Inactive)
REMARK                            x       y       z     vdW  Elec       q    Type
REMARK                         _______ _______ _______ _____ _____    ______ ____
ROOT
ATOM      1  N   UNL     1      23.689  17.413  30.361  0.00  0.00    +0.000 N 
ATOM      2  N   UNL     1      17.765  17.168  32.826  0.00  0.00    +0.000 NA
ATOM      3  C   UNL     1      22.173  18.705  31.386  0.00  0.00    +0.000 A 
ATOM      4  C   UNL     1      22.421  17.416  30.905  0.00  0.00    +0.000 A 
ATOM      5  C   UNL     1      20.920  18.966  31.998  0.00  0.00    +0.000 A 
ATOM      6  C   UNL     1      23.352  19.482  31.107  0.00  0.00    +0.000 A 
ATOM      7  C   UNL     1      21.487  16.372  31.001  0.00  0.00    +0.000 A 
ATOM      8  C   UNL     1      20.245  16.634  31.609  0.00  0.00    +0.000 A 
ATOM      9  C   UNL     1      19.967  17.926  32.104  0.00  0.00    +0.000 A 
ATOM     10  C   UNL     1      24.270  18.649  30.472  0.00  0.00    +0.000 A 
ATOM     11  C   UNL     1      20.618  20.351  32.530  0.00  0.00    +0.000 C 
ATOM     12  C   UNL     1      23.719  20.823  31.340  0.00  0.00    +0.000 A 
ATOM     13  C   UNL     1      21.861  15.017  30.447  0.00  0.00    +0.000 C 
ATOM     14  C   UNL     1      25.535  19.081  30.056  0.00  0.00    +0.000 A 
ATOM     15  C   UNL     1      19.263  15.639  31.740  0.00  0.00    +0.000 A 
ATOM     16  C   UNL     1      18.718  18.116  32.694  0.00  0.00    +0.000 A 
ATOM     17  C   UNL     1      24.976  21.275  30.933  0.00  0.00    +0.000 A 
ATOM     18  C   UNL     1      25.866  20.415  30.302  0.00  0.00    +0.000 A 
ATOM     19  C   UNL     1      18.059  15.947  32.345  0.00  0.00    +0.000 A 
ATOM     20  H   UNL     1      24.122  16.600  29.939  0.00  0.00    +0.000 HD
ENDROOT
TORSDOF 0
ENDMDL
MODEL 8
REMARK VINA RESULT:      -5.9     31.641     33.855
REMARK  Name = Ellipticine.pdbqt.pdb
REMARK  0 active torsions:
REMARK  status: ('A' for Active; 'I' for Inactive)
REMARK                            x       y       z     vdW  Elec       q    Type
REMARK                         _______ _______ _______ _____ _____    ______ ____
ROOT
ATOM      1  N   UNL     1      19.345  14.248  33.510  0.00  0.00    +0.000 N 
ATOM      2  N   UNL     1      22.219   9.359  36.522  0.00  0.00    +0.000 NA
ATOM      3  C   UNL     1      21.147  12.926  33.360  0.00  0.00    +0.000 A 
ATOM      4  C   UNL     1      20.004  13.199  34.117  0.00  0.00    +0.000 A 
ATOM      5  C   UNL     1      22.001  11.876  33.785  0.00  0.00    +0.000 A 
ATOM      6  C   UNL     1      21.149  13.861  32.266  0.00  0.00    +0.000 A 
ATOM      7  C   UNL     1      19.665  12.481  35.275  0.00  0.00    +0.000 A 
ATOM      8  C   UNL     1      20.514  11.439  35.694  0.00  0.00    +0.000 A 
ATOM      9  C   UNL     1      21.676  11.141  34.949  0.00  0.00    +0.000 A 
ATOM     10  C   UNL     1      20.018  14.665  32.391  0.00  0.00    +0.000 A 
ATOM     11  C   UNL     1      23.248  11.554  32.989  0.00  0.00    +0.000 C 
ATOM     12  C   UNL     1      22.015  14.095  31.179  0.00  0.00    +0.000 A 
ATOM     13  C   UNL     1      18.405  12.860  36.016  0.00  0.00    +0.000 C 
ATOM     14  C   UNL     1      19.703  15.688  31.490  0.00  0.00    +0.000 A 
ATOM     15  C   UNL     1      20.240  10.679  36.841  0.00  0.00    +0.000 A 
ATOM     16  C   UNL     1      22.472  10.098  35.420  0.00  0.00    +0.000 A 
ATOM     17  C   UNL     1      21.719  15.112  30.268  0.00  0.00    +0.000 A 
ATOM     18  C   UNL     1      20.582  15.893  30.425  0.00  0.00    +0.000 A 
ATOM     19  C   UNL     1      21.106   9.666  37.210  0.00  0.00    +0.000 A 
ATOM     20  H   UNL     1      18.480  14.649  33.855  0.00  0.00    +0.000 HD
ENDROOT
TORSDOF 0
ENDMDL
MODEL 9
REMARK VINA RESULT:      -5.8     14.776     17.568
REMARK  Name = Ellipticine.pdbqt.pdb
REMARK  0 active torsions:
REMARK  status: ('A' for Active; 'I' for Inactive)
REMARK                            x       y       z     vdW  Elec       q    Type
REMARK                         _______ _______ _______ _____ _____    ______ ____
ROOT
ATOM      1  N   UNL     1      12.616  12.871  12.906  0.00  0.00    +0.000 N 
ATOM      2  N   UNL     1      13.417  13.979   6.632  0.00  0.00    +0.000 NA
ATOM      3  C   UNL     1      13.075  11.801  10.992  0.00  0.00    +0.000 A 
ATOM      4  C   UNL     1      12.798  13.053  11.550  0.00  0.00    +0.000 A 
ATOM      5  C   UNL     1      13.303  11.723   9.594  0.00  0.00    +0.000 A 
ATOM      6  C   UNL     1      13.052  10.854  12.075  0.00  0.00    +0.000 A 
ATOM      7  C   UNL     1      12.736  14.232  10.791  0.00  0.00    +0.000 A 
ATOM      8  C   UNL     1      12.963  14.151   9.403  0.00  0.00    +0.000 A 
ATOM      9  C   UNL     1      13.245  12.901   8.812  0.00  0.00    +0.000 A 
ATOM     10  C   UNL     1      12.765  11.551  13.246  0.00  0.00    +0.000 A 
ATOM     11  C   UNL     1      13.605  10.384   8.956  0.00  0.00    +0.000 C 
ATOM     12  C   UNL     1      13.250   9.461  12.161  0.00  0.00    +0.000 A 
ATOM     13  C   UNL     1      12.429  15.530  11.498  0.00  0.00    +0.000 C 
ATOM     14  C   UNL     1      12.665  10.936  14.498  0.00  0.00    +0.000 A 
ATOM     15  C   UNL     1      12.917  15.288   8.581  0.00  0.00    +0.000 A 
ATOM     16  C   UNL     1      13.459  12.894   7.434  0.00  0.00    +0.000 A 
ATOM     17  C   UNL     1      13.155   8.826  13.402  0.00  0.00    +0.000 A 
ATOM     18  C   UNL     1      12.867   9.555  14.549  0.00  0.00    +0.000 A 
ATOM     19  C   UNL     1      13.147  15.156   7.224  0.00  0.00    +0.000 A 
ATOM     20  H   UNL     1      12.402  13.621  13.554  0.00  0.00    +0.000 HD
ENDROOT
TORSDOF 0
ENDMDL
