MODEL 1
REMARK VINA RESULT:      -7.6      0.000      0.000
REMARK  Name = Enterolactone.pdbqt.pdb
REMARK  2 active torsions:
REMARK  status: ('A' for Active; 'I' for Inactive)
REMARK    1  A    between atoms: C_10  and  O_14
REMARK    2  A    between atoms: C_19  and  O_23
REMARK                            x       y       z     vdW  Elec       q    Type
REMARK                         _______ _______ _______ _____ _____    ______ ____
ROOT
ATOM      1  O   UNL     1      48.967  -5.203   9.801  0.00  0.00    +0.000 OA
ATOM      2  O   UNL     1      47.821  -7.233   9.759  0.00  0.00    +0.000 OA
ATOM      3  C   UNL     1      47.137  -3.734  10.134  0.00  0.00    +0.000 C 
ATOM      4  C   UNL     1      46.662  -5.096  10.082  0.00  0.00    +0.000 C 
ATOM      5  C   UNL     1      48.501  -3.975   9.966  0.00  0.00    +0.000 C 
ATOM      6  C   UNL     1      47.844  -6.020   9.859  0.00  0.00    +0.000 C 
ATOM      7  C   UNL     1      46.470  -2.643  10.723  0.00  0.00    +0.000 C 
ATOM      8  C   UNL     1      45.777  -1.548  11.316  0.00  0.00    +0.000 C 
ATOM      9  C   UNL     1      44.944  -1.768  12.410  0.00  0.00    +0.000 C 
ATOM     10  C   UNL     1      44.265  -0.692  12.974  0.00  0.00    +0.000 C 
ATOM     11  C   UNL     1      44.408   0.592  12.461  0.00  0.00    +0.000 C 
ATOM     12  C   UNL     1      45.243   0.806  11.367  0.00  0.00    +0.000 C 
ATOM     13  C   UNL     1      45.928  -0.265  10.794  0.00  0.00    +0.000 C 
ATOM     14  C   UNL     1      45.328  -5.514  10.289  0.00  0.00    +0.000 C 
ATOM     15  C   UNL     1      43.982  -5.929  10.504  0.00  0.00    +0.000 C 
ATOM     16  C   UNL     1      42.933  -5.163  10.004  0.00  0.00    +0.000 C 
ATOM     17  C   UNL     1      41.623  -5.573  10.231  0.00  0.00    +0.000 C 
ATOM     18  C   UNL     1      41.350  -6.732  10.949  0.00  0.00    +0.000 C 
ATOM     19  C   UNL     1      42.405  -7.495  11.446  0.00  0.00    +0.000 C 
ATOM     20  C   UNL     1      43.722  -7.094  11.225  0.00  0.00    +0.000 C 
ENDROOT
BRANCH  10  21
ATOM     21  O   UNL     1      43.440  -0.873  14.047  0.00  0.00    +0.000 OA
ATOM     22  H   UNL     1      43.330  -0.019  14.500  0.00  0.00    +0.000 HD
ENDBRANCH  10  21
BRANCH  17  23
ATOM     23  O   UNL     1      40.571  -4.844   9.756  0.00  0.00    +0.000 OA
ATOM     24  H   UNL     1      40.027  -5.420   9.189  0.00  0.00    +0.000 HD
ENDBRANCH  17  23
TORSDOF 2
ENDMDL
MODEL 2
REMARK VINA RESULT:      -7.0     34.387     37.054
REMARK  Name = Enterolactone.pdbqt.pdb
REMARK  2 active torsions:
REMARK  status: ('A' for Active; 'I' for Inactive)
REMARK    1  A    between atoms: C_10  and  O_14
REMARK    2  A    between atoms: C_19  and  O_23
REMARK                            x       y       z     vdW  Elec       q    Type
REMARK                         _______ _______ _______ _____ _____    ______ ____
ROOT
ATOM      1  O   UNL     1      14.389   9.838  26.876  0.00  0.00    +0.000 OA
ATOM      2  O   UNL     1      15.042   8.551  25.045  0.00  0.00    +0.000 OA
ATOM      3  C   UNL     1      13.787   8.101  28.373  0.00  0.00    +0.000 C 
ATOM      4  C   UNL     1      14.248   7.531  27.130  0.00  0.00    +0.000 C 
ATOM      5  C   UNL     1      13.945   9.452  28.062  0.00  0.00    +0.000 C 
ATOM      6  C   UNL     1      14.619   8.656  26.182  0.00  0.00    +0.000 C 
ATOM      7  C   UNL     1      13.749   7.452  29.622  0.00  0.00    +0.000 C 
ATOM      8  C   UNL     1      13.710   6.777  30.876  0.00  0.00    +0.000 C 
ATOM      9  C   UNL     1      14.655   5.795  31.164  0.00  0.00    +0.000 C 
ATOM     10  C   UNL     1      14.600   5.136  32.388  0.00  0.00    +0.000 C 
ATOM     11  C   UNL     1      13.617   5.444  33.322  0.00  0.00    +0.000 C 
ATOM     12  C   UNL     1      12.675   6.427  33.029  0.00  0.00    +0.000 C 
ATOM     13  C   UNL     1      12.721   7.094  31.806  0.00  0.00    +0.000 C 
ATOM     14  C   UNL     1      14.411   6.153  26.863  0.00  0.00    +0.000 C 
ATOM     15  C   UNL     1      14.578   4.762  26.603  0.00  0.00    +0.000 C 
ATOM     16  C   UNL     1      13.649   3.850  27.094  0.00  0.00    +0.000 C 
ATOM     17  C   UNL     1      13.829   2.493  26.843  0.00  0.00    +0.000 C 
ATOM     18  C   UNL     1      14.922   2.040  26.111  0.00  0.00    +0.000 C 
ATOM     19  C   UNL     1      15.848   2.959  25.622  0.00  0.00    +0.000 C 
ATOM     20  C   UNL     1      15.677   4.321  25.867  0.00  0.00    +0.000 C 
ENDROOT
BRANCH  10  21
ATOM     21  O   UNL     1      15.511   4.169  32.701  0.00  0.00    +0.000 OA
ATOM     22  H   UNL     1      16.404   4.549  32.627  0.00  0.00    +0.000 HD
ENDBRANCH  10  21
BRANCH  17  23
ATOM     23  O   UNL     1      12.938   1.572  27.311  0.00  0.00    +0.000 OA
ATOM     24  H   UNL     1      12.074   1.739  26.894  0.00  0.00    +0.000 HD
ENDBRANCH  17  23
TORSDOF 2
ENDMDL
MODEL 3
REMARK VINA RESULT:      -6.4     35.059     37.482
REMARK  Name = Enterolactone.pdbqt.pdb
REMARK  2 active torsions:
REMARK  status: ('A' for Active; 'I' for Inactive)
REMARK    1  A    between atoms: C_10  and  O_14
REMARK    2  A    between atoms: C_19  and  O_23
REMARK                            x       y       z     vdW  Elec       q    Type
REMARK                         _______ _______ _______ _____ _____    ______ ____
ROOT
ATOM      1  O   UNL     1      15.033   8.117  25.217  0.00  0.00    +0.000 OA
ATOM      2  O   UNL     1      15.393   5.829  24.957  0.00  0.00    +0.000 OA
ATOM      3  C   UNL     1      14.160   8.123  27.421  0.00  0.00    +0.000 C 
ATOM      4  C   UNL     1      14.477   6.770  27.028  0.00  0.00    +0.000 C 
ATOM      5  C   UNL     1      14.556   8.783  26.257  0.00  0.00    +0.000 C 
ATOM      6  C   UNL     1      15.025   6.785  25.613  0.00  0.00    +0.000 C 
ATOM      7  C   UNL     1      14.035   8.598  28.740  0.00  0.00    +0.000 C 
ATOM      8  C   UNL     1      13.904   9.059  30.082  0.00  0.00    +0.000 C 
ATOM      9  C   UNL     1      14.659   8.470  31.093  0.00  0.00    +0.000 C 
ATOM     10  C   UNL     1      14.514   8.923  32.401  0.00  0.00    +0.000 C 
ATOM     11  C   UNL     1      13.628   9.951  32.708  0.00  0.00    +0.000 C 
ATOM     12  C   UNL     1      12.876  10.535  31.692  0.00  0.00    +0.000 C 
ATOM     13  C   UNL     1      13.013  10.090  30.379  0.00  0.00    +0.000 C 
ATOM     14  C   UNL     1      14.377   5.626  27.851  0.00  0.00    +0.000 C 
ATOM     15  C   UNL     1      14.278   4.478  28.688  0.00  0.00    +0.000 C 
ATOM     16  C   UNL     1      13.210   4.354  29.572  0.00  0.00    +0.000 C 
ATOM     17  C   UNL     1      13.131   3.233  30.392  0.00  0.00    +0.000 C 
ATOM     18  C   UNL     1      14.103   2.240  30.341  0.00  0.00    +0.000 C 
ATOM     19  C   UNL     1      15.170   2.369  29.454  0.00  0.00    +0.000 C 
ATOM     20  C   UNL     1      15.259   3.488  28.627  0.00  0.00    +0.000 C 
ENDROOT
BRANCH  10  21
ATOM     21  O   UNL     1      15.239   8.368  33.415  0.00  0.00    +0.000 OA
ATOM     22  H   UNL     1      16.185   8.458  33.206  0.00  0.00    +0.000 HD
ENDBRANCH  10  21
BRANCH  17  23
ATOM     23  O   UNL     1      12.098   3.082  31.270  0.00  0.00    +0.000 OA
ATOM     24  H   UNL     1      11.403   2.551  30.841  0.00  0.00    +0.000 HD
ENDBRANCH  17  23
TORSDOF 2
ENDMDL
MODEL 4
REMARK VINA RESULT:      -5.9      2.372      3.145
REMARK  Name = Enterolactone.pdbqt.pdb
REMARK  2 active torsions:
REMARK  status: ('A' for Active; 'I' for Inactive)
REMARK    1  A    between atoms: C_10  and  O_14
REMARK    2  A    between atoms: C_19  and  O_23
REMARK                            x       y       z     vdW  Elec       q    Type
REMARK                         _______ _______ _______ _____ _____    ______ ____
ROOT
ATOM      1  O   UNL     1      50.752  -2.533   9.491  0.00  0.00    +0.000 OA
ATOM      2  O   UNL     1      49.695  -4.610   9.441  0.00  0.00    +0.000 OA
ATOM      3  C   UNL     1      48.949  -1.201  10.263  0.00  0.00    +0.000 C 
ATOM      4  C   UNL     1      48.525  -2.577  10.158  0.00  0.00    +0.000 C 
ATOM      5  C   UNL     1      50.273  -1.352   9.850  0.00  0.00    +0.000 C 
ATOM      6  C   UNL     1      49.687  -3.412   9.653  0.00  0.00    +0.000 C 
ATOM      7  C   UNL     1      48.351  -0.205  11.058  0.00  0.00    +0.000 C 
ATOM      8  C   UNL     1      47.727   0.792  11.862  0.00  0.00    +0.000 C 
ATOM      9  C   UNL     1      47.100   0.430  13.052  0.00  0.00    +0.000 C 
ATOM     10  C   UNL     1      46.486   1.413  13.823  0.00  0.00    +0.000 C 
ATOM     11  C   UNL     1      46.490   2.744  13.420  0.00  0.00    +0.000 C 
ATOM     12  C   UNL     1      47.118   3.100  12.229  0.00  0.00    +0.000 C 
ATOM     13  C   UNL     1      47.737   2.124  11.449  0.00  0.00    +0.000 C 
ATOM     14  C   UNL     1      47.264  -3.084  10.541  0.00  0.00    +0.000 C 
ATOM     15  C   UNL     1      45.991  -3.589  10.935  0.00  0.00    +0.000 C 
ATOM     16  C   UNL     1      44.843  -2.840  10.692  0.00  0.00    +0.000 C 
ATOM     17  C   UNL     1      43.607  -3.339  11.092  0.00  0.00    +0.000 C 
ATOM     18  C   UNL     1      43.506  -4.572  11.728  0.00  0.00    +0.000 C 
ATOM     19  C   UNL     1      44.658  -5.317  11.967  0.00  0.00    +0.000 C 
ATOM     20  C   UNL     1      45.902  -4.827  11.572  0.00  0.00    +0.000 C 
ENDROOT
BRANCH  10  21
ATOM     21  O   UNL     1      45.863   1.092  14.994  0.00  0.00    +0.000 OA
ATOM     22  H   UNL     1      46.400   0.426  15.458  0.00  0.00    +0.000 HD
ENDBRANCH  10  21
BRANCH  17  23
ATOM     23  O   UNL     1      42.463  -2.630  10.871  0.00  0.00    +0.000 OA
ATOM     24  H   UNL     1      41.701  -3.217  11.021  0.00  0.00    +0.000 HD
ENDBRANCH  17  23
TORSDOF 2
ENDMDL
MODEL 5
REMARK VINA RESULT:      -5.9     37.636     40.296
REMARK  Name = Enterolactone.pdbqt.pdb
REMARK  2 active torsions:
REMARK  status: ('A' for Active; 'I' for Inactive)
REMARK    1  A    between atoms: C_10  and  O_14
REMARK    2  A    between atoms: C_19  and  O_23
REMARK                            x       y       z     vdW  Elec       q    Type
REMARK                         _______ _______ _______ _____ _____    ______ ____
ROOT
ATOM      1  O   UNL     1      11.812   3.047  30.858  0.00  0.00    +0.000 OA
ATOM      2  O   UNL     1      10.189   3.768  32.368  0.00  0.00    +0.000 OA
ATOM      3  C   UNL     1      11.978   4.991  29.512  0.00  0.00    +0.000 C 
ATOM      4  C   UNL     1      11.007   5.207  30.558  0.00  0.00    +0.000 C 
ATOM      5  C   UNL     1      12.360   3.690  29.838  0.00  0.00    +0.000 C 
ATOM      6  C   UNL     1      10.907   3.951  31.402  0.00  0.00    +0.000 C 
ATOM      7  C   UNL     1      12.664   5.990  28.796  0.00  0.00    +0.000 C 
ATOM      8  C   UNL     1      13.344   7.015  28.075  0.00  0.00    +0.000 C 
ATOM      9  C   UNL     1      13.628   8.227  28.698  0.00  0.00    +0.000 C 
ATOM     10  C   UNL     1      14.283   9.224  27.981  0.00  0.00    +0.000 C 
ATOM     11  C   UNL     1      14.655   9.023  26.655  0.00  0.00    +0.000 C 
ATOM     12  C   UNL     1      14.368   7.808  26.038  0.00  0.00    +0.000 C 
ATOM     13  C   UNL     1      13.713   6.803  26.748  0.00  0.00    +0.000 C 
ATOM     14  C   UNL     1      10.321   6.416  30.813  0.00  0.00    +0.000 C 
ATOM     15  C   UNL     1       9.638   7.641  31.066  0.00  0.00    +0.000 C 
ATOM     16  C   UNL     1       9.198   8.422  30.001  0.00  0.00    +0.000 C 
ATOM     17  C   UNL     1       8.542   9.621  30.262  0.00  0.00    +0.000 C 
ATOM     18  C   UNL     1       8.322  10.046  31.568  0.00  0.00    +0.000 C 
ATOM     19  C   UNL     1       8.764   9.259  32.629  0.00  0.00    +0.000 C 
ATOM     20  C   UNL     1       9.423   8.056  32.380  0.00  0.00    +0.000 C 
ENDROOT
BRANCH  10  21
ATOM     21  O   UNL     1      14.576  10.423  28.561  0.00  0.00    +0.000 OA
ATOM     22  H   UNL     1      13.905  10.612  29.240  0.00  0.00    +0.000 HD
ENDBRANCH  10  21
BRANCH  17  23
ATOM     23  O   UNL     1       8.100  10.411  29.242  0.00  0.00    +0.000 OA
ATOM     24  H   UNL     1       7.826   9.837  28.503  0.00  0.00    +0.000 HD
ENDBRANCH  17  23
TORSDOF 2
ENDMDL
MODEL 6
REMARK VINA RESULT:      -5.6     16.199     20.067
REMARK  Name = Enterolactone.pdbqt.pdb
REMARK  2 active torsions:
REMARK  status: ('A' for Active; 'I' for Inactive)
REMARK    1  A    between atoms: C_10  and  O_14
REMARK    2  A    between atoms: C_19  and  O_23
REMARK                            x       y       z     vdW  Elec       q    Type
REMARK                         _______ _______ _______ _____ _____    ______ ____
ROOT
ATOM      1  O   UNL     1      25.104  -9.328  16.276  0.00  0.00    +0.000 OA
ATOM      2  O   UNL     1      23.548  -8.100  17.503  0.00  0.00    +0.000 OA
ATOM      3  C   UNL     1      26.007  -7.588  14.945  0.00  0.00    +0.000 C 
ATOM      4  C   UNL     1      24.995  -7.051  15.822  0.00  0.00    +0.000 C 
ATOM      5  C   UNL     1      25.953  -8.923  15.346  0.00  0.00    +0.000 C 
ATOM      6  C   UNL     1      24.421  -8.179  16.659  0.00  0.00    +0.000 C 
ATOM      7  C   UNL     1      27.045  -6.862  14.331  0.00  0.00    +0.000 C 
ATOM      8  C   UNL     1      28.085  -6.109  13.711  0.00  0.00    +0.000 C 
ATOM      9  C   UNL     1      28.606  -4.988  14.354  0.00  0.00    +0.000 C 
ATOM     10  C   UNL     1      29.613  -4.256  13.733  0.00  0.00    +0.000 C 
ATOM     11  C   UNL     1      30.103  -4.629  12.486  0.00  0.00    +0.000 C 
ATOM     12  C   UNL     1      29.578  -5.750  11.849  0.00  0.00    +0.000 C 
ATOM     13  C   UNL     1      28.569  -6.491  12.461  0.00  0.00    +0.000 C 
ATOM     14  C   UNL     1      24.649  -5.687  15.949  0.00  0.00    +0.000 C 
ATOM     15  C   UNL     1      24.311  -4.308  16.074  0.00  0.00    +0.000 C 
ATOM     16  C   UNL     1      24.270  -3.499  14.942  0.00  0.00    +0.000 C 
ATOM     17  C   UNL     1      23.949  -2.152  15.080  0.00  0.00    +0.000 C 
ATOM     18  C   UNL     1      23.669  -1.608  16.329  0.00  0.00    +0.000 C 
ATOM     19  C   UNL     1      23.710  -2.423  17.457  0.00  0.00    +0.000 C 
ATOM     20  C   UNL     1      24.031  -3.774  17.332  0.00  0.00    +0.000 C 
ENDROOT
BRANCH  10  21
ATOM     21  O   UNL     1      30.145  -3.153  14.335  0.00  0.00    +0.000 OA
ATOM     22  H   UNL     1      29.434  -2.504  14.477  0.00  0.00    +0.000 HD
ENDBRANCH  10  21
BRANCH  17  23
ATOM     23  O   UNL     1      23.902  -1.331  13.992  0.00  0.00    +0.000 OA
ATOM     24  H   UNL     1      24.813  -1.082  13.753  0.00  0.00    +0.000 HD
ENDBRANCH  17  23
TORSDOF 2
ENDMDL
MODEL 7
REMARK VINA RESULT:      -5.4     36.800     39.352
REMARK  Name = Enterolactone.pdbqt.pdb
REMARK  2 active torsions:
REMARK  status: ('A' for Active; 'I' for Inactive)
REMARK    1  A    between atoms: C_10  and  O_14
REMARK    2  A    between atoms: C_19  and  O_23
REMARK                            x       y       z     vdW  Elec       q    Type
REMARK                         _______ _______ _______ _____ _____    ______ ____
ROOT
ATOM      1  O   UNL     1      15.176   3.077  31.768  0.00  0.00    +0.000 OA
ATOM      2  O   UNL     1      14.245   3.543  33.854  0.00  0.00    +0.000 OA
ATOM      3  C   UNL     1      14.158   4.801  30.497  0.00  0.00    +0.000 C 
ATOM      4  C   UNL     1      13.727   4.892  31.872  0.00  0.00    +0.000 C 
ATOM      5  C   UNL     1      15.007   3.699  30.612  0.00  0.00    +0.000 C 
ATOM      6  C   UNL     1      14.379   3.777  32.667  0.00  0.00    +0.000 C 
ATOM      7  C   UNL     1      14.136   5.840  29.548  0.00  0.00    +0.000 C 
ATOM      8  C   UNL     1      14.099   6.901  28.598  0.00  0.00    +0.000 C 
ATOM      9  C   UNL     1      14.257   8.218  29.024  0.00  0.00    +0.000 C 
ATOM     10  C   UNL     1      14.208   9.246  28.088  0.00  0.00    +0.000 C 
ATOM     11  C   UNL     1      14.004   8.975  26.739  0.00  0.00    +0.000 C 
ATOM     12  C   UNL     1      13.847   7.657  26.319  0.00  0.00    +0.000 C 
ATOM     13  C   UNL     1      13.894   6.619  27.249  0.00  0.00    +0.000 C 
ATOM     14  C   UNL     1      12.901   5.903  32.413  0.00  0.00    +0.000 C 
ATOM     15  C   UNL     1      12.072   6.928  32.952  0.00  0.00    +0.000 C 
ATOM     16  C   UNL     1      11.003   7.419  32.207  0.00  0.00    +0.000 C 
ATOM     17  C   UNL     1      10.208   8.428  32.741  0.00  0.00    +0.000 C 
ATOM     18  C   UNL     1      10.467   8.950  34.003  0.00  0.00    +0.000 C 
ATOM     19  C   UNL     1      11.537   8.455  34.744  0.00  0.00    +0.000 C 
ATOM     20  C   UNL     1      12.341   7.444  34.220  0.00  0.00    +0.000 C 
ENDROOT
BRANCH  10  21
ATOM     21  O   UNL     1      14.360  10.547  28.472  0.00  0.00    +0.000 OA
ATOM     22  H   UNL     1      13.485  10.907  28.698  0.00  0.00    +0.000 HD
ENDBRANCH  10  21
BRANCH  17  23
ATOM     23  O   UNL     1       9.154   8.932  32.036  0.00  0.00    +0.000 OA
ATOM     24  H   UNL     1       9.257   9.899  31.975  0.00  0.00    +0.000 HD
ENDBRANCH  17  23
TORSDOF 2
ENDMDL
MODEL 8
REMARK VINA RESULT:      -5.3     14.204     16.649
REMARK  Name = Enterolactone.pdbqt.pdb
REMARK  2 active torsions:
REMARK  status: ('A' for Active; 'I' for Inactive)
REMARK    1  A    between atoms: C_10  and  O_14
REMARK    2  A    between atoms: C_19  and  O_23
REMARK                            x       y       z     vdW  Elec       q    Type
REMARK                         _______ _______ _______ _____ _____    ______ ____
ROOT
ATOM      1  O   UNL     1      46.102   9.879  15.615  0.00  0.00    +0.000 OA
ATOM      2  O   UNL     1      45.038   7.886  16.189  0.00  0.00    +0.000 OA
ATOM      3  C   UNL     1      44.271  11.370  15.832  0.00  0.00    +0.000 C 
ATOM      4  C   UNL     1      43.846  10.029  16.156  0.00  0.00    +0.000 C 
ATOM      5  C   UNL     1      45.613  11.107  15.551  0.00  0.00    +0.000 C 
ATOM      6  C   UNL     1      45.026   9.088  16.003  0.00  0.00    +0.000 C 
ATOM      7  C   UNL     1      43.641  12.562  16.234  0.00  0.00    +0.000 C 
ATOM      8  C   UNL     1      42.985  13.759  16.643  0.00  0.00    +0.000 C 
ATOM      9  C   UNL     1      42.301  13.794  17.856  0.00  0.00    +0.000 C 
ATOM     10  C   UNL     1      41.655  14.965  18.239  0.00  0.00    +0.000 C 
ATOM     11  C   UNL     1      41.685  16.096  17.429  0.00  0.00    +0.000 C 
ATOM     12  C   UNL     1      42.371  16.055  16.218  0.00  0.00    +0.000 C 
ATOM     13  C   UNL     1      43.021  14.886  15.824  0.00  0.00    +0.000 C 
ATOM     14  C   UNL     1      42.565   9.659  16.623  0.00  0.00    +0.000 C 
ATOM     15  C   UNL     1      41.272   9.295  17.099  0.00  0.00    +0.000 C 
ATOM     16  C   UNL     1      40.141   9.914  16.574  0.00  0.00    +0.000 C 
ATOM     17  C   UNL     1      38.885   9.557  17.055  0.00  0.00    +0.000 C 
ATOM     18  C   UNL     1      38.747   8.595  18.049  0.00  0.00    +0.000 C 
ATOM     19  C   UNL     1      39.883   7.978  18.569  0.00  0.00    +0.000 C 
ATOM     20  C   UNL     1      41.146   8.328  18.095  0.00  0.00    +0.000 C 
ENDROOT
BRANCH  10  21
ATOM     21  O   UNL     1      40.976  15.033  19.420  0.00  0.00    +0.000 OA
ATOM     22  H   UNL     1      40.995  15.953  19.737  0.00  0.00    +0.000 HD
ENDBRANCH  10  21
BRANCH  17  23
ATOM     23  O   UNL     1      37.757  10.145  16.564  0.00  0.00    +0.000 OA
ATOM     24  H   UNL     1      37.918  11.102  16.480  0.00  0.00    +0.000 HD
ENDBRANCH  17  23
TORSDOF 2
ENDMDL
MODEL 9
REMARK VINA RESULT:      -5.2     30.111     32.285
REMARK  Name = Enterolactone.pdbqt.pdb
REMARK  2 active torsions:
REMARK  status: ('A' for Active; 'I' for Inactive)
REMARK    1  A    between atoms: C_10  and  O_14
REMARK    2  A    between atoms: C_19  and  O_23
REMARK                            x       y       z     vdW  Elec       q    Type
REMARK                         _______ _______ _______ _____ _____    ______ ____
ROOT
ATOM      1  O   UNL     1      15.918   0.528   3.551  0.00  0.00    +0.000 OA
ATOM      2  O   UNL     1      15.084   1.115   1.455  0.00  0.00    +0.000 OA
ATOM      3  C   UNL     1      15.917   2.664   4.579  0.00  0.00    +0.000 C 
ATOM      4  C   UNL     1      15.416   2.775   3.231  0.00  0.00    +0.000 C 
ATOM      5  C   UNL     1      16.152   1.289   4.609  0.00  0.00    +0.000 C 
ATOM      6  C   UNL     1      15.433   1.402   2.586  0.00  0.00    +0.000 C 
ATOM      7  C   UNL     1      15.685   3.572   5.630  0.00  0.00    +0.000 C 
ATOM      8  C   UNL     1      15.447   4.506   6.679  0.00  0.00    +0.000 C 
ATOM      9  C   UNL     1      14.254   5.224   6.709  0.00  0.00    +0.000 C 
ATOM     10  C   UNL     1      14.038   6.141   7.734  0.00  0.00    +0.000 C 
ATOM     11  C   UNL     1      14.994   6.347   8.722  0.00  0.00    +0.000 C 
ATOM     12  C   UNL     1      16.185   5.625   8.687  0.00  0.00    +0.000 C 
ATOM     13  C   UNL     1      16.412   4.705   7.666  0.00  0.00    +0.000 C 
ATOM     14  C   UNL     1      14.909   3.950   2.631  0.00  0.00    +0.000 C 
ATOM     15  C   UNL     1      14.395   5.138   2.036  0.00  0.00    +0.000 C 
ATOM     16  C   UNL     1      15.006   6.362   2.294  0.00  0.00    +0.000 C 
ATOM     17  C   UNL     1      14.487   7.516   1.715  0.00  0.00    +0.000 C 
ATOM     18  C   UNL     1      13.372   7.462   0.886  0.00  0.00    +0.000 C 
ATOM     19  C   UNL     1      12.766   6.233   0.631  0.00  0.00    +0.000 C 
ATOM     20  C   UNL     1      13.276   5.070   1.206  0.00  0.00    +0.000 C 
ENDROOT
BRANCH  10  21
ATOM     21  O   UNL     1      12.880   6.861   7.792  0.00  0.00    +0.000 OA
ATOM     22  H   UNL     1      13.082   7.791   7.590  0.00  0.00    +0.000 HD
ENDBRANCH  10  21
BRANCH  17  23
ATOM     23  O   UNL     1      15.060   8.732   1.948  0.00  0.00    +0.000 OA
ATOM     24  H   UNL     1      15.743   8.625   2.634  0.00  0.00    +0.000 HD
ENDBRANCH  17  23
TORSDOF 2
ENDMDL
