MODEL 1
REMARK VINA RESULT:      -6.9      0.000      0.000
REMARK  Name = 
REMARK  12 active torsions:
REMARK  status: ('A' for Active; 'I' for Inactive)
REMARK    1  A    between atoms: O_2  and  C_12
REMARK    2  A    between atoms: O_2  and  C_24
REMARK    3  A    between atoms: O_3  and  C_18
REMARK    4  A    between atoms: O_4  and  C_23
REMARK    5  A    between atoms: O_5  and  C_25
REMARK    6  A    between atoms: O_6  and  C_26
REMARK    7  A    between atoms: O_8  and  C_27
REMARK    8  A    between atoms: O_9  and  C_31
REMARK    9  A    between atoms: O_10  and  C_32
REMARK   10  A    between atoms: O_11  and  C_33
REMARK   11  A    between atoms: C_13  and  C_16
REMARK   12  A    between atoms: C_24  and  C_28
REMARK                            x       y       z     vdW  Elec       q    Type
REMARK                         _______ _______ _______ _____ _____    ______ ____
ROOT
ATOM      1  O   UNL     1      24.621  24.502   3.136  0.00  0.00    +0.000 OA
ATOM      2  C   UNL     1      22.505  25.123   2.020  0.00  0.00    +0.000 C 
ATOM      3  C   UNL     1      23.194  24.328   3.144  0.00  0.00    +0.000 C 
ATOM      4  C   UNL     1      22.772  26.610   2.248  0.00  0.00    +0.000 C 
ATOM      5  C   UNL     1      24.209  26.857   2.633  0.00  0.00    +0.000 A 
ATOM      6  C   UNL     1      25.034  25.805   3.053  0.00  0.00    +0.000 A 
ATOM      7  C   UNL     1      24.743  28.151   2.601  0.00  0.00    +0.000 A 
ATOM      8  C   UNL     1      26.370  26.035   3.387  0.00  0.00    +0.000 A 
ATOM      9  C   UNL     1      26.071  28.394   2.943  0.00  0.00    +0.000 A 
ATOM     10  C   UNL     1      26.876  27.330   3.330  0.00  0.00    +0.000 A 
ENDROOT
BRANCH   3  11
ATOM     11  C   UNL     1      22.877  22.841   3.056  0.00  0.00    +0.000 A 
ATOM     12  C   UNL     1      23.912  21.919   2.803  0.00  0.00    +0.000 A 
ATOM     13  C   UNL     1      21.569  22.362   3.257  0.00  0.00    +0.000 A 
ATOM     14  C   UNL     1      21.314  20.995   3.201  0.00  0.00    +0.000 A 
ATOM     15  C   UNL     1      23.640  20.551   2.746  0.00  0.00    +0.000 A 
ATOM     16  C   UNL     1      22.343  20.091   2.945  0.00  0.00    +0.000 A 
BRANCH  14  17
ATOM     17  O   UNL     1      20.057  20.490   3.396  0.00  0.00    +0.000 OA
ATOM     18  H   UNL     1      19.519  20.696   2.613  0.00  0.00    +0.000 HD
ENDBRANCH  14  17
BRANCH  15  19
ATOM     19  O   UNL     1      24.641  19.655   2.499  0.00  0.00    +0.000 OA
ATOM     20  H   UNL     1      24.307  18.753   2.617  0.00  0.00    +0.000 HD
ENDBRANCH  15  19
BRANCH  16  21
ATOM     21  O   UNL     1      22.056  18.755   2.897  0.00  0.00    +0.000 OA
ATOM     22  H   UNL     1      21.157  18.708   2.521  0.00  0.00    +0.000 HD
ENDBRANCH  16  21
ENDBRANCH   3  11
BRANCH   7  23
ATOM     23  O   UNL     1      23.932  29.184   2.222  0.00  0.00    +0.000 OA
ATOM     24  H   UNL     1      23.975  29.279   1.256  0.00  0.00    +0.000 HD
ENDBRANCH   7  23
BRANCH  10  25
ATOM     25  O   UNL     1      28.172  27.601   3.655  0.00  0.00    +0.000 OA
ATOM     26  H   UNL     1      28.715  26.819   3.458  0.00  0.00    +0.000 HD
ENDBRANCH  10  25
BRANCH   2  27
ATOM     27  O   UNL     1      23.062  24.736   0.739  0.00  0.00    +0.000 OA
BRANCH  27  29
ATOM     28  O   UNL     1      21.484  25.193  -0.864  0.00  0.00    +0.000 OA
ATOM     29  C   UNL     1      22.176  24.414  -0.230  0.00  0.00    +0.000 C 
BRANCH  29  30
ATOM     30  C   UNL     1      22.129  22.940  -0.398  0.00  0.00    +0.000 A 
ATOM     31  C   UNL     1      20.879  22.307  -0.312  0.00  0.00    +0.000 A 
ATOM     32  C   UNL     1      23.289  22.186  -0.645  0.00  0.00    +0.000 A 
ATOM     33  C   UNL     1      23.196  20.803  -0.791  0.00  0.00    +0.000 A 
ATOM     34  C   UNL     1      20.806  20.927  -0.457  0.00  0.00    +0.000 A 
ATOM     35  C   UNL     1      21.957  20.176  -0.691  0.00  0.00    +0.000 A 
BRANCH  33  36
ATOM     36  O   UNL     1      24.314  20.055  -1.030  0.00  0.00    +0.000 OA
ATOM     37  H   UNL     1      24.918  20.546  -1.605  0.00  0.00    +0.000 HD
ENDBRANCH  33  36
BRANCH  34  38
ATOM     38  O   UNL     1      19.615  20.258  -0.376  0.00  0.00    +0.000 OA
ATOM     39  H   UNL     1      19.241  20.179  -1.272  0.00  0.00    +0.000 HD
ENDBRANCH  34  38
BRANCH  35  40
ATOM     40  O   UNL     1      21.848  18.819  -0.828  0.00  0.00    +0.000 OA
ATOM     41  H   UNL     1      21.748  18.480   0.082  0.00  0.00    +0.000 HD
ENDBRANCH  35  40
ENDBRANCH  29  30
ENDBRANCH  27  29
ENDBRANCH   2  27
TORSDOF 12
ENDMDL
MODEL 2
REMARK VINA RESULT:      -6.8     29.206     31.669
REMARK  Name = 
REMARK  12 active torsions:
REMARK  status: ('A' for Active; 'I' for Inactive)
REMARK    1  A    between atoms: O_2  and  C_12
REMARK    2  A    between atoms: O_2  and  C_24
REMARK    3  A    between atoms: O_3  and  C_18
REMARK    4  A    between atoms: O_4  and  C_23
REMARK    5  A    between atoms: O_5  and  C_25
REMARK    6  A    between atoms: O_6  and  C_26
REMARK    7  A    between atoms: O_8  and  C_27
REMARK    8  A    between atoms: O_9  and  C_31
REMARK    9  A    between atoms: O_10  and  C_32
REMARK   10  A    between atoms: O_11  and  C_33
REMARK   11  A    between atoms: C_13  and  C_16
REMARK   12  A    between atoms: C_24  and  C_28
REMARK                            x       y       z     vdW  Elec       q    Type
REMARK                         _______ _______ _______ _____ _____    ______ ____
ROOT
ATOM      1  O   UNL     1      21.625  16.104  31.283  0.00  0.00    +0.000 OA
ATOM      2  C   UNL     1      21.819  17.143  33.517  0.00  0.00    +0.000 C 
ATOM      3  C   UNL     1      21.089  17.108  32.163  0.00  0.00    +0.000 C 
ATOM      4  C   UNL     1      21.619  15.795  34.208  0.00  0.00    +0.000 C 
ATOM      5  C   UNL     1      21.790  14.651  33.241  0.00  0.00    +0.000 A 
ATOM      6  C   UNL     1      21.777  14.870  31.857  0.00  0.00    +0.000 A 
ATOM      7  C   UNL     1      21.942  13.340  33.708  0.00  0.00    +0.000 A 
ATOM      8  C   UNL     1      21.959  13.811  30.965  0.00  0.00    +0.000 A 
ATOM      9  C   UNL     1      22.112  12.274  32.826  0.00  0.00    +0.000 A 
ATOM     10  C   UNL     1      22.123  12.521  31.459  0.00  0.00    +0.000 A 
ENDROOT
BRANCH   3  11
ATOM     11  C   UNL     1      21.142  18.458  31.461  0.00  0.00    +0.000 A 
ATOM     12  C   UNL     1      20.331  19.516  31.916  0.00  0.00    +0.000 A 
ATOM     13  C   UNL     1      22.017  18.684  30.381  0.00  0.00    +0.000 A 
ATOM     14  C   UNL     1      22.066  19.937  29.779  0.00  0.00    +0.000 A 
ATOM     15  C   UNL     1      20.389  20.767  31.299  0.00  0.00    +0.000 A 
ATOM     16  C   UNL     1      21.256  20.976  30.233  0.00  0.00    +0.000 A 
BRANCH  14  17
ATOM     17  O   UNL     1      22.907  20.198  28.731  0.00  0.00    +0.000 OA
ATOM     18  H   UNL     1      22.492  20.871  28.165  0.00  0.00    +0.000 HD
ENDBRANCH  14  17
BRANCH  15  19
ATOM     19  O   UNL     1      19.601  21.793  31.737  0.00  0.00    +0.000 OA
ATOM     20  H   UNL     1      20.093  22.626  31.686  0.00  0.00    +0.000 HD
ENDBRANCH  15  19
BRANCH  16  21
ATOM     21  O   UNL     1      21.331  22.195  29.617  0.00  0.00    +0.000 OA
ATOM     22  H   UNL     1      22.224  22.526  29.831  0.00  0.00    +0.000 HD
ENDBRANCH  16  21
ENDBRANCH   3  11
BRANCH   7  23
ATOM     23  O   UNL     1      21.923  13.120  35.056  0.00  0.00    +0.000 OA
ATOM     24  H   UNL     1      22.352  13.869  35.502  0.00  0.00    +0.000 HD
ENDBRANCH   7  23
BRANCH  10  25
ATOM     25  O   UNL     1      22.295  11.457  30.625  0.00  0.00    +0.000 OA
ATOM     26  H   UNL     1      22.997  11.668  29.987  0.00  0.00    +0.000 HD
ENDBRANCH  10  25
BRANCH   2  27
ATOM     27  O   UNL     1      23.237  17.354  33.300  0.00  0.00    +0.000 OA
BRANCH  27  29
ATOM     28  O   UNL     1      24.028  18.281  35.246  0.00  0.00    +0.000 OA
ATOM     29  C   UNL     1      23.823  18.318  34.044  0.00  0.00    +0.000 C 
BRANCH  29  30
ATOM     30  C   UNL     1      24.160  19.481  33.184  0.00  0.00    +0.000 A 
ATOM     31  C   UNL     1      23.457  20.678  33.391  0.00  0.00    +0.000 A 
ATOM     32  C   UNL     1      25.157  19.405  32.195  0.00  0.00    +0.000 A 
ATOM     33  C   UNL     1      25.435  20.522  31.409  0.00  0.00    +0.000 A 
ATOM     34  C   UNL     1      23.746  21.780  32.595  0.00  0.00    +0.000 A 
ATOM     35  C   UNL     1      24.726  21.703  31.605  0.00  0.00    +0.000 A 
BRANCH  33  36
ATOM     36  O   UNL     1      26.398  20.465  30.442  0.00  0.00    +0.000 OA
ATOM     37  H   UNL     1      25.997  20.616  29.573  0.00  0.00    +0.000 HD
ENDBRANCH  33  36
BRANCH  34  38
ATOM     38  O   UNL     1      23.088  22.970  32.748  0.00  0.00    +0.000 OA
ATOM     39  H   UNL     1      23.632  23.679  32.361  0.00  0.00    +0.000 HD
ENDBRANCH  34  38
BRANCH  35  40
ATOM     40  O   UNL     1      24.984  22.808  30.840  0.00  0.00    +0.000 OA
ATOM     41  H   UNL     1      25.842  22.625  30.412  0.00  0.00    +0.000 HD
ENDBRANCH  35  40
ENDBRANCH  29  30
ENDBRANCH  27  29
ENDBRANCH   2  27
TORSDOF 12
ENDMDL
MODEL 3
REMARK VINA RESULT:      -6.7      2.134      6.808
REMARK  Name = 
REMARK  12 active torsions:
REMARK  status: ('A' for Active; 'I' for Inactive)
REMARK    1  A    between atoms: O_2  and  C_12
REMARK    2  A    between atoms: O_2  and  C_24
REMARK    3  A    between atoms: O_3  and  C_18
REMARK    4  A    between atoms: O_4  and  C_23
REMARK    5  A    between atoms: O_5  and  C_25
REMARK    6  A    between atoms: O_6  and  C_26
REMARK    7  A    between atoms: O_8  and  C_27
REMARK    8  A    between atoms: O_9  and  C_31
REMARK    9  A    between atoms: O_10  and  C_32
REMARK   10  A    between atoms: O_11  and  C_33
REMARK   11  A    between atoms: C_13  and  C_16
REMARK   12  A    between atoms: C_24  and  C_28
REMARK                            x       y       z     vdW  Elec       q    Type
REMARK                         _______ _______ _______ _____ _____    ______ ____
ROOT
ATOM      1  O   UNL     1      21.353  22.057   3.211  0.00  0.00    +0.000 OA
ATOM      2  C   UNL     1      23.325  21.064   2.101  0.00  0.00    +0.000 C 
ATOM      3  C   UNL     1      22.788  22.076   3.128  0.00  0.00    +0.000 C 
ATOM      4  C   UNL     1      22.925  19.660   2.553  0.00  0.00    +0.000 C 
ATOM      5  C   UNL     1      21.497  19.624   3.035  0.00  0.00    +0.000 A 
ATOM      6  C   UNL     1      20.808  20.806   3.336  0.00  0.00    +0.000 A 
ATOM      7  C   UNL     1      20.836  18.403   3.215  0.00  0.00    +0.000 A 
ATOM      8  C   UNL     1      19.479  20.769   3.761  0.00  0.00    +0.000 A 
ATOM      9  C   UNL     1      19.514  18.354   3.650  0.00  0.00    +0.000 A 
ATOM     10  C   UNL     1      18.844  19.542   3.915  0.00  0.00    +0.000 A 
ENDROOT
BRANCH   3  11
ATOM     11  C   UNL     1      23.245  23.494   2.812  0.00  0.00    +0.000 A 
ATOM     12  C   UNL     1      24.618  23.810   2.844  0.00  0.00    +0.000 A 
ATOM     13  C   UNL     1      22.322  24.493   2.451  0.00  0.00    +0.000 A 
ATOM     14  C   UNL     1      22.772  25.772   2.137  0.00  0.00    +0.000 A 
ATOM     15  C   UNL     1      25.054  25.099   2.530  0.00  0.00    +0.000 A 
ATOM     16  C   UNL     1      24.131  26.077   2.177  0.00  0.00    +0.000 A 
BRANCH  14  17
ATOM     17  O   UNL     1      21.906  26.769   1.776  0.00  0.00    +0.000 OA
ATOM     18  H   UNL     1      22.035  26.959   0.831  0.00  0.00    +0.000 HD
ENDBRANCH  14  17
BRANCH  15  19
ATOM     19  O   UNL     1      26.383  25.409   2.563  0.00  0.00    +0.000 OA
ATOM     20  H   UNL     1      26.619  25.737   3.443  0.00  0.00    +0.000 HD
ENDBRANCH  15  19
BRANCH  16  21
ATOM     21  O   UNL     1      24.537  27.344   1.862  0.00  0.00    +0.000 OA
ATOM     22  H   UNL     1      25.045  27.243   1.035  0.00  0.00    +0.000 HD
ENDBRANCH  16  21
ENDBRANCH   3  11
BRANCH   7  23
ATOM     23  O   UNL     1      21.516  17.247   2.952  0.00  0.00    +0.000 OA
ATOM     24  H   UNL     1      22.427  17.337   3.278  0.00  0.00    +0.000 HD
ENDBRANCH   7  23
BRANCH  10  25
ATOM     25  O   UNL     1      17.549  19.459   4.336  0.00  0.00    +0.000 OA
ATOM     26  H   UNL     1      17.053  18.900   3.714  0.00  0.00    +0.000 HD
ENDBRANCH  10  25
BRANCH   2  27
ATOM     27  O   UNL     1      22.732  21.327   0.804  0.00  0.00    +0.000 OA
BRANCH  27  29
ATOM     28  O   UNL     1      23.770  20.170  -0.886  0.00  0.00    +0.000 OA
ATOM     29  C   UNL     1      23.546  21.198  -0.267  0.00  0.00    +0.000 C 
BRANCH  29  30
ATOM     30  C   UNL     1      24.180  22.504  -0.577  0.00  0.00    +0.000 A 
ATOM     31  C   UNL     1      23.345  23.568  -0.954  0.00  0.00    +0.000 A 
ATOM     32  C   UNL     1      25.570  22.691  -0.491  0.00  0.00    +0.000 A 
ATOM     33  C   UNL     1      26.120  23.935  -0.796  0.00  0.00    +0.000 A 
ATOM     34  C   UNL     1      23.911  24.800  -1.258  0.00  0.00    +0.000 A 
ATOM     35  C   UNL     1      25.292  24.984  -1.184  0.00  0.00    +0.000 A 
BRANCH  33  36
ATOM     36  O   UNL     1      27.470  24.133  -0.720  0.00  0.00    +0.000 OA
ATOM     37  H   UNL     1      27.780  23.920   0.173  0.00  0.00    +0.000 HD
ENDBRANCH  33  36
BRANCH  34  38
ATOM     38  O   UNL     1      23.146  25.869  -1.637  0.00  0.00    +0.000 OA
ATOM     39  H   UNL     1      22.678  25.641  -2.460  0.00  0.00    +0.000 HD
ENDBRANCH  34  38
BRANCH  35  40
ATOM     40  O   UNL     1      25.815  26.210  -1.491  0.00  0.00    +0.000 OA
ATOM     41  H   UNL     1      26.107  26.136  -2.420  0.00  0.00    +0.000 HD
ENDBRANCH  35  40
ENDBRANCH  29  30
ENDBRANCH  27  29
ENDBRANCH   2  27
TORSDOF 12
ENDMDL
MODEL 4
REMARK VINA RESULT:      -6.6     28.950     31.340
REMARK  Name = 
REMARK  12 active torsions:
REMARK  status: ('A' for Active; 'I' for Inactive)
REMARK    1  A    between atoms: O_2  and  C_12
REMARK    2  A    between atoms: O_2  and  C_24
REMARK    3  A    between atoms: O_3  and  C_18
REMARK    4  A    between atoms: O_4  and  C_23
REMARK    5  A    between atoms: O_5  and  C_25
REMARK    6  A    between atoms: O_6  and  C_26
REMARK    7  A    between atoms: O_8  and  C_27
REMARK    8  A    between atoms: O_9  and  C_31
REMARK    9  A    between atoms: O_10  and  C_32
REMARK   10  A    between atoms: O_11  and  C_33
REMARK   11  A    between atoms: C_13  and  C_16
REMARK   12  A    between atoms: C_24  and  C_28
REMARK                            x       y       z     vdW  Elec       q    Type
REMARK                         _______ _______ _______ _____ _____    ______ ____
ROOT
ATOM      1  O   UNL     1      22.479  16.175  31.699  0.00  0.00    +0.000 OA
ATOM      2  C   UNL     1      21.154  18.258  31.827  0.00  0.00    +0.000 C 
ATOM      3  C   UNL     1      22.129  17.389  31.012  0.00  0.00    +0.000 C 
ATOM      4  C   UNL     1      19.859  17.472  32.025  0.00  0.00    +0.000 C 
ATOM      5  C   UNL     1      20.138  16.035  32.387  0.00  0.00    +0.000 A 
ATOM      6  C   UNL     1      21.411  15.479  32.200  0.00  0.00    +0.000 A 
ATOM      7  C   UNL     1      19.122  15.218  32.897  0.00  0.00    +0.000 A 
ATOM      8  C   UNL     1      21.671  14.154  32.557  0.00  0.00    +0.000 A 
ATOM      9  C   UNL     1      19.368  13.891  33.245  0.00  0.00    +0.000 A 
ATOM     10  C   UNL     1      20.645  13.372  33.076  0.00  0.00    +0.000 A 
ENDROOT
BRANCH   3  11
ATOM     11  C   UNL     1      23.405  18.148  30.670  0.00  0.00    +0.000 A 
ATOM     12  C   UNL     1      23.399  19.090  29.624  0.00  0.00    +0.000 A 
ATOM     13  C   UNL     1      24.589  17.951  31.406  0.00  0.00    +0.000 A 
ATOM     14  C   UNL     1      25.731  18.680  31.090  0.00  0.00    +0.000 A 
ATOM     15  C   UNL     1      24.554  19.813  29.316  0.00  0.00    +0.000 A 
ATOM     16  C   UNL     1      25.717  19.607  30.050  0.00  0.00    +0.000 A 
BRANCH  14  17
ATOM     17  O   UNL     1      26.899  18.521  31.786  0.00  0.00    +0.000 OA
ATOM     18  H   UNL     1      27.560  18.131  31.188  0.00  0.00    +0.000 HD
ENDBRANCH  14  17
BRANCH  15  19
ATOM     19  O   UNL     1      24.552  20.725  28.301  0.00  0.00    +0.000 OA
ATOM     20  H   UNL     1      24.303  21.596  28.645  0.00  0.00    +0.000 HD
ENDBRANCH  15  19
BRANCH  16  21
ATOM     21  O   UNL     1      26.858  20.306  29.768  0.00  0.00    +0.000 OA
ATOM     22  H   UNL     1      27.508  19.996  30.428  0.00  0.00    +0.000 HD
ENDBRANCH  16  21
ENDBRANCH   3  11
BRANCH   7  23
ATOM     23  O   UNL     1      17.872  15.748  33.051  0.00  0.00    +0.000 OA
ATOM     24  H   UNL     1      17.744  16.446  32.387  0.00  0.00    +0.000 HD
ENDBRANCH   7  23
BRANCH  10  25
ATOM     25  O   UNL     1      20.852  12.072  33.430  0.00  0.00    +0.000 OA
ATOM     26  H   UNL     1      19.992  11.653  33.604  0.00  0.00    +0.000 HD
ENDBRANCH  10  25
BRANCH   2  27
ATOM     27  O   UNL     1      21.730  18.550  33.125  0.00  0.00    +0.000 OA
BRANCH  27  29
ATOM     28  O   UNL     1      20.681  20.048  34.512  0.00  0.00    +0.000 OA
ATOM     29  C   UNL     1      21.482  19.777  33.632  0.00  0.00    +0.000 C 
BRANCH  29  30
ATOM     30  C   UNL     1      22.310  20.789  32.928  0.00  0.00    +0.000 A 
ATOM     31  C   UNL     1      21.676  21.626  31.997  0.00  0.00    +0.000 A 
ATOM     32  C   UNL     1      23.686  20.923  33.182  0.00  0.00    +0.000 A 
ATOM     33  C   UNL     1      24.424  21.884  32.493  0.00  0.00    +0.000 A 
ATOM     34  C   UNL     1      22.428  22.577  31.318  0.00  0.00    +0.000 A 
ATOM     35  C   UNL     1      23.796  22.704  31.559  0.00  0.00    +0.000 A 
BRANCH  33  36
ATOM     36  O   UNL     1      25.762  22.028  32.725  0.00  0.00    +0.000 OA
ATOM     37  H   UNL     1      26.262  21.493  32.090  0.00  0.00    +0.000 HD
ENDBRANCH  33  36
BRANCH  34  38
ATOM     38  O   UNL     1      21.864  23.415  30.396  0.00  0.00    +0.000 OA
ATOM     39  H   UNL     1      20.896  23.386  30.499  0.00  0.00    +0.000 HD
ENDBRANCH  34  38
BRANCH  35  40
ATOM     40  O   UNL     1      24.506  23.651  30.872  0.00  0.00    +0.000 OA
ATOM     41  H   UNL     1      24.905  23.171  30.120  0.00  0.00    +0.000 HD
ENDBRANCH  35  40
ENDBRANCH  29  30
ENDBRANCH  27  29
ENDBRANCH   2  27
TORSDOF 12
ENDMDL
MODEL 5
REMARK VINA RESULT:      -6.4     31.015     33.608
REMARK  Name = 
REMARK  12 active torsions:
REMARK  status: ('A' for Active; 'I' for Inactive)
REMARK    1  A    between atoms: O_2  and  C_12
REMARK    2  A    between atoms: O_2  and  C_24
REMARK    3  A    between atoms: O_3  and  C_18
REMARK    4  A    between atoms: O_4  and  C_23
REMARK    5  A    between atoms: O_5  and  C_25
REMARK    6  A    between atoms: O_6  and  C_26
REMARK    7  A    between atoms: O_8  and  C_27
REMARK    8  A    between atoms: O_9  and  C_31
REMARK    9  A    between atoms: O_10  and  C_32
REMARK   10  A    between atoms: O_11  and  C_33
REMARK   11  A    between atoms: C_13  and  C_16
REMARK   12  A    between atoms: C_24  and  C_28
REMARK                            x       y       z     vdW  Elec       q    Type
REMARK                         _______ _______ _______ _____ _____    ______ ____
ROOT
ATOM      1  O   UNL     1      13.839   5.555  29.761  0.00  0.00    +0.000 OA
ATOM      2  C   UNL     1      13.667   6.049  27.346  0.00  0.00    +0.000 C 
ATOM      3  C   UNL     1      13.107   5.278  28.554  0.00  0.00    +0.000 C 
ATOM      4  C   UNL     1      13.521   7.545  27.619  0.00  0.00    +0.000 C 
ATOM      5  C   UNL     1      13.917   7.886  29.033  0.00  0.00    +0.000 A 
ATOM      6  C   UNL     1      14.045   6.887  30.006  0.00  0.00    +0.000 A 
ATOM      7  C   UNL     1      14.142   9.216  29.409  0.00  0.00    +0.000 A 
ATOM      8  C   UNL     1      14.433   7.204  31.309  0.00  0.00    +0.000 A 
ATOM      9  C   UNL     1      14.518   9.545  30.710  0.00  0.00    +0.000 A 
ATOM     10  C   UNL     1      14.665   8.533  31.649  0.00  0.00    +0.000 A 
ENDROOT
BRANCH   3  11
ATOM     11  C   UNL     1      13.108   3.775  28.311  0.00  0.00    +0.000 A 
ATOM     12  C   UNL     1      12.453   3.249  27.180  0.00  0.00    +0.000 A 
ATOM     13  C   UNL     1      13.784   2.896  29.179  0.00  0.00    +0.000 A 
ATOM     14  C   UNL     1      13.793   1.531  28.914  0.00  0.00    +0.000 A 
ATOM     15  C   UNL     1      12.468   1.875  26.929  0.00  0.00    +0.000 A 
ATOM     16  C   UNL     1      13.138   1.019  27.796  0.00  0.00    +0.000 A 
BRANCH  14  17
ATOM     17  O   UNL     1      14.443   0.645  29.731  0.00  0.00    +0.000 OA
ATOM     18  H   UNL     1      14.074  -0.241  29.578  0.00  0.00    +0.000 HD
ENDBRANCH  14  17
BRANCH  15  19
ATOM     19  O   UNL     1      11.832   1.362  25.835  0.00  0.00    +0.000 OA
ATOM     20  H   UNL     1      12.029   0.417  25.758  0.00  0.00    +0.000 HD
ENDBRANCH  15  19
BRANCH  16  21
ATOM     21  O   UNL     1      13.169  -0.329  27.567  0.00  0.00    +0.000 OA
ATOM     22  H   UNL     1      14.039  -0.617  27.903  0.00  0.00    +0.000 HD
ENDBRANCH  16  21
ENDBRANCH   3  11
BRANCH   7  23
ATOM     23  O   UNL     1      13.987  10.196  28.470  0.00  0.00    +0.000 OA
ATOM     24  H   UNL     1      13.387  10.875  28.821  0.00  0.00    +0.000 HD
ENDBRANCH   7  23
BRANCH  10  25
ATOM     25  O   UNL     1      15.038   8.889  32.911  0.00  0.00    +0.000 OA
ATOM     26  H   UNL     1      15.810   8.358  33.172  0.00  0.00    +0.000 HD
ENDBRANCH  10  25
BRANCH   2  27
ATOM     27  O   UNL     1      15.072   5.736  27.177  0.00  0.00    +0.000 OA
BRANCH  27  29
ATOM     28  O   UNL     1      15.481   6.125  24.952  0.00  0.00    +0.000 OA
ATOM     29  C   UNL     1      15.468   5.397  25.930  0.00  0.00    +0.000 C 
BRANCH  29  30
ATOM     30  C   UNL     1      15.861   3.965  25.900  0.00  0.00    +0.000 A 
ATOM     31  C   UNL     1      16.642   3.475  26.958  0.00  0.00    +0.000 A 
ATOM     32  C   UNL     1      15.463   3.111  24.857  0.00  0.00    +0.000 A 
ATOM     33  C   UNL     1      15.860   1.775  24.870  0.00  0.00    +0.000 A 
ATOM     34  C   UNL     1      17.031   2.141  26.952  0.00  0.00    +0.000 A 
ATOM     35  C   UNL     1      16.647   1.294  25.912  0.00  0.00    +0.000 A 
BRANCH  33  36
ATOM     36  O   UNL     1      15.484   0.931  23.864  0.00  0.00    +0.000 OA
ATOM     37  H   UNL     1      14.784   1.344  23.336  0.00  0.00    +0.000 HD
ENDBRANCH  33  36
BRANCH  34  38
ATOM     38  O   UNL     1      17.798   1.611  27.954  0.00  0.00    +0.000 OA
ATOM     39  H   UNL     1      18.221   2.341  28.441  0.00  0.00    +0.000 HD
ENDBRANCH  34  38
BRANCH  35  40
ATOM     40  O   UNL     1      17.049  -0.013  25.939  0.00  0.00    +0.000 OA
ATOM     41  H   UNL     1      17.749  -0.049  26.619  0.00  0.00    +0.000 HD
ENDBRANCH  35  40
ENDBRANCH  29  30
ENDBRANCH  27  29
ENDBRANCH   2  27
TORSDOF 12
ENDMDL
MODEL 6
REMARK VINA RESULT:      -6.4      2.155      4.320
REMARK  Name = 
REMARK  12 active torsions:
REMARK  status: ('A' for Active; 'I' for Inactive)
REMARK    1  A    between atoms: O_2  and  C_12
REMARK    2  A    between atoms: O_2  and  C_24
REMARK    3  A    between atoms: O_3  and  C_18
REMARK    4  A    between atoms: O_4  and  C_23
REMARK    5  A    between atoms: O_5  and  C_25
REMARK    6  A    between atoms: O_6  and  C_26
REMARK    7  A    between atoms: O_8  and  C_27
REMARK    8  A    between atoms: O_9  and  C_31
REMARK    9  A    between atoms: O_10  and  C_32
REMARK   10  A    between atoms: O_11  and  C_33
REMARK   11  A    between atoms: C_13  and  C_16
REMARK   12  A    between atoms: C_24  and  C_28
REMARK                            x       y       z     vdW  Elec       q    Type
REMARK                         _______ _______ _______ _____ _____    ______ ____
ROOT
ATOM      1  O   UNL     1      23.982  23.710  -0.447  0.00  0.00    +0.000 OA
ATOM      2  C   UNL     1      23.946  22.296   1.579  0.00  0.00    +0.000 C 
ATOM      3  C   UNL     1      24.157  22.375   0.057  0.00  0.00    +0.000 C 
ATOM      4  C   UNL     1      25.001  23.167   2.258  0.00  0.00    +0.000 C 
ATOM      5  C   UNL     1      25.167  24.485   1.545  0.00  0.00    +0.000 A 
ATOM      6  C   UNL     1      24.660  24.673   0.252  0.00  0.00    +0.000 A 
ATOM      7  C   UNL     1      25.854  25.543   2.153  0.00  0.00    +0.000 A 
ATOM      8  C   UNL     1      24.796  25.903  -0.396  0.00  0.00    +0.000 A 
ATOM      9  C   UNL     1      26.006  26.770   1.510  0.00  0.00    +0.000 A 
ATOM     10  C   UNL     1      25.470  26.940   0.240  0.00  0.00    +0.000 A 
ENDROOT
BRANCH   3  11
ATOM     11  C   UNL     1      23.216  21.439  -0.690  0.00  0.00    +0.000 A 
ATOM     12  C   UNL     1      22.652  21.845  -1.915  0.00  0.00    +0.000 A 
ATOM     13  C   UNL     1      22.924  20.153  -0.196  0.00  0.00    +0.000 A 
ATOM     14  C   UNL     1      22.085  19.308  -0.915  0.00  0.00    +0.000 A 
ATOM     15  C   UNL     1      21.809  20.987  -2.624  0.00  0.00    +0.000 A 
ATOM     16  C   UNL     1      21.527  19.720  -2.123  0.00  0.00    +0.000 A 
BRANCH  14  17
ATOM     17  O   UNL     1      21.781  18.049  -0.471  0.00  0.00    +0.000 OA
ATOM     18  H   UNL     1      22.600  17.525  -0.454  0.00  0.00    +0.000 HD
ENDBRANCH  14  17
BRANCH  15  19
ATOM     19  O   UNL     1      21.258  21.379  -3.810  0.00  0.00    +0.000 OA
ATOM     20  H   UNL     1      20.489  20.824  -4.011  0.00  0.00    +0.000 HD
ENDBRANCH  15  19
BRANCH  16  21
ATOM     21  O   UNL     1      20.707  18.863  -2.803  0.00  0.00    +0.000 OA
ATOM     22  H   UNL     1      20.663  18.065  -2.242  0.00  0.00    +0.000 HD
ENDBRANCH  16  21
ENDBRANCH   3  11
BRANCH   7  23
ATOM     23  O   UNL     1      26.377  25.352   3.401  0.00  0.00    +0.000 OA
ATOM     24  H   UNL     1      27.025  26.054   3.579  0.00  0.00    +0.000 HD
ENDBRANCH   7  23
BRANCH  10  25
ATOM     25  O   UNL     1      25.633  28.154  -0.359  0.00  0.00    +0.000 OA
ATOM     26  H   UNL     1      24.800  28.652  -0.293  0.00  0.00    +0.000 HD
ENDBRANCH  10  25
BRANCH   2  27
ATOM     27  O   UNL     1      22.630  22.803   1.915  0.00  0.00    +0.000 OA
BRANCH  27  29
ATOM     28  O   UNL     1      22.319  22.881   4.188  0.00  0.00    +0.000 OA
ATOM     29  C   UNL     1      22.108  22.390   3.091  0.00  0.00    +0.000 C 
BRANCH  29  30
ATOM     30  C   UNL     1      21.247  21.202   2.869  0.00  0.00    +0.000 A 
ATOM     31  C   UNL     1      19.920  21.416   2.463  0.00  0.00    +0.000 A 
ATOM     32  C   UNL     1      21.731  19.894   3.046  0.00  0.00    +0.000 A 
ATOM     33  C   UNL     1      20.883  18.809   2.831  0.00  0.00    +0.000 A 
ATOM     34  C   UNL     1      19.089  20.322   2.256  0.00  0.00    +0.000 A 
ATOM     35  C   UNL     1      19.564  19.024   2.442  0.00  0.00    +0.000 A 
BRANCH  33  36
ATOM     36  O   UNL     1      21.337  17.531   3.000  0.00  0.00    +0.000 OA
ATOM     37  H   UNL     1      20.986  16.965   2.297  0.00  0.00    +0.000 HD
ENDBRANCH  33  36
BRANCH  34  38
ATOM     38  O   UNL     1      17.786  20.473   1.865  0.00  0.00    +0.000 OA
ATOM     39  H   UNL     1      17.523  19.690   1.350  0.00  0.00    +0.000 HD
ENDBRANCH  34  38
BRANCH  35  40
ATOM     40  O   UNL     1      18.717  17.971   2.229  0.00  0.00    +0.000 OA
ATOM     41  H   UNL     1      18.699  17.486   3.077  0.00  0.00    +0.000 HD
ENDBRANCH  35  40
ENDBRANCH  29  30
ENDBRANCH  27  29
ENDBRANCH   2  27
TORSDOF 12
ENDMDL
MODEL 7
REMARK VINA RESULT:      -6.3     31.344     33.986
REMARK  Name = 
REMARK  12 active torsions:
REMARK  status: ('A' for Active; 'I' for Inactive)
REMARK    1  A    between atoms: O_2  and  C_12
REMARK    2  A    between atoms: O_2  and  C_24
REMARK    3  A    between atoms: O_3  and  C_18
REMARK    4  A    between atoms: O_4  and  C_23
REMARK    5  A    between atoms: O_5  and  C_25
REMARK    6  A    between atoms: O_6  and  C_26
REMARK    7  A    between atoms: O_8  and  C_27
REMARK    8  A    between atoms: O_9  and  C_31
REMARK    9  A    between atoms: O_10  and  C_32
REMARK   10  A    between atoms: O_11  and  C_33
REMARK   11  A    between atoms: C_13  and  C_16
REMARK   12  A    between atoms: C_24  and  C_28
REMARK                            x       y       z     vdW  Elec       q    Type
REMARK                         _______ _______ _______ _____ _____    ______ ____
ROOT
ATOM      1  O   UNL     1      14.721   4.718  30.192  0.00  0.00    +0.000 OA
ATOM      2  C   UNL     1      13.884   4.927  27.876  0.00  0.00    +0.000 C 
ATOM      3  C   UNL     1      13.943   4.084  29.162  0.00  0.00    +0.000 C 
ATOM      4  C   UNL     1      13.196   6.252  28.199  0.00  0.00    +0.000 C 
ATOM      5  C   UNL     1      13.690   6.824  29.504  0.00  0.00    +0.000 A 
ATOM      6  C   UNL     1      14.408   6.033  30.411  0.00  0.00    +0.000 A 
ATOM      7  C   UNL     1      13.421   8.155  29.846  0.00  0.00    +0.000 A 
ATOM      8  C   UNL     1      14.883   6.573  31.608  0.00  0.00    +0.000 A 
ATOM      9  C   UNL     1      13.880   8.700  31.043  0.00  0.00    +0.000 A 
ATOM     10  C   UNL     1      14.613   7.903  31.913  0.00  0.00    +0.000 A 
ENDROOT
BRANCH   3  11
ATOM     11  C   UNL     1      14.511   2.696  28.898  0.00  0.00    +0.000 A 
ATOM     12  C   UNL     1      15.730   2.315  29.492  0.00  0.00    +0.000 A 
ATOM     13  C   UNL     1      13.821   1.767  28.097  0.00  0.00    +0.000 A 
ATOM     14  C   UNL     1      14.349   0.495  27.898  0.00  0.00    +0.000 A 
ATOM     15  C   UNL     1      16.250   1.036  29.280  0.00  0.00    +0.000 A 
ATOM     16  C   UNL     1      15.559   0.129  28.485  0.00  0.00    +0.000 A 
BRANCH  14  17
ATOM     17  O   UNL     1      13.706  -0.438  27.130  0.00  0.00    +0.000 OA
ATOM     18  H   UNL     1      12.759  -0.418  27.353  0.00  0.00    +0.000 HD
ENDBRANCH  14  17
BRANCH  15  19
ATOM     19  O   UNL     1      17.433   0.664  29.852  0.00  0.00    +0.000 OA
ATOM     20  H   UNL     1      18.050   0.374  29.163  0.00  0.00    +0.000 HD
ENDBRANCH  15  19
BRANCH  16  21
ATOM     21  O   UNL     1      16.048  -1.130  28.268  0.00  0.00    +0.000 OA
ATOM     22  H   UNL     1      15.281  -1.641  27.945  0.00  0.00    +0.000 HD
ENDBRANCH  16  21
ENDBRANCH   3  11
BRANCH   7  23
ATOM     23  O   UNL     1      12.694   8.919  28.978  0.00  0.00    +0.000 OA
ATOM     24  H   UNL     1      13.068   8.821  28.086  0.00  0.00    +0.000 HD
ENDBRANCH   7  23
BRANCH  10  25
ATOM     25  O   UNL     1      15.051   8.468  33.074  0.00  0.00    +0.000 OA
ATOM     26  H   UNL     1      14.366   9.073  33.407  0.00  0.00    +0.000 HD
ENDBRANCH  10  25
BRANCH   2  27
ATOM     27  O   UNL     1      15.229   5.197  27.409  0.00  0.00    +0.000 OA
BRANCH  27  29
ATOM     28  O   UNL     1      15.214   5.949  25.240  0.00  0.00    +0.000 OA
ATOM     29  C   UNL     1      15.438   5.091  26.078  0.00  0.00    +0.000 C 
BRANCH  29  30
ATOM     30  C   UNL     1      15.955   3.736  25.757  0.00  0.00    +0.000 A 
ATOM     31  C   UNL     1      17.143   3.321  26.377  0.00  0.00    +0.000 A 
ATOM     32  C   UNL     1      15.282   2.880  24.869  0.00  0.00    +0.000 A 
ATOM     33  C   UNL     1      15.808   1.619  24.594  0.00  0.00    +0.000 A 
ATOM     34  C   UNL     1      17.655   2.062  26.089  0.00  0.00    +0.000 A 
ATOM     35  C   UNL     1      16.995   1.215  25.199  0.00  0.00    +0.000 A 
BRANCH  33  36
ATOM     36  O   UNL     1      15.169   0.774  23.732  0.00  0.00    +0.000 OA
ATOM     37  H   UNL     1      15.580   0.829  22.856  0.00  0.00    +0.000 HD
ENDBRANCH  33  36
BRANCH  34  38
ATOM     38  O   UNL     1      18.812   1.608  26.660  0.00  0.00    +0.000 OA
ATOM     39  H   UNL     1      18.584   0.984  27.372  0.00  0.00    +0.000 HD
ENDBRANCH  34  38
BRANCH  35  40
ATOM     40  O   UNL     1      17.527  -0.018  24.938  0.00  0.00    +0.000 OA
ATOM     41  H   UNL     1      18.350  -0.055  25.464  0.00  0.00    +0.000 HD
ENDBRANCH  35  40
ENDBRANCH  29  30
ENDBRANCH  27  29
ENDBRANCH   2  27
TORSDOF 12
ENDMDL
MODEL 8
REMARK VINA RESULT:      -6.2     26.952     29.331
REMARK  Name = 
REMARK  12 active torsions:
REMARK  status: ('A' for Active; 'I' for Inactive)
REMARK    1  A    between atoms: O_2  and  C_12
REMARK    2  A    between atoms: O_2  and  C_24
REMARK    3  A    between atoms: O_3  and  C_18
REMARK    4  A    between atoms: O_4  and  C_23
REMARK    5  A    between atoms: O_5  and  C_25
REMARK    6  A    between atoms: O_6  and  C_26
REMARK    7  A    between atoms: O_8  and  C_27
REMARK    8  A    between atoms: O_9  and  C_31
REMARK    9  A    between atoms: O_10  and  C_32
REMARK   10  A    between atoms: O_11  and  C_33
REMARK   11  A    between atoms: C_13  and  C_16
REMARK   12  A    between atoms: C_24  and  C_28
REMARK                            x       y       z     vdW  Elec       q    Type
REMARK                         _______ _______ _______ _____ _____    ______ ____
ROOT
ATOM      1  O   UNL     1      24.958  -2.545  15.587  0.00  0.00    +0.000 OA
ATOM      2  C   UNL     1      22.909  -1.871  14.380  0.00  0.00    +0.000 C 
ATOM      3  C   UNL     1      23.720  -1.821  15.687  0.00  0.00    +0.000 C 
ATOM      4  C   UNL     1      23.728  -1.199  13.279  0.00  0.00    +0.000 C 
ATOM      5  C   UNL     1      25.174  -1.621  13.335  0.00  0.00    +0.000 A 
ATOM      6  C   UNL     1      25.697  -2.254  14.471  0.00  0.00    +0.000 A 
ATOM      7  C   UNL     1      26.033  -1.366  12.259  0.00  0.00    +0.000 A 
ATOM      8  C   UNL     1      27.031  -2.663  14.510  0.00  0.00    +0.000 A 
ATOM      9  C   UNL     1      27.370  -1.759  12.293  0.00  0.00    +0.000 A 
ATOM     10  C   UNL     1      27.856  -2.409  13.419  0.00  0.00    +0.000 A 
ENDROOT
BRANCH   3  11
ATOM     11  C   UNL     1      22.923  -2.367  16.864  0.00  0.00    +0.000 A 
ATOM     12  C   UNL     1      21.526  -2.512  16.755  0.00  0.00    +0.000 A 
ATOM     13  C   UNL     1      23.560  -2.765  18.054  0.00  0.00    +0.000 A 
ATOM     14  C   UNL     1      22.810  -3.289  19.102  0.00  0.00    +0.000 A 
ATOM     15  C   UNL     1      20.785  -3.037  17.817  0.00  0.00    +0.000 A 
ATOM     16  C   UNL     1      21.428  -3.424  18.987  0.00  0.00    +0.000 A 
BRANCH  14  17
ATOM     17  O   UNL     1      23.394  -3.692  20.272  0.00  0.00    +0.000 OA
ATOM     18  H   UNL     1      23.797  -4.565  20.128  0.00  0.00    +0.000 HD
ENDBRANCH  14  17
BRANCH  15  19
ATOM     19  O   UNL     1      19.431  -3.177  17.715  0.00  0.00    +0.000 OA
ATOM     20  H   UNL     1      19.107  -2.672  16.954  0.00  0.00    +0.000 HD
ENDBRANCH  15  19
BRANCH  16  21
ATOM     21  O   UNL     1      20.722  -3.944  20.037  0.00  0.00    +0.000 OA
ATOM     22  H   UNL     1      20.303  -4.750  19.679  0.00  0.00    +0.000 HD
ENDBRANCH  16  21
ENDBRANCH   3  11
BRANCH   7  23
ATOM     23  O   UNL     1      25.535  -0.720  11.163  0.00  0.00    +0.000 OA
ATOM     24  H   UNL     1      24.807  -0.141  11.444  0.00  0.00    +0.000 HD
ENDBRANCH   7  23
BRANCH  10  25
ATOM     25  O   UNL     1      29.167  -2.784  13.418  0.00  0.00    +0.000 OA
ATOM     26  H   UNL     1      29.217  -3.752  13.348  0.00  0.00    +0.000 HD
ENDBRANCH  10  25
BRANCH   2  27
ATOM     27  O   UNL     1      22.667  -3.252  14.011  0.00  0.00    +0.000 OA
BRANCH  27  29
ATOM     28  O   UNL     1      22.419  -3.886  11.819  0.00  0.00    +0.000 OA
ATOM     29  C   UNL     1      21.973  -3.457  12.870  0.00  0.00    +0.000 C 
BRANCH  29  30
ATOM     30  C   UNL     1      20.560  -3.042  13.060  0.00  0.00    +0.000 A 
ATOM     31  C   UNL     1      19.980  -2.214  12.085  0.00  0.00    +0.000 A 
ATOM     32  C   UNL     1      19.808  -3.464  14.170  0.00  0.00    +0.000 A 
ATOM     33  C   UNL     1      18.486  -3.045  14.308  0.00  0.00    +0.000 A 
ATOM     34  C   UNL     1      18.662  -1.804  12.242  0.00  0.00    +0.000 A 
ATOM     35  C   UNL     1      17.918  -2.211  13.349  0.00  0.00    +0.000 A 
BRANCH  33  36
ATOM     36  O   UNL     1      17.741  -3.443  15.382  0.00  0.00    +0.000 OA
ATOM     37  H   UNL     1      17.633  -2.702  15.996  0.00  0.00    +0.000 HD
ENDBRANCH  33  36
BRANCH  34  38
ATOM     38  O   UNL     1      18.049  -0.992  11.327  0.00  0.00    +0.000 OA
ATOM     39  H   UNL     1      18.174  -0.065  11.599  0.00  0.00    +0.000 HD
ENDBRANCH  34  38
BRANCH  35  40
ATOM     40  O   UNL     1      16.623  -1.787  13.470  0.00  0.00    +0.000 OA
ATOM     41  H   UNL     1      16.092  -2.606  13.519  0.00  0.00    +0.000 HD
ENDBRANCH  35  40
ENDBRANCH  29  30
ENDBRANCH  27  29
ENDBRANCH   2  27
TORSDOF 12
ENDMDL
MODEL 9
REMARK VINA RESULT:      -6.2     15.574     19.237
REMARK  Name = 
REMARK  12 active torsions:
REMARK  status: ('A' for Active; 'I' for Inactive)
REMARK    1  A    between atoms: O_2  and  C_12
REMARK    2  A    between atoms: O_2  and  C_24
REMARK    3  A    between atoms: O_3  and  C_18
REMARK    4  A    between atoms: O_4  and  C_23
REMARK    5  A    between atoms: O_5  and  C_25
REMARK    6  A    between atoms: O_6  and  C_26
REMARK    7  A    between atoms: O_8  and  C_27
REMARK    8  A    between atoms: O_9  and  C_31
REMARK    9  A    between atoms: O_10  and  C_32
REMARK   10  A    between atoms: O_11  and  C_33
REMARK   11  A    between atoms: C_13  and  C_16
REMARK   12  A    between atoms: C_24  and  C_28
REMARK                            x       y       z     vdW  Elec       q    Type
REMARK                         _______ _______ _______ _____ _____    ______ ____
ROOT
ATOM      1  O   UNL     1      30.604  11.579  -7.226  0.00  0.00    +0.000 OA
ATOM      2  C   UNL     1      30.700   9.498  -5.899  0.00  0.00    +0.000 C 
ATOM      3  C   UNL     1      31.243  10.920  -6.120  0.00  0.00    +0.000 C 
ATOM      4  C   UNL     1      29.214   9.597  -5.556  0.00  0.00    +0.000 C 
ATOM      5  C   UNL     1      28.510  10.589  -6.448  0.00  0.00    +0.000 A 
ATOM      6  C   UNL     1      29.236  11.510  -7.214  0.00  0.00    +0.000 A 
ATOM      7  C   UNL     1      27.112  10.623  -6.511  0.00  0.00    +0.000 A 
ATOM      8  C   UNL     1      28.581  12.412  -8.056  0.00  0.00    +0.000 A 
ATOM      9  C   UNL     1      26.448  11.527  -7.338  0.00  0.00    +0.000 A 
ATOM     10  C   UNL     1      27.191  12.412  -8.109  0.00  0.00    +0.000 A 
ENDROOT
BRANCH   3  11
ATOM     11  C   UNL     1      32.748  10.916  -6.351  0.00  0.00    +0.000 A 
ATOM     12  C   UNL     1      33.603  10.349  -5.386  0.00  0.00    +0.000 A 
ATOM     13  C   UNL     1      33.305  11.438  -7.534  0.00  0.00    +0.000 A 
ATOM     14  C   UNL     1      34.681  11.394  -7.732  0.00  0.00    +0.000 A 
ATOM     15  C   UNL     1      34.983  10.314  -5.597  0.00  0.00    +0.000 A 
ATOM     16  C   UNL     1      35.520  10.836  -6.769  0.00  0.00    +0.000 A 
BRANCH  14  17
ATOM     17  O   UNL     1      35.260  11.886  -8.870  0.00  0.00    +0.000 OA
ATOM     18  H   UNL     1      36.222  11.929  -8.731  0.00  0.00    +0.000 HD
ENDBRANCH  14  17
BRANCH  15  19
ATOM     19  O   UNL     1      35.814   9.768  -4.661  0.00  0.00    +0.000 OA
ATOM     20  H   UNL     1      35.346   9.686  -3.817  0.00  0.00    +0.000 HD
ENDBRANCH  15  19
BRANCH  16  21
ATOM     21  O   UNL     1      36.868  10.809  -6.997  0.00  0.00    +0.000 OA
ATOM     22  H   UNL     1      36.957  10.908  -7.964  0.00  0.00    +0.000 HD
ENDBRANCH  16  21
ENDBRANCH   3  11
BRANCH   7  23
ATOM     23  O   UNL     1      26.400   9.747  -5.741  0.00  0.00    +0.000 OA
ATOM     24  H   UNL     1      26.950   9.474  -4.987  0.00  0.00    +0.000 HD
ENDBRANCH   7  23
BRANCH  10  25
ATOM     25  O   UNL     1      26.510  13.280  -8.910  0.00  0.00    +0.000 OA
ATOM     26  H   UNL     1      25.647  13.470  -8.506  0.00  0.00    +0.000 HD
ENDBRANCH  10  25
BRANCH   2  27
ATOM     27  O   UNL     1      30.851   8.723  -7.115  0.00  0.00    +0.000 OA
BRANCH  27  29
ATOM     28  O   UNL     1      32.702   7.480  -6.568  0.00  0.00    +0.000 OA
ATOM     29  C   UNL     1      31.573   7.585  -7.018  0.00  0.00    +0.000 C 
BRANCH  29  30
ATOM     30  C   UNL     1      30.800   6.451  -7.585  0.00  0.00    +0.000 A 
ATOM     31  C   UNL     1      30.200   5.551  -6.690  0.00  0.00    +0.000 A 
ATOM     32  C   UNL     1      30.656   6.274  -8.972  0.00  0.00    +0.000 A 
ATOM     33  C   UNL     1      29.925   5.190  -9.457  0.00  0.00    +0.000 A 
ATOM     34  C   UNL     1      29.478   4.475  -7.192  0.00  0.00    +0.000 A 
ATOM     35  C   UNL     1      29.344   4.291  -8.568  0.00  0.00    +0.000 A 
BRANCH  33  36
ATOM     36  O   UNL     1      29.777   5.002 -10.802  0.00  0.00    +0.000 OA
ATOM     37  H   UNL     1      29.561   4.074 -10.979  0.00  0.00    +0.000 HD
ENDBRANCH  33  36
BRANCH  34  38
ATOM     38  O   UNL     1      28.878   3.564  -6.367  0.00  0.00    +0.000 OA
ATOM     39  H   UNL     1      29.263   3.649  -5.476  0.00  0.00    +0.000 HD
ENDBRANCH  34  38
BRANCH  35  40
ATOM     40  O   UNL     1      28.626   3.220  -9.027  0.00  0.00    +0.000 OA
ATOM     41  H   UNL     1      29.004   2.446  -8.567  0.00  0.00    +0.000 HD
ENDBRANCH  35  40
ENDBRANCH  29  30
ENDBRANCH  27  29
ENDBRANCH   2  27
TORSDOF 12
ENDMDL
