MODEL 1
REMARK VINA RESULT:      -7.5      0.000      0.000
REMARK  Name = Estradiol.pdbqt.pdb
REMARK  2 active torsions:
REMARK  status: ('A' for Active; 'I' for Inactive)
REMARK    1  A    between atoms: C_5  and  O_19
REMARK    2  A    between atoms: C_18  and  O_21
REMARK                            x       y       z     vdW  Elec       q    Type
REMARK                         _______ _______ _______ _____ _____    ______ ____
ROOT
ATOM      1  C   UNL     1      42.897  -5.984  10.511  0.00  0.00    +0.000 C 
ATOM      2  C   UNL     1      43.599  -6.140  11.946  0.00  0.00    +0.000 C 
ATOM      3  C   UNL     1      44.218  -4.992  12.629  0.00  0.00    +0.000 A 
ATOM      4  C   UNL     1      44.077  -3.536  12.241  0.00  0.00    +0.000 A 
ATOM      5  C   UNL     1      41.596  -6.797  10.679  0.00  0.00    +0.000 C 
ATOM      6  C   UNL     1      42.681  -4.548  10.321  0.00  0.00    +0.000 C 
ATOM      7  C   UNL     1      42.818  -7.081  12.692  0.00  0.00    +0.000 C 
ATOM      8  C   UNL     1      43.247  -3.387  11.102  0.00  0.00    +0.000 C 
ATOM      9  C   UNL     1      41.573  -7.463  11.933  0.00  0.00    +0.000 C 
ATOM     10  C   UNL     1      45.007  -5.144  13.798  0.00  0.00    +0.000 A 
ATOM     11  C   UNL     1      43.810  -6.629   9.436  0.00  0.00    +0.000 C 
ATOM     12  C   UNL     1      44.728  -2.399  12.974  0.00  0.00    +0.000 A 
ATOM     13  C   UNL     1      45.649  -3.997  14.539  0.00  0.00    +0.000 A 
ATOM     14  C   UNL     1      45.524  -2.636  14.136  0.00  0.00    +0.000 A 
ATOM     15  C   UNL     1      44.576  -1.084  12.534  0.00  0.00    +0.000 A 
ATOM     16  C   UNL     1      46.142  -1.599  14.822  0.00  0.00    +0.000 A 
ATOM     17  C   UNL     1      45.194  -0.037  13.219  0.00  0.00    +0.000 A 
ATOM     18  C   UNL     1      45.968  -0.304  14.350  0.00  0.00    +0.000 A 
ENDROOT
BRANCH   5  19
ATOM     19  O   UNL     1      40.450  -6.530   9.962  0.00  0.00    +0.000 OA
ATOM     20  H   UNL     1      40.639  -6.400   9.015  0.00  0.00    +0.000 HD
ENDBRANCH   5  19
BRANCH  18  21
ATOM     21  O   UNL     1      46.580   0.715  15.023  0.00  0.00    +0.000 OA
ATOM     22  H   UNL     1      47.481   0.820  14.667  0.00  0.00    +0.000 HD
ENDBRANCH  18  21
TORSDOF 2
ENDMDL
MODEL 2
REMARK VINA RESULT:      -7.1      2.522      6.476
REMARK  Name = Estradiol.pdbqt.pdb
REMARK  2 active torsions:
REMARK  status: ('A' for Active; 'I' for Inactive)
REMARK    1  A    between atoms: C_5  and  O_19
REMARK    2  A    between atoms: C_18  and  O_21
REMARK                            x       y       z     vdW  Elec       q    Type
REMARK                         _______ _______ _______ _____ _____    ______ ____
ROOT
ATOM      1  C   UNL     1      47.022  -1.571  11.610  0.00  0.00    +0.000 C 
ATOM      2  C   UNL     1      46.963  -2.811  10.591  0.00  0.00    +0.000 C 
ATOM      3  C   UNL     1      45.983  -3.895  10.755  0.00  0.00    +0.000 A 
ATOM      4  C   UNL     1      44.789  -3.892  11.686  0.00  0.00    +0.000 A 
ATOM      5  C   UNL     1      47.182  -0.362  10.665  0.00  0.00    +0.000 C 
ATOM      6  C   UNL     1      45.755  -1.591  12.343  0.00  0.00    +0.000 C 
ATOM      7  C   UNL     1      47.247  -2.292   9.287  0.00  0.00    +0.000 C 
ATOM      8  C   UNL     1      44.710  -2.678  12.414  0.00  0.00    +0.000 C 
ATOM      9  C   UNL     1      47.350  -0.788   9.320  0.00  0.00    +0.000 C 
ATOM     10  C   UNL     1      46.038  -5.087   9.988  0.00  0.00    +0.000 A 
ATOM     11  C   UNL     1      48.273  -1.728  12.514  0.00  0.00    +0.000 C 
ATOM     12  C   UNL     1      43.813  -5.026  11.815  0.00  0.00    +0.000 A 
ATOM     13  C   UNL     1      45.048  -6.219  10.111  0.00  0.00    +0.000 A 
ATOM     14  C   UNL     1      43.948  -6.202  11.017  0.00  0.00    +0.000 A 
ATOM     15  C   UNL     1      42.755  -4.959  12.721  0.00  0.00    +0.000 A 
ATOM     16  C   UNL     1      43.062  -7.265  11.127  0.00  0.00    +0.000 A 
ATOM     17  C   UNL     1      41.861  -6.024  12.837  0.00  0.00    +0.000 A 
ATOM     18  C   UNL     1      42.022  -7.161  12.044  0.00  0.00    +0.000 A 
ENDROOT
BRANCH   5  19
ATOM     19  O   UNL     1      46.746   0.904  10.990  0.00  0.00    +0.000 OA
ATOM     20  H   UNL     1      45.949   1.151  10.487  0.00  0.00    +0.000 HD
ENDBRANCH   5  19
BRANCH  18  21
ATOM     21  O   UNL     1      41.154  -8.209  12.155  0.00  0.00    +0.000 OA
ATOM     22  H   UNL     1      41.039  -8.413  13.100  0.00  0.00    +0.000 HD
ENDBRANCH  18  21
TORSDOF 2
ENDMDL
MODEL 3
REMARK VINA RESULT:      -6.9      1.688      6.412
REMARK  Name = Estradiol.pdbqt.pdb
REMARK  2 active torsions:
REMARK  status: ('A' for Active; 'I' for Inactive)
REMARK    1  A    between atoms: C_5  and  O_19
REMARK    2  A    between atoms: C_18  and  O_21
REMARK                            x       y       z     vdW  Elec       q    Type
REMARK                         _______ _______ _______ _____ _____    ______ ____
ROOT
ATOM      1  C   UNL     1      45.626  -0.454  12.005  0.00  0.00    +0.000 C 
ATOM      2  C   UNL     1      44.976  -1.121  13.313  0.00  0.00    +0.000 C 
ATOM      3  C   UNL     1      44.222  -2.382  13.239  0.00  0.00    +0.000 A 
ATOM      4  C   UNL     1      44.161  -3.322  12.055  0.00  0.00    +0.000 A 
ATOM      5  C   UNL     1      47.026  -0.033  12.498  0.00  0.00    +0.000 C 
ATOM      6  C   UNL     1      45.645  -1.503  10.984  0.00  0.00    +0.000 C 
ATOM      7  C   UNL     1      45.888  -0.893  14.394  0.00  0.00    +0.000 C 
ATOM      8  C   UNL     1      44.943  -2.839  10.976  0.00  0.00    +0.000 C 
ATOM      9  C   UNL     1      47.160  -0.255  13.895  0.00  0.00    +0.000 C 
ATOM     10  C   UNL     1      43.481  -2.885  14.339  0.00  0.00    +0.000 A 
ATOM     11  C   UNL     1      44.788   0.791  11.611  0.00  0.00    +0.000 C 
ATOM     12  C   UNL     1      43.377  -4.602  12.031  0.00  0.00    +0.000 A 
ATOM     13  C   UNL     1      42.705  -4.179  14.316  0.00  0.00    +0.000 A 
ATOM     14  C   UNL     1      42.641  -5.033  13.176  0.00  0.00    +0.000 A 
ATOM     15  C   UNL     1      43.345  -5.400  10.886  0.00  0.00    +0.000 A 
ATOM     16  C   UNL     1      41.902  -6.208  13.171  0.00  0.00    +0.000 A 
ATOM     17  C   UNL     1      42.605  -6.583  10.874  0.00  0.00    +0.000 A 
ATOM     18  C   UNL     1      41.894  -6.973  12.010  0.00  0.00    +0.000 A 
ENDROOT
BRANCH   5  19
ATOM     19  O   UNL     1      48.114   0.074  11.659  0.00  0.00    +0.000 OA
ATOM     20  H   UNL     1      48.451  -0.800  11.393  0.00  0.00    +0.000 HD
ENDBRANCH   5  19
BRANCH  18  21
ATOM     21  O   UNL     1      41.163  -8.127  12.005  0.00  0.00    +0.000 OA
ATOM     22  H   UNL     1      40.992  -8.386  12.927  0.00  0.00    +0.000 HD
ENDBRANCH  18  21
TORSDOF 2
ENDMDL
MODEL 4
REMARK VINA RESULT:      -6.3     35.270     37.460
REMARK  Name = Estradiol.pdbqt.pdb
REMARK  2 active torsions:
REMARK  status: ('A' for Active; 'I' for Inactive)
REMARK    1  A    between atoms: C_5  and  O_19
REMARK    2  A    between atoms: C_18  and  O_21
REMARK                            x       y       z     vdW  Elec       q    Type
REMARK                         _______ _______ _______ _____ _____    ______ ____
ROOT
ATOM      1  C   UNL     1      21.207  20.923  32.006  0.00  0.00    +0.000 C 
ATOM      2  C   UNL     1      21.884  20.010  30.871  0.00  0.00    +0.000 C 
ATOM      3  C   UNL     1      21.876  18.542  30.960  0.00  0.00    +0.000 A 
ATOM      4  C   UNL     1      21.064  17.706  31.926  0.00  0.00    +0.000 A 
ATOM      5  C   UNL     1      20.446  21.982  31.180  0.00  0.00    +0.000 C 
ATOM      6  C   UNL     1      20.337  20.032  32.775  0.00  0.00    +0.000 C 
ATOM      7  C   UNL     1      21.636  20.654  29.616  0.00  0.00    +0.000 C 
ATOM      8  C   UNL     1      20.275  18.523  32.774  0.00  0.00    +0.000 C 
ATOM      9  C   UNL     1      20.729  21.845  29.795  0.00  0.00    +0.000 C 
ATOM     10  C   UNL     1      22.630  17.727  30.077  0.00  0.00    +0.000 A 
ATOM     11  C   UNL     1      22.328  21.587  32.847  0.00  0.00    +0.000 C 
ATOM     12  C   UNL     1      21.090  16.206  31.975  0.00  0.00    +0.000 A 
ATOM     13  C   UNL     1      22.644  16.219  30.121  0.00  0.00    +0.000 A 
ATOM     14  C   UNL     1      21.891  15.456  31.061  0.00  0.00    +0.000 A 
ATOM     15  C   UNL     1      20.336  15.508  32.919  0.00  0.00    +0.000 A 
ATOM     16  C   UNL     1      21.936  14.069  31.095  0.00  0.00    +0.000 A 
ATOM     17  C   UNL     1      20.376  14.114  32.959  0.00  0.00    +0.000 A 
ATOM     18  C   UNL     1      21.172  13.411  32.052  0.00  0.00    +0.000 A 
ENDROOT
BRANCH   5  19
ATOM     19  O   UNL     1      19.318  22.624  31.643  0.00  0.00    +0.000 OA
ATOM     20  H   UNL     1      18.642  22.711  30.948  0.00  0.00    +0.000 HD
ENDBRANCH   5  19
BRANCH  18  21
ATOM     21  O   UNL     1      21.220  12.047  32.089  0.00  0.00    +0.000 OA
ATOM     22  H   UNL     1      21.199  11.764  33.020  0.00  0.00    +0.000 HD
ENDBRANCH  18  21
TORSDOF 2
ENDMDL
MODEL 5
REMARK VINA RESULT:      -5.9     19.049     22.009
REMARK  Name = Estradiol.pdbqt.pdb
REMARK  2 active torsions:
REMARK  status: ('A' for Active; 'I' for Inactive)
REMARK    1  A    between atoms: C_5  and  O_19
REMARK    2  A    between atoms: C_18  and  O_21
REMARK                            x       y       z     vdW  Elec       q    Type
REMARK                         _______ _______ _______ _____ _____    ______ ____
ROOT
ATOM      1  C   UNL     1      40.884  15.294  20.142  0.00  0.00    +0.000 C 
ATOM      2  C   UNL     1      41.203  15.155  18.575  0.00  0.00    +0.000 C 
ATOM      3  C   UNL     1      41.995  16.168  17.859  0.00  0.00    +0.000 A 
ATOM      4  C   UNL     1      42.798  17.287  18.486  0.00  0.00    +0.000 A 
ATOM      5  C   UNL     1      41.137  13.866  20.668  0.00  0.00    +0.000 C 
ATOM      6  C   UNL     1      41.822  16.293  20.658  0.00  0.00    +0.000 C 
ATOM      7  C   UNL     1      41.417  13.763  18.315  0.00  0.00    +0.000 C 
ATOM      8  C   UNL     1      42.705  17.255  19.900  0.00  0.00    +0.000 C 
ATOM      9  C   UNL     1      41.409  12.972  19.598  0.00  0.00    +0.000 C 
ATOM     10  C   UNL     1      42.124  16.165  16.446  0.00  0.00    +0.000 A 
ATOM     11  C   UNL     1      39.393  15.684  20.315  0.00  0.00    +0.000 C 
ATOM     12  C   UNL     1      43.593  18.296  17.709  0.00  0.00    +0.000 A 
ATOM     13  C   UNL     1      42.935  17.173  15.669  0.00  0.00    +0.000 A 
ATOM     14  C   UNL     1      43.660  18.236  16.284  0.00  0.00    +0.000 A 
ATOM     15  C   UNL     1      44.282  19.319  18.361  0.00  0.00    +0.000 A 
ATOM     16  C   UNL     1      44.382  19.164  15.546  0.00  0.00    +0.000 A 
ATOM     17  C   UNL     1      45.010  20.255  17.626  0.00  0.00    +0.000 A 
ATOM     18  C   UNL     1      45.052  20.170  16.233  0.00  0.00    +0.000 A 
ENDROOT
BRANCH   5  19
ATOM     19  O   UNL     1      41.520  13.603  21.966  0.00  0.00    +0.000 OA
ATOM     20  H   UNL     1      41.106  12.789  22.306  0.00  0.00    +0.000 HD
ENDBRANCH   5  19
BRANCH  18  21
ATOM     21  O   UNL     1      45.758  21.086  15.506  0.00  0.00    +0.000 OA
ATOM     22  H   UNL     1      45.132  21.591  14.958  0.00  0.00    +0.000 HD
ENDBRANCH  18  21
TORSDOF 2
ENDMDL
MODEL 6
REMARK VINA RESULT:      -5.5     18.795     22.685
REMARK  Name = Estradiol.pdbqt.pdb
REMARK  2 active torsions:
REMARK  status: ('A' for Active; 'I' for Inactive)
REMARK    1  A    between atoms: C_5  and  O_19
REMARK    2  A    between atoms: C_18  and  O_21
REMARK                            x       y       z     vdW  Elec       q    Type
REMARK                         _______ _______ _______ _____ _____    ______ ____
ROOT
ATOM      1  C   UNL     1      41.503  15.113  19.136  0.00  0.00    +0.000 C 
ATOM      2  C   UNL     1      41.789  15.926  17.781  0.00  0.00    +0.000 C 
ATOM      3  C   UNL     1      42.435  17.247  17.799  0.00  0.00    +0.000 A 
ATOM      4  C   UNL     1      43.121  17.894  18.982  0.00  0.00    +0.000 A 
ATOM      5  C   UNL     1      41.937  13.678  18.769  0.00  0.00    +0.000 C 
ATOM      6  C   UNL     1      42.334  15.740  20.165  0.00  0.00    +0.000 C 
ATOM      7  C   UNL     1      42.155  14.962  16.786  0.00  0.00    +0.000 C 
ATOM      8  C   UNL     1      43.075  17.054  20.124  0.00  0.00    +0.000 C 
ATOM      9  C   UNL     1      42.279  13.587  17.393  0.00  0.00    +0.000 C 
ATOM     10  C   UNL     1      42.521  18.062  16.640  0.00  0.00    +0.000 A 
ATOM     11  C   UNL     1      39.983  15.164  19.437  0.00  0.00    +0.000 C 
ATOM     12  C   UNL     1      43.769  19.248  18.949  0.00  0.00    +0.000 A 
ATOM     13  C   UNL     1      43.185  19.416  16.607  0.00  0.00    +0.000 A 
ATOM     14  C   UNL     1      43.799  20.016  17.745  0.00  0.00    +0.000 A 
ATOM     15  C   UNL     1      44.353  19.790  20.093  0.00  0.00    +0.000 A 
ATOM     16  C   UNL     1      44.386  21.273  17.695  0.00  0.00    +0.000 A 
ATOM     17  C   UNL     1      44.944  21.053  20.050  0.00  0.00    +0.000 A 
ATOM     18  C   UNL     1      44.954  21.779  18.858  0.00  0.00    +0.000 A 
ENDROOT
BRANCH   5  19
ATOM     19  O   UNL     1      42.387  12.770  19.703  0.00  0.00    +0.000 OA
ATOM     20  H   UNL     1      42.317  13.121  20.609  0.00  0.00    +0.000 HD
ENDBRANCH   5  19
BRANCH  18  21
ATOM     21  O   UNL     1      45.527  23.018  18.809  0.00  0.00    +0.000 OA
ATOM     22  H   UNL     1      45.725  23.228  17.879  0.00  0.00    +0.000 HD
ENDBRANCH  18  21
TORSDOF 2
ENDMDL
MODEL 7
REMARK VINA RESULT:      -5.3     40.547     43.099
REMARK  Name = Estradiol.pdbqt.pdb
REMARK  2 active torsions:
REMARK  status: ('A' for Active; 'I' for Inactive)
REMARK    1  A    between atoms: C_5  and  O_19
REMARK    2  A    between atoms: C_18  and  O_21
REMARK                            x       y       z     vdW  Elec       q    Type
REMARK                         _______ _______ _______ _____ _____    ______ ____
ROOT
ATOM      1  C   UNL     1      28.671  33.905  17.551  0.00  0.00    +0.000 C 
ATOM      2  C   UNL     1      27.546  35.033  17.758  0.00  0.00    +0.000 C 
ATOM      3  C   UNL     1      26.632  35.006  18.910  0.00  0.00    +0.000 A 
ATOM      4  C   UNL     1      26.761  34.127  20.136  0.00  0.00    +0.000 A 
ATOM      5  C   UNL     1      29.909  34.731  17.144  0.00  0.00    +0.000 C 
ATOM      6  C   UNL     1      28.805  33.228  18.842  0.00  0.00    +0.000 C 
ATOM      7  C   UNL     1      28.115  36.273  17.323  0.00  0.00    +0.000 C 
ATOM      8  C   UNL     1      27.906  33.296  20.053  0.00  0.00    +0.000 C 
ATOM      9  C   UNL     1      29.572  36.101  16.976  0.00  0.00    +0.000 C 
ATOM     10  C   UNL     1      25.515  35.874  19.010  0.00  0.00    +0.000 A 
ATOM     11  C   UNL     1      28.233  32.970  16.394  0.00  0.00    +0.000 C 
ATOM     12  C   UNL     1      25.801  34.139  21.290  0.00  0.00    +0.000 A 
ATOM     13  C   UNL     1      24.560  35.893  20.178  0.00  0.00    +0.000 A 
ATOM     14  C   UNL     1      24.687  35.033  21.307  0.00  0.00    +0.000 A 
ATOM     15  C   UNL     1      25.970  33.273  22.370  0.00  0.00    +0.000 A 
ATOM     16  C   UNL     1      23.783  35.053  22.360  0.00  0.00    +0.000 A 
ATOM     17  C   UNL     1      25.065  33.288  23.432  0.00  0.00    +0.000 A 
ATOM     18  C   UNL     1      23.985  34.173  23.417  0.00  0.00    +0.000 A 
ENDROOT
BRANCH   5  19
ATOM     19  O   UNL     1      31.200  34.311  17.383  0.00  0.00    +0.000 OA
ATOM     20  H   UNL     1      31.686  34.154  16.554  0.00  0.00    +0.000 HD
ENDBRANCH   5  19
BRANCH  18  21
ATOM     21  O   UNL     1      23.092  34.190  24.450  0.00  0.00    +0.000 OA
ATOM     22  H   UNL     1      23.495  34.671  25.195  0.00  0.00    +0.000 HD
ENDBRANCH  18  21
TORSDOF 2
ENDMDL
MODEL 8
REMARK VINA RESULT:      -5.2     41.564     43.335
REMARK  Name = Estradiol.pdbqt.pdb
REMARK  2 active torsions:
REMARK  status: ('A' for Active; 'I' for Inactive)
REMARK    1  A    between atoms: C_5  and  O_19
REMARK    2  A    between atoms: C_18  and  O_21
REMARK                            x       y       z     vdW  Elec       q    Type
REMARK                         _______ _______ _______ _____ _____    ______ ____
ROOT
ATOM      1  C   UNL     1      11.339  27.573   9.590  0.00  0.00    +0.000 C 
ATOM      2  C   UNL     1      11.953  27.215  11.031  0.00  0.00    +0.000 C 
ATOM      3  C   UNL     1      12.232  25.825  11.424  0.00  0.00    +0.000 A 
ATOM      4  C   UNL     1      12.232  24.618  10.511  0.00  0.00    +0.000 A 
ATOM      5  C   UNL     1      12.186  28.786   9.153  0.00  0.00    +0.000 C 
ATOM      6  C   UNL     1      11.534  26.382   8.762  0.00  0.00    +0.000 C 
ATOM      7  C   UNL     1      12.885  28.253  11.356  0.00  0.00    +0.000 C 
ATOM      8  C   UNL     1      11.923  24.983   9.177  0.00  0.00    +0.000 C 
ATOM      9  C   UNL     1      13.056  29.201  10.196  0.00  0.00    +0.000 C 
ATOM     10  C   UNL     1      12.589  25.472  12.750  0.00  0.00    +0.000 A 
ATOM     11  C   UNL     1       9.853  27.978   9.768  0.00  0.00    +0.000 C 
ATOM     12  C   UNL     1      12.527  23.216  10.962  0.00  0.00    +0.000 A 
ATOM     13  C   UNL     1      12.898  24.065  13.197  0.00  0.00    +0.000 A 
ATOM     14  C   UNL     1      12.863  22.940  12.322  0.00  0.00    +0.000 A 
ATOM     15  C   UNL     1      12.476  22.150  10.064  0.00  0.00    +0.000 A 
ATOM     16  C   UNL     1      13.130  21.650  12.761  0.00  0.00    +0.000 A 
ATOM     17  C   UNL     1      12.743  20.852  10.499  0.00  0.00    +0.000 A 
ATOM     18  C   UNL     1      13.065  20.615  11.836  0.00  0.00    +0.000 A 
ENDROOT
BRANCH   5  19
ATOM     19  O   UNL     1      12.415  29.101   7.831  0.00  0.00    +0.000 OA
ATOM     20  H   UNL     1      13.333  29.392   7.683  0.00  0.00    +0.000 HD
ENDBRANCH   5  19
BRANCH  18  21
ATOM     21  O   UNL     1      13.323  19.346  12.270  0.00  0.00    +0.000 OA
ATOM     22  H   UNL     1      14.281  19.263  12.425  0.00  0.00    +0.000 HD
ENDBRANCH  18  21
TORSDOF 2
ENDMDL
MODEL 9
REMARK VINA RESULT:      -5.0     11.213     12.643
REMARK  Name = Estradiol.pdbqt.pdb
REMARK  2 active torsions:
REMARK  status: ('A' for Active; 'I' for Inactive)
REMARK    1  A    between atoms: C_5  and  O_19
REMARK    2  A    between atoms: C_18  and  O_21
REMARK                            x       y       z     vdW  Elec       q    Type
REMARK                         _______ _______ _______ _____ _____    ______ ____
ROOT
ATOM      1  C   UNL     1      37.714 -16.044  11.582  0.00  0.00    +0.000 C 
ATOM      2  C   UNL     1      39.003 -15.534  12.391  0.00  0.00    +0.000 C 
ATOM      3  C   UNL     1      38.874 -14.714  13.606  0.00  0.00    +0.000 A 
ATOM      4  C   UNL     1      37.600 -14.456  14.382  0.00  0.00    +0.000 A 
ATOM      5  C   UNL     1      38.066 -17.515  11.276  0.00  0.00    +0.000 C 
ATOM      6  C   UNL     1      36.577 -15.881  12.490  0.00  0.00    +0.000 C 
ATOM      7  C   UNL     1      39.973 -16.586  12.336  0.00  0.00    +0.000 C 
ATOM      8  C   UNL     1      36.496 -15.118  13.790  0.00  0.00    +0.000 C 
ATOM      9  C   UNL     1      39.394 -17.815  11.682  0.00  0.00    +0.000 C 
ATOM     10  C   UNL     1      39.991 -14.095  14.223  0.00  0.00    +0.000 A 
ATOM     11  C   UNL     1      37.593 -15.227  10.270  0.00  0.00    +0.000 C 
ATOM     12  C   UNL     1      37.521 -13.612  15.622  0.00  0.00    +0.000 A 
ATOM     13  C   UNL     1      39.910 -13.258  15.476  0.00  0.00    +0.000 A 
ATOM     14  C   UNL     1      38.692 -13.007  16.172  0.00  0.00    +0.000 A 
ATOM     15  C   UNL     1      36.301 -13.395  16.262  0.00  0.00    +0.000 A 
ATOM     16  C   UNL     1      38.638 -12.216  17.311  0.00  0.00    +0.000 A 
ATOM     17  C   UNL     1      36.240 -12.601  17.408  0.00  0.00    +0.000 A 
ATOM     18  C   UNL     1      37.403 -12.021  17.918  0.00  0.00    +0.000 A 
ENDROOT
BRANCH   5  19
ATOM     19  O   UNL     1      37.110 -18.492  11.098  0.00  0.00    +0.000 OA
ATOM     20  H   UNL     1      36.854 -18.580  10.162  0.00  0.00    +0.000 HD
ENDBRANCH   5  19
BRANCH  18  21
ATOM     21  O   UNL     1      37.351 -11.239  19.036  0.00  0.00    +0.000 OA
ATOM     22  H   UNL     1      38.180 -11.357  19.533  0.00  0.00    +0.000 HD
ENDBRANCH  18  21
TORSDOF 2
ENDMDL
