MODEL 1
REMARK VINA RESULT:      -9.5      0.000      0.000
REMARK  Name = 
REMARK  11 active torsions:
REMARK  status: ('A' for Active; 'I' for Inactive)
REMARK    1  A    between atoms: O_1  and  C_16
REMARK    2  A    between atoms: O_1  and  C_22
REMARK    3  A    between atoms: O_6  and  C_24
REMARK    4  A    between atoms: O_8  and  C_26
REMARK    5  A    between atoms: O_11  and  C_36
REMARK    6  A    between atoms: O_11  and  C_41
REMARK    7  A    between atoms: O_12  and  C_37
REMARK    8  A    between atoms: O_12  and  C_42
REMARK    9  A    between atoms: O_13  and  C_39
REMARK   10  A    between atoms: C_17  and  C_23
REMARK   11  A    between atoms: C_35  and  C_40
REMARK                            x       y       z     vdW  Elec       q    Type
REMARK                         _______ _______ _______ _____ _____    ______ ____
ROOT
ATOM      1  O   UNL     1      41.829  -6.178   9.624  0.00  0.00    +0.000 OA
ATOM      2  O   UNL     1      41.795  -5.601  11.842  0.00  0.00    +0.000 OA
ATOM      3  O   UNL     1      50.175  -7.027  10.238  0.00  0.00    +0.000 OA
ATOM      4  O   UNL     1      49.774  -5.910  12.337  0.00  0.00    +0.000 OA
ATOM      5  C   UNL     1      44.120  -6.258   9.290  0.00  0.00    +0.000 C 
ATOM      6  C   UNL     1      43.856  -6.337  10.782  0.00  0.00    +0.000 C 
ATOM      7  C   UNL     1      45.393  -7.015   8.936  0.00  0.00    +0.000 C 
ATOM      8  C   UNL     1      44.886  -5.520  11.561  0.00  0.00    +0.000 C 
ATOM      9  C   UNL     1      46.526  -6.653   9.895  0.00  0.00    +0.000 A 
ATOM     10  C   UNL     1      46.290  -5.988  11.143  0.00  0.00    +0.000 A 
ATOM     11  C   UNL     1      42.807  -6.758   8.744  0.00  0.00    +0.000 C 
ATOM     12  C   UNL     1      42.407  -5.958  10.849  0.00  0.00    +0.000 C 
ATOM     13  C   UNL     1      47.839  -7.025   9.549  0.00  0.00    +0.000 A 
ATOM     14  C   UNL     1      47.369  -5.713  12.009  0.00  0.00    +0.000 A 
ATOM     15  C   UNL     1      48.861  -6.735  10.428  0.00  0.00    +0.000 A 
ATOM     16  C   UNL     1      48.633  -6.099  11.622  0.00  0.00    +0.000 A 
ATOM     17  C   UNL     1      50.749  -6.499  11.452  0.00  0.00    +0.000 C 
ENDROOT
BRANCH   8  18
ATOM     18  C   UNL     1      44.706  -4.002  11.471  0.00  0.00    +0.000 A 
ATOM     19  C   UNL     1      43.713  -3.308  12.184  0.00  0.00    +0.000 A 
ATOM     20  C   UNL     1      45.573  -3.257  10.654  0.00  0.00    +0.000 A 
ATOM     21  C   UNL     1      45.465  -1.868  10.574  0.00  0.00    +0.000 A 
ATOM     22  C   UNL     1      43.571  -1.915  12.104  0.00  0.00    +0.000 A 
ATOM     23  C   UNL     1      44.457  -1.204  11.293  0.00  0.00    +0.000 A 
BRANCH  21  24
ATOM     24  O   UNL     1      46.275  -1.047   9.824  0.00  0.00    +0.000 OA
ATOM     25  C   UNL     1      47.452  -1.643   9.284  0.00  0.00    +0.000 C 
ENDBRANCH  21  24
BRANCH  22  26
ATOM     26  O   UNL     1      42.547  -1.438  12.876  0.00  0.00    +0.000 OA
ATOM     27  C   UNL     1      42.592  -1.690  14.273  0.00  0.00    +0.000 C 
ENDBRANCH  22  26
BRANCH  23  28
ATOM     28  O   UNL     1      44.395   0.162  11.171  0.00  0.00    +0.000 OA
ATOM     29  H   UNL     1      43.968   0.469  11.994  0.00  0.00    +0.000 HD
ENDBRANCH  23  28
ENDBRANCH   8  18
BRANCH   7  30
ATOM     30  O   UNL     1      45.168  -8.418   9.081  0.00  0.00    +0.000 OA
BRANCH  30  34
ATOM     31  O   UNL     1      44.188  -9.605   7.322  0.00  0.00    +0.000 OA
ATOM     32  O   UNL     1      45.348 -12.460   5.313  0.00  0.00    +0.000 OA
ATOM     33  O   UNL     1      43.347 -11.628   4.369  0.00  0.00    +0.000 OA
ATOM     34  C   UNL     1      45.424  -9.155   7.880  0.00  0.00    +0.000 C 
ATOM     35  C   UNL     1      46.354 -10.330   8.263  0.00  0.00    +0.000 C 
ATOM     36  C   UNL     1      45.167 -11.664   6.489  0.00  0.00    +0.000 C 
ATOM     37  C   UNL     1      46.527 -11.305   7.090  0.00  0.00    +0.000 C 
ATOM     38  C   UNL     1      44.410 -10.384   6.149  0.00  0.00    +0.000 C 
ATOM     39  C   UNL     1      43.093 -10.789   5.495  0.00  0.00    +0.000 C 
ATOM     40  C   UNL     1      44.079 -12.795   4.742  0.00  0.00    +0.000 C 
ATOM     41  C   UNL     1      44.333 -13.611   3.487  0.00  0.00    +0.000 C 
BRANCH  35  42
ATOM     42  O   UNL     1      47.632  -9.808   8.662  0.00  0.00    +0.000 OA
ATOM     43  H   UNL     1      47.678  -8.901   8.300  0.00  0.00    +0.000 HD
ENDBRANCH  35  42
BRANCH  37  44
ATOM     44  O   UNL     1      47.158 -12.515   7.541  0.00  0.00    +0.000 OA
ATOM     45  H   UNL     1      47.852 -12.715   6.885  0.00  0.00    +0.000 HD
ENDBRANCH  37  44
ENDBRANCH  30  34
ENDBRANCH   7  30
TORSDOF 8
ENDMDL
MODEL 2
REMARK VINA RESULT:      -9.3      0.245      2.020
REMARK  Name = 
REMARK  11 active torsions:
REMARK  status: ('A' for Active; 'I' for Inactive)
REMARK    1  A    between atoms: O_1  and  C_16
REMARK    2  A    between atoms: O_1  and  C_22
REMARK    3  A    between atoms: O_6  and  C_24
REMARK    4  A    between atoms: O_8  and  C_26
REMARK    5  A    between atoms: O_11  and  C_36
REMARK    6  A    between atoms: O_11  and  C_41
REMARK    7  A    between atoms: O_12  and  C_37
REMARK    8  A    between atoms: O_12  and  C_42
REMARK    9  A    between atoms: O_13  and  C_39
REMARK   10  A    between atoms: C_17  and  C_23
REMARK   11  A    between atoms: C_35  and  C_40
REMARK                            x       y       z     vdW  Elec       q    Type
REMARK                         _______ _______ _______ _____ _____    ______ ____
ROOT
ATOM      1  O   UNL     1      41.940  -6.097   9.717  0.00  0.00    +0.000 OA
ATOM      2  O   UNL     1      41.876  -5.554  11.943  0.00  0.00    +0.000 OA
ATOM      3  O   UNL     1      50.291  -6.836  10.404  0.00  0.00    +0.000 OA
ATOM      4  O   UNL     1      49.853  -5.756  12.515  0.00  0.00    +0.000 OA
ATOM      5  C   UNL     1      44.236  -6.140   9.406  0.00  0.00    +0.000 C 
ATOM      6  C   UNL     1      43.958  -6.245  10.893  0.00  0.00    +0.000 C 
ATOM      7  C   UNL     1      45.523  -6.874   9.054  0.00  0.00    +0.000 C 
ATOM      8  C   UNL     1      44.968  -5.425  11.695  0.00  0.00    +0.000 C 
ATOM      9  C   UNL     1      46.641  -6.509  10.030  0.00  0.00    +0.000 A 
ATOM     10  C   UNL     1      46.383  -5.866  11.285  0.00  0.00    +0.000 A 
ATOM     11  C   UNL     1      42.935  -6.650   8.839  0.00  0.00    +0.000 C 
ATOM     12  C   UNL     1      42.503  -5.887  10.952  0.00  0.00    +0.000 C 
ATOM     13  C   UNL     1      47.963  -6.857   9.692  0.00  0.00    +0.000 A 
ATOM     14  C   UNL     1      47.449  -5.589  12.165  0.00  0.00    +0.000 A 
ATOM     15  C   UNL     1      48.971  -6.566  10.585  0.00  0.00    +0.000 A 
ATOM     16  C   UNL     1      48.722  -5.952  11.786  0.00  0.00    +0.000 A 
ATOM     17  C   UNL     1      50.845  -6.319  11.631  0.00  0.00    +0.000 C 
ENDROOT
BRANCH   8  18
ATOM     18  C   UNL     1      44.768  -3.909  11.625  0.00  0.00    +0.000 A 
ATOM     19  C   UNL     1      45.524  -3.077  10.780  0.00  0.00    +0.000 A 
ATOM     20  C   UNL     1      43.780  -3.311  12.426  0.00  0.00    +0.000 A 
ATOM     21  C   UNL     1      43.543  -1.937  12.364  0.00  0.00    +0.000 A 
ATOM     22  C   UNL     1      45.318  -1.691  10.716  0.00  0.00    +0.000 A 
ATOM     23  C   UNL     1      44.321  -1.132  11.515  0.00  0.00    +0.000 A 
BRANCH  21  24
ATOM     24  O   UNL     1      42.588  -1.259  13.086  0.00  0.00    +0.000 OA
ATOM     25  C   UNL     1      42.204  -1.843  14.329  0.00  0.00    +0.000 C 
ENDBRANCH  21  24
BRANCH  22  26
ATOM     26  O   UNL     1      46.157  -1.068   9.832  0.00  0.00    +0.000 OA
ATOM     27  C   UNL     1      47.296  -1.783   9.376  0.00  0.00    +0.000 C 
ENDBRANCH  22  26
BRANCH  23  28
ATOM     28  O   UNL     1      44.046   0.213  11.501  0.00  0.00    +0.000 OA
ATOM     29  H   UNL     1      43.326   0.316  10.849  0.00  0.00    +0.000 HD
ENDBRANCH  23  28
ENDBRANCH   8  18
BRANCH   7  30
ATOM     30  O   UNL     1      45.317  -8.281   9.176  0.00  0.00    +0.000 OA
BRANCH  30  34
ATOM     31  O   UNL     1      44.275  -9.479   7.460  0.00  0.00    +0.000 OA
ATOM     32  O   UNL     1      45.416 -12.252   5.329  0.00  0.00    +0.000 OA
ATOM     33  O   UNL     1      43.328 -11.487   4.529  0.00  0.00    +0.000 OA
ATOM     34  C   UNL     1      45.525  -8.988   7.947  0.00  0.00    +0.000 C 
ATOM     35  C   UNL     1      46.522 -10.131   8.250  0.00  0.00    +0.000 C 
ATOM     36  C   UNL     1      45.279 -11.483   6.529  0.00  0.00    +0.000 C 
ATOM     37  C   UNL     1      46.659 -11.080   7.051  0.00  0.00    +0.000 C 
ATOM     38  C   UNL     1      44.452 -10.229   6.261  0.00  0.00    +0.000 C 
ATOM     39  C   UNL     1      43.113 -10.677   5.683  0.00  0.00    +0.000 C 
ATOM     40  C   UNL     1      44.128 -12.629   4.833  0.00  0.00    +0.000 C 
ATOM     41  C   UNL     1      44.334 -13.414   3.550  0.00  0.00    +0.000 C 
BRANCH  35  42
ATOM     42  O   UNL     1      47.802  -9.564   8.577  0.00  0.00    +0.000 OA
ATOM     43  H   UNL     1      47.922  -8.804   7.975  0.00  0.00    +0.000 HD
ENDBRANCH  35  42
BRANCH  37  44
ATOM     44  O   UNL     1      47.364 -12.270   7.438  0.00  0.00    +0.000 OA
ATOM     45  H   UNL     1      48.296 -12.003   7.553  0.00  0.00    +0.000 HD
ENDBRANCH  37  44
ENDBRANCH  30  34
ENDBRANCH   7  30
TORSDOF 8
ENDMDL
MODEL 3
REMARK VINA RESULT:      -8.5      3.241     10.284
REMARK  Name = 
REMARK  11 active torsions:
REMARK  status: ('A' for Active; 'I' for Inactive)
REMARK    1  A    between atoms: O_1  and  C_16
REMARK    2  A    between atoms: O_1  and  C_22
REMARK    3  A    between atoms: O_6  and  C_24
REMARK    4  A    between atoms: O_8  and  C_26
REMARK    5  A    between atoms: O_11  and  C_36
REMARK    6  A    between atoms: O_11  and  C_41
REMARK    7  A    between atoms: O_12  and  C_37
REMARK    8  A    between atoms: O_12  and  C_42
REMARK    9  A    between atoms: O_13  and  C_39
REMARK   10  A    between atoms: C_17  and  C_23
REMARK   11  A    between atoms: C_35  and  C_40
REMARK                            x       y       z     vdW  Elec       q    Type
REMARK                         _______ _______ _______ _____ _____    ______ ____
ROOT
ATOM      1  O   UNL     1      43.259  -5.349  14.316  0.00  0.00    +0.000 OA
ATOM      2  O   UNL     1      42.089  -5.329  12.344  0.00  0.00    +0.000 OA
ATOM      3  O   UNL     1      48.517   0.292  10.956  0.00  0.00    +0.000 OA
ATOM      4  O   UNL     1      47.350  -0.351   8.945  0.00  0.00    +0.000 OA
ATOM      5  C   UNL     1      45.061  -4.032  13.697  0.00  0.00    +0.000 C 
ATOM      6  C   UNL     1      43.938  -3.792  12.706  0.00  0.00    +0.000 C 
ATOM      7  C   UNL     1      45.914  -2.778  13.847  0.00  0.00    +0.000 C 
ATOM      8  C   UNL     1      44.486  -3.663  11.286  0.00  0.00    +0.000 C 
ATOM      9  C   UNL     1      46.264  -2.193  12.479  0.00  0.00    +0.000 A 
ATOM     10  C   UNL     1      45.572  -2.574  11.283  0.00  0.00    +0.000 A 
ATOM     11  C   UNL     1      44.283  -4.522  14.892  0.00  0.00    +0.000 C 
ATOM     12  C   UNL     1      43.002  -4.915  13.039  0.00  0.00    +0.000 C 
ATOM     13  C   UNL     1      47.276  -1.217  12.410  0.00  0.00    +0.000 A 
ATOM     14  C   UNL     1      45.909  -1.973  10.053  0.00  0.00    +0.000 A 
ATOM     15  C   UNL     1      47.570  -0.657  11.185  0.00  0.00    +0.000 A 
ATOM     16  C   UNL     1      46.906  -1.023  10.042  0.00  0.00    +0.000 A 
ATOM     17  C   UNL     1      48.373   0.480   9.532  0.00  0.00    +0.000 C 
ENDROOT
BRANCH   8  18
ATOM     18  C   UNL     1      44.949  -4.977  10.651  0.00  0.00    +0.000 A 
ATOM     19  C   UNL     1      44.129  -5.749   9.810  0.00  0.00    +0.000 A 
ATOM     20  C   UNL     1      46.253  -5.436  10.902  0.00  0.00    +0.000 A 
ATOM     21  C   UNL     1      46.725  -6.609  10.313  0.00  0.00    +0.000 A 
ATOM     22  C   UNL     1      44.573  -6.943   9.223  0.00  0.00    +0.000 A 
ATOM     23  C   UNL     1      45.878  -7.363   9.483  0.00  0.00    +0.000 A 
BRANCH  21  24
ATOM     24  O   UNL     1      47.988  -7.131  10.475  0.00  0.00    +0.000 OA
ATOM     25  C   UNL     1      49.006  -6.212  10.863  0.00  0.00    +0.000 C 
ENDBRANCH  21  24
BRANCH  22  26
ATOM     26  O   UNL     1      43.622  -7.538   8.439  0.00  0.00    +0.000 OA
ATOM     27  C   UNL     1      42.345  -6.923   8.358  0.00  0.00    +0.000 C 
ENDBRANCH  22  26
BRANCH  23  28
ATOM     28  O   UNL     1      46.395  -8.511   8.936  0.00  0.00    +0.000 OA
ATOM     29  H   UNL     1      46.062  -9.233   9.505  0.00  0.00    +0.000 HD
ENDBRANCH  23  28
ENDBRANCH   8  18
BRANCH   7  30
ATOM     30  O   UNL     1      45.169  -1.777  14.541  0.00  0.00    +0.000 OA
BRANCH  30  34
ATOM     31  O   UNL     1      46.324   0.152  15.183  0.00  0.00    +0.000 OA
ATOM     32  O   UNL     1      45.753   3.721  14.502  0.00  0.00    +0.000 OA
ATOM     33  O   UNL     1      47.842   3.477  15.581  0.00  0.00    +0.000 OA
ATOM     34  C   UNL     1      45.527  -0.444  14.157  0.00  0.00    +0.000 C 
ATOM     35  C   UNL     1      44.207   0.326  13.924  0.00  0.00    +0.000 C 
ATOM     36  C   UNL     1      45.403   2.363  14.791  0.00  0.00    +0.000 C 
ATOM     37  C   UNL     1      44.468   1.823  13.708  0.00  0.00    +0.000 C 
ATOM     38  C   UNL     1      46.659   1.498  14.855  0.00  0.00    +0.000 C 
ATOM     39  C   UNL     1      47.586   2.110  15.899  0.00  0.00    +0.000 C 
ATOM     40  C   UNL     1      46.632   4.232  15.509  0.00  0.00    +0.000 C 
ATOM     41  C   UNL     1      46.989   5.659  15.137  0.00  0.00    +0.000 C 
BRANCH  35  42
ATOM     42  O   UNL     1      43.537  -0.226  12.778  0.00  0.00    +0.000 OA
ATOM     43  H   UNL     1      43.452  -1.184  12.951  0.00  0.00    +0.000 HD
ENDBRANCH  35  42
BRANCH  37  44
ATOM     44  O   UNL     1      43.234   2.556  13.767  0.00  0.00    +0.000 OA
ATOM     45  H   UNL     1      42.650   2.151  13.098  0.00  0.00    +0.000 HD
ENDBRANCH  37  44
ENDBRANCH  30  34
ENDBRANCH   7  30
TORSDOF 8
ENDMDL
MODEL 4
REMARK VINA RESULT:      -8.3      3.788     10.346
REMARK  Name = 
REMARK  11 active torsions:
REMARK  status: ('A' for Active; 'I' for Inactive)
REMARK    1  A    between atoms: O_1  and  C_16
REMARK    2  A    between atoms: O_1  and  C_22
REMARK    3  A    between atoms: O_6  and  C_24
REMARK    4  A    between atoms: O_8  and  C_26
REMARK    5  A    between atoms: O_11  and  C_36
REMARK    6  A    between atoms: O_11  and  C_41
REMARK    7  A    between atoms: O_12  and  C_37
REMARK    8  A    between atoms: O_12  and  C_42
REMARK    9  A    between atoms: O_13  and  C_39
REMARK   10  A    between atoms: C_17  and  C_23
REMARK   11  A    between atoms: C_35  and  C_40
REMARK                            x       y       z     vdW  Elec       q    Type
REMARK                         _______ _______ _______ _____ _____    ______ ____
ROOT
ATOM      1  O   UNL     1      44.111  -4.817  12.127  0.00  0.00    +0.000 OA
ATOM      2  O   UNL     1      44.859  -5.878  10.238  0.00  0.00    +0.000 OA
ATOM      3  O   UNL     1      48.759   1.837   9.919  0.00  0.00    +0.000 OA
ATOM      4  O   UNL     1      49.675   0.231   8.369  0.00  0.00    +0.000 OA
ATOM      5  C   UNL     1      45.431  -2.915  12.038  0.00  0.00    +0.000 C 
ATOM      6  C   UNL     1      45.425  -3.551  10.662  0.00  0.00    +0.000 C 
ATOM      7  C   UNL     1      45.592  -1.404  11.924  0.00  0.00    +0.000 C 
ATOM      8  C   UNL     1      46.809  -3.472  10.020  0.00  0.00    +0.000 C 
ATOM      9  C   UNL     1      46.719  -1.050  10.954  0.00  0.00    +0.000 A 
ATOM     10  C   UNL     1      47.265  -2.003  10.033  0.00  0.00    +0.000 A 
ATOM     11  C   UNL     1      44.147  -3.463  12.608  0.00  0.00    +0.000 C 
ATOM     12  C   UNL     1      44.821  -4.892  10.955  0.00  0.00    +0.000 C 
ATOM     13  C   UNL     1      47.202   0.272  10.946  0.00  0.00    +0.000 A 
ATOM     14  C   UNL     1      48.276  -1.611   9.133  0.00  0.00    +0.000 A 
ATOM     15  C   UNL     1      48.191   0.608  10.047  0.00  0.00    +0.000 A 
ATOM     16  C   UNL     1      48.712  -0.305   9.166  0.00  0.00    +0.000 A 
ATOM     17  C   UNL     1      49.701   1.590   8.853  0.00  0.00    +0.000 C 
ENDROOT
BRANCH   8  18
ATOM     18  C   UNL     1      47.848  -4.430  10.608  0.00  0.00    +0.000 A 
ATOM     19  C   UNL     1      48.382  -5.513   9.887  0.00  0.00    +0.000 A 
ATOM     20  C   UNL     1      48.308  -4.221  11.919  0.00  0.00    +0.000 A 
ATOM     21  C   UNL     1      49.281  -5.050  12.477  0.00  0.00    +0.000 A 
ATOM     22  C   UNL     1      49.345  -6.373  10.434  0.00  0.00    +0.000 A 
ATOM     23  C   UNL     1      49.789  -6.129  11.734  0.00  0.00    +0.000 A 
BRANCH  21  24
ATOM     24  O   UNL     1      49.813  -4.918  13.739  0.00  0.00    +0.000 OA
ATOM     25  C   UNL     1      48.918  -4.482  14.759  0.00  0.00    +0.000 C 
ENDBRANCH  21  24
BRANCH  22  26
ATOM     26  O   UNL     1      49.732  -7.360   9.568  0.00  0.00    +0.000 OA
ATOM     27  C   UNL     1      48.734  -8.241   9.072  0.00  0.00    +0.000 C 
ENDBRANCH  22  26
BRANCH  23  28
ATOM     28  O   UNL     1      50.740  -6.914  12.337  0.00  0.00    +0.000 OA
ATOM     29  H   UNL     1      51.534  -6.348  12.395  0.00  0.00    +0.000 HD
ENDBRANCH  23  28
ENDBRANCH   8  18
BRANCH   7  30
ATOM     30  O   UNL     1      44.397  -0.838  11.386  0.00  0.00    +0.000 OA
BRANCH  30  34
ATOM     31  O   UNL     1      45.003   0.873  12.860  0.00  0.00    +0.000 OA
ATOM     32  O   UNL     1      43.178   2.576  15.562  0.00  0.00    +0.000 OA
ATOM     33  O   UNL     1      45.229   3.695  15.206  0.00  0.00    +0.000 OA
ATOM     34  C   UNL     1      43.919   0.284  12.139  0.00  0.00    +0.000 C 
ATOM     35  C   UNL     1      42.812  -0.246  13.080  0.00  0.00    +0.000 C 
ATOM     36  C   UNL     1      43.591   1.479  14.739  0.00  0.00    +0.000 C 
ATOM     37  C   UNL     1      42.372   0.833  14.080  0.00  0.00    +0.000 C 
ATOM     38  C   UNL     1      44.554   1.964  13.659  0.00  0.00    +0.000 C 
ATOM     39  C   UNL     1      45.718   2.657  14.358  0.00  0.00    +0.000 C 
ATOM     40  C   UNL     1      44.315   3.189  16.178  0.00  0.00    +0.000 C 
ATOM     41  C   UNL     1      43.820   4.356  17.012  0.00  0.00    +0.000 C 
BRANCH  35  42
ATOM     42  O   UNL     1      41.688  -0.672  12.291  0.00  0.00    +0.000 OA
ATOM     43  H   UNL     1      41.645  -0.060  11.531  0.00  0.00    +0.000 HD
ENDBRANCH  35  42
BRANCH  37  44
ATOM     44  O   UNL     1      41.555   0.251  15.108  0.00  0.00    +0.000 OA
ATOM     45  H   UNL     1      41.870   0.632  15.950  0.00  0.00    +0.000 HD
ENDBRANCH  37  44
ENDBRANCH  30  34
ENDBRANCH   7  30
TORSDOF 8
ENDMDL
MODEL 5
REMARK VINA RESULT:      -8.1      2.357      5.065
REMARK  Name = 
REMARK  11 active torsions:
REMARK  status: ('A' for Active; 'I' for Inactive)
REMARK    1  A    between atoms: O_1  and  C_16
REMARK    2  A    between atoms: O_1  and  C_22
REMARK    3  A    between atoms: O_6  and  C_24
REMARK    4  A    between atoms: O_8  and  C_26
REMARK    5  A    between atoms: O_11  and  C_36
REMARK    6  A    between atoms: O_11  and  C_41
REMARK    7  A    between atoms: O_12  and  C_37
REMARK    8  A    between atoms: O_12  and  C_42
REMARK    9  A    between atoms: O_13  and  C_39
REMARK   10  A    between atoms: C_17  and  C_23
REMARK   11  A    between atoms: C_35  and  C_40
REMARK                            x       y       z     vdW  Elec       q    Type
REMARK                         _______ _______ _______ _____ _____    ______ ____
ROOT
ATOM      1  O   UNL     1      50.136  -5.293  10.048  0.00  0.00    +0.000 OA
ATOM      2  O   UNL     1      49.534  -3.082   9.957  0.00  0.00    +0.000 OA
ATOM      3  O   UNL     1      41.962  -7.236  10.448  0.00  0.00    +0.000 OA
ATOM      4  O   UNL     1      41.785  -4.863  10.840  0.00  0.00    +0.000 OA
ATOM      5  C   UNL     1      48.057  -6.233  10.445  0.00  0.00    +0.000 C 
ATOM      6  C   UNL     1      47.847  -4.832   9.903  0.00  0.00    +0.000 C 
ATOM      7  C   UNL     1      46.900  -7.138  10.040  0.00  0.00    +0.000 C 
ATOM      8  C   UNL     1      46.692  -4.138  10.623  0.00  0.00    +0.000 C 
ATOM      9  C   UNL     1      45.559  -6.452  10.297  0.00  0.00    +0.000 A 
ATOM     10  C   UNL     1      45.451  -5.042  10.531  0.00  0.00    +0.000 A 
ATOM     11  C   UNL     1      49.433  -6.539   9.911  0.00  0.00    +0.000 C 
ATOM     12  C   UNL     1      49.230  -4.262  10.003  0.00  0.00    +0.000 C 
ATOM     13  C   UNL     1      44.390  -7.237  10.260  0.00  0.00    +0.000 A 
ATOM     14  C   UNL     1      44.183  -4.456  10.723  0.00  0.00    +0.000 A 
ATOM     15  C   UNL     1      43.173  -6.618  10.453  0.00  0.00    +0.000 A 
ATOM     16  C   UNL     1      43.073  -5.268  10.676  0.00  0.00    +0.000 A 
ATOM     17  C   UNL     1      41.086  -6.116  10.696  0.00  0.00    +0.000 C 
ENDROOT
BRANCH   8  18
ATOM     18  C   UNL     1      47.002  -3.686  12.052  0.00  0.00    +0.000 A 
ATOM     19  C   UNL     1      47.433  -4.571  13.056  0.00  0.00    +0.000 A 
ATOM     20  C   UNL     1      46.866  -2.327  12.386  0.00  0.00    +0.000 A 
ATOM     21  C   UNL     1      47.174  -1.871  13.668  0.00  0.00    +0.000 A 
ATOM     22  C   UNL     1      47.728  -4.139  14.357  0.00  0.00    +0.000 A 
ATOM     23  C   UNL     1      47.595  -2.782  14.651  0.00  0.00    +0.000 A 
BRANCH  21  24
ATOM     24  O   UNL     1      47.098  -0.563  14.088  0.00  0.00    +0.000 OA
ATOM     25  C   UNL     1      45.787  -0.028  14.252  0.00  0.00    +0.000 C 
ENDBRANCH  21  24
BRANCH  22  26
ATOM     26  O   UNL     1      48.131  -5.158  15.178  0.00  0.00    +0.000 OA
ATOM     27  C   UNL     1      47.311  -5.481  16.292  0.00  0.00    +0.000 C 
ENDBRANCH  22  26
BRANCH  23  28
ATOM     28  O   UNL     1      47.878  -2.276  15.895  0.00  0.00    +0.000 OA
ATOM     29  H   UNL     1      47.012  -2.012  16.263  0.00  0.00    +0.000 HD
ENDBRANCH  23  28
ENDBRANCH   8  18
BRANCH   7  30
ATOM     30  O   UNL     1      46.966  -7.395   8.637  0.00  0.00    +0.000 OA
BRANCH  30  34
ATOM     31  O   UNL     1      47.637  -9.633   8.718  0.00  0.00    +0.000 OA
ATOM     32  O   UNL     1      47.033 -12.482   6.472  0.00  0.00    +0.000 OA
ATOM     33  O   UNL     1      48.089 -13.270   8.434  0.00  0.00    +0.000 OA
ATOM     34  C   UNL     1      46.606  -8.739   8.295  0.00  0.00    +0.000 C 
ATOM     35  C   UNL     1      46.398  -8.771   6.763  0.00  0.00    +0.000 C 
ATOM     36  C   UNL     1      47.297 -11.121   6.832  0.00  0.00    +0.000 C 
ATOM     37  C   UNL     1      46.211 -10.210   6.260  0.00  0.00    +0.000 C 
ATOM     38  C   UNL     1      47.333 -10.976   8.351  0.00  0.00    +0.000 C 
ATOM     39  C   UNL     1      48.381 -11.947   8.881  0.00  0.00    +0.000 C 
ATOM     40  C   UNL     1      48.042 -13.342   7.009  0.00  0.00    +0.000 C 
ATOM     41  C   UNL     1      47.696 -14.768   6.621  0.00  0.00    +0.000 C 
BRANCH  35  42
ATOM     42  O   UNL     1      45.247  -7.979   6.427  0.00  0.00    +0.000 OA
ATOM     43  H   UNL     1      45.198  -7.275   7.103  0.00  0.00    +0.000 HD
ENDBRANCH  35  42
BRANCH  37  44
ATOM     44  O   UNL     1      46.295 -10.248   4.826  0.00  0.00    +0.000 OA
ATOM     45  H   UNL     1      47.018 -10.870   4.616  0.00  0.00    +0.000 HD
ENDBRANCH  37  44
ENDBRANCH  30  34
ENDBRANCH   7  30
TORSDOF 8
ENDMDL
MODEL 6
REMARK VINA RESULT:      -7.7     35.265     38.724
REMARK  Name = 
REMARK  11 active torsions:
REMARK  status: ('A' for Active; 'I' for Inactive)
REMARK    1  A    between atoms: O_1  and  C_16
REMARK    2  A    between atoms: O_1  and  C_22
REMARK    3  A    between atoms: O_6  and  C_24
REMARK    4  A    between atoms: O_8  and  C_26
REMARK    5  A    between atoms: O_11  and  C_36
REMARK    6  A    between atoms: O_11  and  C_41
REMARK    7  A    between atoms: O_12  and  C_37
REMARK    8  A    between atoms: O_12  and  C_42
REMARK    9  A    between atoms: O_13  and  C_39
REMARK   10  A    between atoms: C_17  and  C_23
REMARK   11  A    between atoms: C_35  and  C_40
REMARK                            x       y       z     vdW  Elec       q    Type
REMARK                         _______ _______ _______ _____ _____    ______ ____
ROOT
ATOM      1  O   UNL     1      21.410  25.209  -1.455  0.00  0.00    +0.000 OA
ATOM      2  O   UNL     1      20.980  26.183   0.576  0.00  0.00    +0.000 OA
ATOM      3  O   UNL     1      21.268  17.731   2.395  0.00  0.00    +0.000 OA
ATOM      4  O   UNL     1      21.336  19.139   4.352  0.00  0.00    +0.000 OA
ATOM      5  C   UNL     1      21.722  23.020  -0.763  0.00  0.00    +0.000 C 
ATOM      6  C   UNL     1      20.988  23.763   0.336  0.00  0.00    +0.000 C 
ATOM      7  C   UNL     1      21.327  21.549  -0.764  0.00  0.00    +0.000 C 
ATOM      8  C   UNL     1      21.500  23.342   1.713  0.00  0.00    +0.000 C 
ATOM      9  C   UNL     1      21.364  20.975   0.651  0.00  0.00    +0.000 A 
ATOM     10  C   UNL     1      21.406  21.810   1.816  0.00  0.00    +0.000 A 
ATOM     11  C   UNL     1      21.366  23.864  -1.961  0.00  0.00    +0.000 C 
ATOM     12  C   UNL     1      21.147  25.186  -0.107  0.00  0.00    +0.000 C 
ATOM     13  C   UNL     1      21.316  19.576   0.807  0.00  0.00    +0.000 A 
ATOM     14  C   UNL     1      21.398  21.227   3.100  0.00  0.00    +0.000 A 
ATOM     15  C   UNL     1      21.311  19.053   2.082  0.00  0.00    +0.000 A 
ATOM     16  C   UNL     1      21.349  19.855   3.195  0.00  0.00    +0.000 A 
ATOM     17  C   UNL     1      21.287  17.793   3.837  0.00  0.00    +0.000 C 
ENDROOT
BRANCH   8  18
ATOM     18  C   UNL     1      22.883  23.885   2.081  0.00  0.00    +0.000 A 
ATOM     19  C   UNL     1      24.046  23.561   1.361  0.00  0.00    +0.000 A 
ATOM     20  C   UNL     1      23.008  24.757   3.176  0.00  0.00    +0.000 A 
ATOM     21  C   UNL     1      24.245  25.301   3.521  0.00  0.00    +0.000 A 
ATOM     22  C   UNL     1      25.304  24.079   1.701  0.00  0.00    +0.000 A 
ATOM     23  C   UNL     1      25.391  24.952   2.786  0.00  0.00    +0.000 A 
BRANCH  21  24
ATOM     24  O   UNL     1      24.470  26.178   4.556  0.00  0.00    +0.000 OA
ATOM     25  C   UNL     1      23.678  25.990   5.727  0.00  0.00    +0.000 C 
ENDBRANCH  21  24
BRANCH  22  26
ATOM     26  O   UNL     1      26.303  23.640   0.874  0.00  0.00    +0.000 OA
ATOM     27  C   UNL     1      25.940  23.164  -0.414  0.00  0.00    +0.000 C 
ENDBRANCH  22  26
BRANCH  23  28
ATOM     28  O   UNL     1      26.581  25.514   3.175  0.00  0.00    +0.000 OA
ATOM     29  H   UNL     1      27.049  24.804   3.657  0.00  0.00    +0.000 HD
ENDBRANCH  23  28
ENDBRANCH   8  18
BRANCH   7  30
ATOM     30  O   UNL     1      19.981  21.418  -1.223  0.00  0.00    +0.000 OA
BRANCH  30  34
ATOM     31  O   UNL     1      20.733  20.640  -3.295  0.00  0.00    +0.000 OA
ATOM     32  O   UNL     1      19.046  18.841  -6.024  0.00  0.00    +0.000 OA
ATOM     33  O   UNL     1      21.362  18.927  -6.487  0.00  0.00    +0.000 OA
ATOM     34  C   UNL     1      19.823  20.401  -2.219  0.00  0.00    +0.000 C 
ATOM     35  C   UNL     1      18.348  20.449  -2.680  0.00  0.00    +0.000 C 
ATOM     36  C   UNL     1      19.186  19.789  -4.960  0.00  0.00    +0.000 C 
ATOM     37  C   UNL     1      18.117  19.539  -3.895  0.00  0.00    +0.000 C 
ATOM     38  C   UNL     1      20.569  19.671  -4.327  0.00  0.00    +0.000 C 
ATOM     39  C   UNL     1      21.599  19.862  -5.436  0.00  0.00    +0.000 C 
ATOM     40  C   UNL     1      20.046  19.066  -7.022  0.00  0.00    +0.000 C 
ATOM     41  C   UNL     1      19.867  18.018  -8.106  0.00  0.00    +0.000 C 
BRANCH  35  42
ATOM     42  O   UNL     1      17.501  20.042  -1.593  0.00  0.00    +0.000 OA
ATOM     43  H   UNL     1      17.012  20.842  -1.318  0.00  0.00    +0.000 HD
ENDBRANCH  35  42
BRANCH  37  44
ATOM     44  O   UNL     1      16.829  19.802  -4.474  0.00  0.00    +0.000 OA
ATOM     45  H   UNL     1      16.962  20.537  -5.102  0.00  0.00    +0.000 HD
ENDBRANCH  37  44
ENDBRANCH  30  34
ENDBRANCH   7  30
TORSDOF 8
ENDMDL
MODEL 7
REMARK VINA RESULT:      -7.7     18.833     22.933
REMARK  Name = 
REMARK  11 active torsions:
REMARK  status: ('A' for Active; 'I' for Inactive)
REMARK    1  A    between atoms: O_1  and  C_16
REMARK    2  A    between atoms: O_1  and  C_22
REMARK    3  A    between atoms: O_6  and  C_24
REMARK    4  A    between atoms: O_8  and  C_26
REMARK    5  A    between atoms: O_11  and  C_36
REMARK    6  A    between atoms: O_11  and  C_41
REMARK    7  A    between atoms: O_12  and  C_37
REMARK    8  A    between atoms: O_12  and  C_42
REMARK    9  A    between atoms: O_13  and  C_39
REMARK   10  A    between atoms: C_17  and  C_23
REMARK   11  A    between atoms: C_35  and  C_40
REMARK                            x       y       z     vdW  Elec       q    Type
REMARK                         _______ _______ _______ _____ _____    ______ ____
ROOT
ATOM      1  O   UNL     1      24.271  -0.765  14.802  0.00  0.00    +0.000 OA
ATOM      2  O   UNL     1      23.003  -0.359  12.935  0.00  0.00    +0.000 OA
ATOM      3  O   UNL     1      24.155  -8.931  12.789  0.00  0.00    +0.000 OA
ATOM      4  O   UNL     1      22.450  -8.164  11.266  0.00  0.00    +0.000 OA
ATOM      5  C   UNL     1      24.259  -3.081  14.768  0.00  0.00    +0.000 C 
ATOM      6  C   UNL     1      23.867  -2.586  13.389  0.00  0.00    +0.000 C 
ATOM      7  C   UNL     1      24.979  -4.420  14.666  0.00  0.00    +0.000 C 
ATOM      8  C   UNL     1      22.755  -3.450  12.797  0.00  0.00    +0.000 C 
ATOM      9  C   UNL     1      24.227  -5.373  13.739  0.00  0.00    +0.000 A 
ATOM     10  C   UNL     1      23.212  -4.919  12.833  0.00  0.00    +0.000 A 
ATOM     11  C   UNL     1      25.021  -1.889  15.290  0.00  0.00    +0.000 C 
ATOM     12  C   UNL     1      23.612  -1.133  13.655  0.00  0.00    +0.000 C 
ATOM     13  C   UNL     1      24.578  -6.736  13.754  0.00  0.00    +0.000 A 
ATOM     14  C   UNL     1      22.578  -5.836  11.971  0.00  0.00    +0.000 A 
ATOM     15  C   UNL     1      23.930  -7.594  12.892  0.00  0.00    +0.000 A 
ATOM     16  C   UNL     1      22.960  -7.158  12.026  0.00  0.00    +0.000 A 
ATOM     17  C   UNL     1      23.211  -9.287  11.757  0.00  0.00    +0.000 C 
ENDROOT
BRANCH   8  18
ATOM     18  C   UNL     1      21.372  -3.236  13.417  0.00  0.00    +0.000 A 
ATOM     19  C   UNL     1      21.103  -3.463  14.779  0.00  0.00    +0.000 A 
ATOM     20  C   UNL     1      20.320  -2.781  12.605  0.00  0.00    +0.000 A 
ATOM     21  C   UNL     1      19.055  -2.539  13.141  0.00  0.00    +0.000 A 
ATOM     22  C   UNL     1      19.834  -3.247  15.336  0.00  0.00    +0.000 A 
ATOM     23  C   UNL     1      18.815  -2.782  14.503  0.00  0.00    +0.000 A 
BRANCH  21  24
ATOM     24  O   UNL     1      17.967  -2.072  12.438  0.00  0.00    +0.000 OA
ATOM     25  C   UNL     1      17.419  -2.956  11.463  0.00  0.00    +0.000 C 
ENDBRANCH  21  24
BRANCH  22  26
ATOM     26  O   UNL     1      19.786  -3.525  16.675  0.00  0.00    +0.000 OA
ATOM     27  C   UNL     1      20.812  -4.339  17.224  0.00  0.00    +0.000 C 
ENDBRANCH  22  26
BRANCH  23  28
ATOM     28  O   UNL     1      17.550  -2.532  14.973  0.00  0.00    +0.000 OA
ATOM     29  H   UNL     1      17.148  -1.939  14.308  0.00  0.00    +0.000 HD
ENDBRANCH  23  28
ENDBRANCH   8  18
BRANCH   7  30
ATOM     30  O   UNL     1      26.271  -4.222  14.089  0.00  0.00    +0.000 OA
BRANCH  30  34
ATOM     31  O   UNL     1      26.845  -5.360  16.049  0.00  0.00    +0.000 OA
ATOM     32  O   UNL     1      30.050  -5.830  17.791  0.00  0.00    +0.000 OA
ATOM     33  O   UNL     1      28.417  -7.194  18.821  0.00  0.00    +0.000 OA
ATOM     34  C   UNL     1      27.303  -4.960  14.757  0.00  0.00    +0.000 C 
ATOM     35  C   UNL     1      28.537  -4.032  14.836  0.00  0.00    +0.000 C 
ATOM     36  C   UNL     1      29.049  -5.135  17.040  0.00  0.00    +0.000 C 
ATOM     37  C   UNL     1      29.636  -4.646  15.716  0.00  0.00    +0.000 C 
ATOM     38  C   UNL     1      27.865  -6.056  16.761  0.00  0.00    +0.000 C 
ATOM     39  C   UNL     1      27.355  -6.569  18.103  0.00  0.00    +0.000 C 
ATOM     40  C   UNL     1      29.506  -6.295  19.030  0.00  0.00    +0.000 C 
ATOM     41  C   UNL     1      30.600  -7.045  19.768  0.00  0.00    +0.000 C 
BRANCH  35  42
ATOM     42  O   UNL     1      29.040  -3.802  13.509  0.00  0.00    +0.000 OA
ATOM     43  H   UNL     1      29.995  -4.006  13.544  0.00  0.00    +0.000 HD
ENDBRANCH  35  42
BRANCH  37  44
ATOM     44  O   UNL     1      30.647  -3.666  16.001  0.00  0.00    +0.000 OA
ATOM     45  H   UNL     1      30.398  -3.264  16.854  0.00  0.00    +0.000 HD
ENDBRANCH  37  44
ENDBRANCH  30  34
ENDBRANCH   7  30
TORSDOF 8
ENDMDL
MODEL 8
REMARK VINA RESULT:      -7.6     19.047     23.147
REMARK  Name = 
REMARK  11 active torsions:
REMARK  status: ('A' for Active; 'I' for Inactive)
REMARK    1  A    between atoms: O_1  and  C_16
REMARK    2  A    between atoms: O_1  and  C_22
REMARK    3  A    between atoms: O_6  and  C_24
REMARK    4  A    between atoms: O_8  and  C_26
REMARK    5  A    between atoms: O_11  and  C_36
REMARK    6  A    between atoms: O_11  and  C_41
REMARK    7  A    between atoms: O_12  and  C_37
REMARK    8  A    between atoms: O_12  and  C_42
REMARK    9  A    between atoms: O_13  and  C_39
REMARK   10  A    between atoms: C_17  and  C_23
REMARK   11  A    between atoms: C_35  and  C_40
REMARK                            x       y       z     vdW  Elec       q    Type
REMARK                         _______ _______ _______ _____ _____    ______ ____
ROOT
ATOM      1  O   UNL     1      24.173  -0.898  14.670  0.00  0.00    +0.000 OA
ATOM      2  O   UNL     1      22.878  -0.382  12.850  0.00  0.00    +0.000 OA
ATOM      3  O   UNL     1      23.719  -8.979  12.376  0.00  0.00    +0.000 OA
ATOM      4  O   UNL     1      22.008  -8.098  10.923  0.00  0.00    +0.000 OA
ATOM      5  C   UNL     1      24.078  -3.210  14.555  0.00  0.00    +0.000 C 
ATOM      6  C   UNL     1      23.673  -2.653  13.205  0.00  0.00    +0.000 C 
ATOM      7  C   UNL     1      24.748  -4.569  14.389  0.00  0.00    +0.000 C 
ATOM      8  C   UNL     1      22.517  -3.456  12.610  0.00  0.00    +0.000 C 
ATOM      9  C   UNL     1      23.941  -5.461  13.447  0.00  0.00    +0.000 A 
ATOM     10  C   UNL     1      22.922  -4.939  12.584  0.00  0.00    +0.000 A 
ATOM     11  C   UNL     1      24.894  -2.065  15.100  0.00  0.00    +0.000 C 
ATOM     12  C   UNL     1      23.476  -1.202  13.527  0.00  0.00    +0.000 C 
ATOM     13  C   UNL     1      24.243  -6.835  13.407  0.00  0.00    +0.000 A 
ATOM     14  C   UNL     1      22.235  -5.803  11.706  0.00  0.00    +0.000 A 
ATOM     15  C   UNL     1      23.545  -7.639  12.531  0.00  0.00    +0.000 A 
ATOM     16  C   UNL     1      22.571  -7.138  11.705  0.00  0.00    +0.000 A 
ATOM     17  C   UNL     1      22.740  -9.263  11.356  0.00  0.00    +0.000 C 
ENDROOT
BRANCH   8  18
ATOM     18  C   UNL     1      21.157  -3.216  13.271  0.00  0.00    +0.000 A 
ATOM     19  C   UNL     1      20.026  -2.786  12.554  0.00  0.00    +0.000 A 
ATOM     20  C   UNL     1      21.016  -3.443  14.650  0.00  0.00    +0.000 A 
ATOM     21  C   UNL     1      19.784  -3.270  15.282  0.00  0.00    +0.000 A 
ATOM     22  C   UNL     1      18.782  -2.585  13.171  0.00  0.00    +0.000 A 
ATOM     23  C   UNL     1      18.674  -2.833  14.540  0.00  0.00    +0.000 A 
BRANCH  21  24
ATOM     24  O   UNL     1      19.536  -3.487  16.618  0.00  0.00    +0.000 OA
ATOM     25  C   UNL     1      20.416  -2.844  17.536  0.00  0.00    +0.000 C 
ENDBRANCH  21  24
BRANCH  22  26
ATOM     26  O   UNL     1      17.815  -2.169  12.297  0.00  0.00    +0.000 OA
ATOM     27  C   UNL     1      17.525  -0.780  12.235  0.00  0.00    +0.000 C 
ENDBRANCH  22  26
BRANCH  23  28
ATOM     28  O   UNL     1      17.490  -2.675  15.217  0.00  0.00    +0.000 OA
ATOM     29  H   UNL     1      17.200  -3.583  15.432  0.00  0.00    +0.000 HD
ENDBRANCH  23  28
ENDBRANCH   8  18
BRANCH   7  30
ATOM     30  O   UNL     1      26.032  -4.396  13.788  0.00  0.00    +0.000 OA
BRANCH  30  34
ATOM     31  O   UNL     1      26.592  -5.496  15.773  0.00  0.00    +0.000 OA
ATOM     32  O   UNL     1      29.737  -5.743  17.664  0.00  0.00    +0.000 OA
ATOM     33  O   UNL     1      28.159  -7.223  18.616  0.00  0.00    +0.000 OA
ATOM     34  C   UNL     1      27.081  -5.060  14.503  0.00  0.00    +0.000 C 
ATOM     35  C   UNL     1      28.241  -4.047  14.641  0.00  0.00    +0.000 C 
ATOM     36  C   UNL     1      28.726  -5.118  16.866  0.00  0.00    +0.000 C 
ATOM     37  C   UNL     1      29.338  -4.585  15.571  0.00  0.00    +0.000 C 
ATOM     38  C   UNL     1      27.624  -6.120  16.532  0.00  0.00    +0.000 C 
ATOM     39  C   UNL     1      27.089  -6.672  17.849  0.00  0.00    +0.000 C 
ATOM     40  C   UNL     1      29.170  -6.250  18.876  0.00  0.00    +0.000 C 
ATOM     41  C   UNL     1      30.279  -6.923  19.665  0.00  0.00    +0.000 C 
BRANCH  35  42
ATOM     42  O   UNL     1      28.788  -3.779  13.339  0.00  0.00    +0.000 OA
ATOM     43  H   UNL     1      28.996  -4.650  12.949  0.00  0.00    +0.000 HD
ENDBRANCH  35  42
BRANCH  37  44
ATOM     44  O   UNL     1      30.263  -3.537  15.903  0.00  0.00    +0.000 OA
ATOM     45  H   UNL     1      30.357  -3.561  16.875  0.00  0.00    +0.000 HD
ENDBRANCH  37  44
ENDBRANCH  30  34
ENDBRANCH   7  30
TORSDOF 8
ENDMDL
MODEL 9
REMARK VINA RESULT:      -7.2      5.474      9.429
REMARK  Name = 
REMARK  11 active torsions:
REMARK  status: ('A' for Active; 'I' for Inactive)
REMARK    1  A    between atoms: O_1  and  C_16
REMARK    2  A    between atoms: O_1  and  C_22
REMARK    3  A    between atoms: O_6  and  C_24
REMARK    4  A    between atoms: O_8  and  C_26
REMARK    5  A    between atoms: O_11  and  C_36
REMARK    6  A    between atoms: O_11  and  C_41
REMARK    7  A    between atoms: O_12  and  C_37
REMARK    8  A    between atoms: O_12  and  C_42
REMARK    9  A    between atoms: O_13  and  C_39
REMARK   10  A    between atoms: C_17  and  C_23
REMARK   11  A    between atoms: C_35  and  C_40
REMARK                            x       y       z     vdW  Elec       q    Type
REMARK                         _______ _______ _______ _____ _____    ______ ____
ROOT
ATOM      1  O   UNL     1      48.578  -5.174  13.294  0.00  0.00    +0.000 OA
ATOM      2  O   UNL     1      50.460  -5.899  12.204  0.00  0.00    +0.000 OA
ATOM      3  O   UNL     1      48.718   1.690   8.434  0.00  0.00    +0.000 OA
ATOM      4  O   UNL     1      50.915   0.839   7.915  0.00  0.00    +0.000 OA
ATOM      5  C   UNL     1      48.405  -3.053  12.378  0.00  0.00    +0.000 C 
ATOM      6  C   UNL     1      49.306  -3.883  11.484  0.00  0.00    +0.000 C 
ATOM      7  C   UNL     1      47.659  -2.009  11.557  0.00  0.00    +0.000 C 
ATOM      8  C   UNL     1      50.480  -3.050  10.971  0.00  0.00    +0.000 C 
ATOM      9  C   UNL     1      48.611  -1.282  10.609  0.00  0.00    +0.000 A 
ATOM     10  C   UNL     1      49.918  -1.785  10.300  0.00  0.00    +0.000 A 
ATOM     11  C   UNL     1      47.610  -4.137  13.061  0.00  0.00    +0.000 C 
ATOM     12  C   UNL     1      49.571  -5.077  12.351  0.00  0.00    +0.000 C 
ATOM     13  C   UNL     1      48.164  -0.098   9.992  0.00  0.00    +0.000 A 
ATOM     14  C   UNL     1      50.739  -1.094   9.386  0.00  0.00    +0.000 A 
ATOM     15  C   UNL     1      49.003   0.542   9.106  0.00  0.00    +0.000 A 
ATOM     16  C   UNL     1      50.253   0.059   8.811  0.00  0.00    +0.000 A 
ATOM     17  C   UNL     1      49.936   1.873   7.682  0.00  0.00    +0.000 C 
ENDROOT
BRANCH   8  18
ATOM     18  C   UNL     1      51.561  -2.749  12.011  0.00  0.00    +0.000 A 
ATOM     19  C   UNL     1      51.365  -1.852  13.077  0.00  0.00    +0.000 A 
ATOM     20  C   UNL     1      52.803  -3.399  11.917  0.00  0.00    +0.000 A 
ATOM     21  C   UNL     1      53.800  -3.178  12.868  0.00  0.00    +0.000 A 
ATOM     22  C   UNL     1      52.360  -1.598  14.032  0.00  0.00    +0.000 A 
ATOM     23  C   UNL     1      53.577  -2.271  13.916  0.00  0.00    +0.000 A 
BRANCH  21  24
ATOM     24  O   UNL     1      55.038  -3.780  12.879  0.00  0.00    +0.000 OA
ATOM     25  C   UNL     1      55.241  -4.825  11.931  0.00  0.00    +0.000 C 
ENDBRANCH  21  24
BRANCH  22  26
ATOM     26  O   UNL     1      51.967  -0.697  14.984  0.00  0.00    +0.000 OA
ATOM     27  C   UNL     1      51.051  -1.133  15.978  0.00  0.00    +0.000 C 
ENDBRANCH  22  26
BRANCH  23  28
ATOM     28  O   UNL     1      54.597  -2.090  14.817  0.00  0.00    +0.000 OA
ATOM     29  H   UNL     1      54.298  -1.358  15.392  0.00  0.00    +0.000 HD
ENDBRANCH  23  28
ENDBRANCH   8  18
BRANCH   7  30
ATOM     30  O   UNL     1      46.683  -2.655  10.740  0.00  0.00    +0.000 OA
BRANCH  30  34
ATOM     31  O   UNL     1      45.367  -1.197  12.008  0.00  0.00    +0.000 OA
ATOM     32  O   UNL     1      41.978  -1.499  13.405  0.00  0.00    +0.000 OA
ATOM     33  O   UNL     1      42.732   0.719  13.712  0.00  0.00    +0.000 OA
ATOM     34  C   UNL     1      45.343  -2.236  11.028  0.00  0.00    +0.000 C 
ATOM     35  C   UNL     1      44.578  -3.486  11.522  0.00  0.00    +0.000 C 
ATOM     36  C   UNL     1      43.289  -1.932  13.023  0.00  0.00    +0.000 C 
ATOM     37  C   UNL     1      43.188  -3.110  12.055  0.00  0.00    +0.000 C 
ATOM     38  C   UNL     1      44.046  -0.788  12.354  0.00  0.00    +0.000 C 
ATOM     39  C   UNL     1      44.065   0.384  13.329  0.00  0.00    +0.000 C 
ATOM     40  C   UNL     1      42.064  -0.393  14.308  0.00  0.00    +0.000 C 
ATOM     41  C   UNL     1      40.651   0.038  14.654  0.00  0.00    +0.000 C 
BRANCH  35  42
ATOM     42  O   UNL     1      44.452  -4.420  10.436  0.00  0.00    +0.000 OA
ATOM     43  H   UNL     1      43.745  -4.070   9.860  0.00  0.00    +0.000 HD
ENDBRANCH  35  42
BRANCH  37  44
ATOM     44  O   UNL     1      42.607  -4.224  12.753  0.00  0.00    +0.000 OA
ATOM     45  H   UNL     1      43.242  -4.959  12.659  0.00  0.00    +0.000 HD
ENDBRANCH  37  44
ENDBRANCH  30  34
ENDBRANCH   7  30
TORSDOF 8
ENDMDL
