MODEL 1
REMARK VINA RESULT:      -8.3      0.000      0.000
REMARK  Name = Foretinib.pdbqt.pdb
REMARK  11 active torsions:
REMARK  status: ('A' for Active; 'I' for Inactive)
REMARK    1  A    between atoms: C_2  and  N_31
REMARK    2  A    between atoms: C_7  and  O_8
REMARK    3  A    between atoms: O_8  and  C_9
REMARK    4  A    between atoms: C_17  and  O_19
REMARK    5  A    between atoms: C_18  and  O_29
REMARK    6  A    between atoms: O_19  and  C_20
REMARK    7  A    between atoms: C_21  and  C_22
REMARK    8  A    between atoms: C_22  and  N_23
REMARK    9  A    between atoms: C_32  and  C_35
REMARK   10  A    between atoms: C_35  and  C_38
REMARK   11  A    between atoms: N_40  and  C_42
REMARK                            x       y       z     vdW  Elec       q    Type
REMARK                         _______ _______ _______ _____ _____    ______ ____
ROOT
ATOM      1  F   UNL     1      17.591  -1.628  20.085  0.00  0.00    +0.000 F 
ATOM      2  C   UNL     1      17.353  -1.122  23.670  0.00  0.00    +0.000 A 
ATOM      3  C   UNL     1      17.208  -0.918  22.298  0.00  0.00    +0.000 A 
ATOM      4  C   UNL     1      18.007  -2.266  24.131  0.00  0.00    +0.000 A 
ATOM      5  C   UNL     1      17.710  -1.857  21.401  0.00  0.00    +0.000 A 
ATOM      6  C   UNL     1      18.511  -3.205  23.233  0.00  0.00    +0.000 A 
ATOM      7  C   UNL     1      18.340  -3.012  21.864  0.00  0.00    +0.000 A 
ENDROOT
BRANCH   2   8
ATOM      8  N   UNL     1      16.871  -0.214  24.631  0.00  0.00    +0.000 N 
ATOM      9  C   UNL     1      17.445   1.008  24.942  0.00  0.00    +0.000 C 
ATOM     10  O   UNL     1      18.467   1.473  24.452  0.00  0.00    +0.000 OA
ATOM     11  H   UNL     1      16.057  -0.504  25.165  0.00  0.00    +0.000 HD
BRANCH   9  12
ATOM     12  C   UNL     1      16.740   1.770  26.025  0.00  0.00    +0.000 C 
ATOM     13  C   UNL     1      17.307   1.721  27.369  0.00  0.00    +0.000 C 
ATOM     14  C   UNL     1      16.049   0.997  27.050  0.00  0.00    +0.000 C 
BRANCH  12  15
ATOM     15  C   UNL     1      16.130   3.067  25.584  0.00  0.00    +0.000 C 
ATOM     16  O   UNL     1      15.667   3.148  24.452  0.00  0.00    +0.000 OA
ATOM     17  N   UNL     1      16.107   4.057  26.552  0.00  0.00    +0.000 N 
ATOM     18  H   UNL     1      16.478   3.832  27.471  0.00  0.00    +0.000 HD
BRANCH  17  19
ATOM     19  C   UNL     1      15.577   5.349  26.386  0.00  0.00    +0.000 A 
ATOM     20  C   UNL     1      16.386   6.309  25.773  0.00  0.00    +0.000 A 
ATOM     21  C   UNL     1      15.918   7.607  25.580  0.00  0.00    +0.000 A 
ATOM     22  C   UNL     1      14.635   7.937  26.004  0.00  0.00    +0.000 A 
ATOM     23  F   UNL     1      14.182   9.183  25.817  0.00  0.00    +0.000 F 
ATOM     24  C   UNL     1      13.816   6.994  26.613  0.00  0.00    +0.000 A 
ATOM     25  C   UNL     1      14.292   5.700  26.803  0.00  0.00    +0.000 A 
ENDBRANCH  17  19
ENDBRANCH  12  15
ENDBRANCH   9  12
ENDBRANCH   2   8
BRANCH   7  26
ATOM     26  O   UNL     1      18.913  -3.936  21.025  0.00  0.00    +0.000 OA
BRANCH  26  27
ATOM     27  C   UNL     1      20.267  -3.814  20.782  0.00  0.00    +0.000 A 
ATOM     28  C   UNL     1      20.675  -3.402  19.504  0.00  0.00    +0.000 A 
ATOM     29  C   UNL     1      22.051  -3.225  19.280  0.00  0.00    +0.000 A 
ATOM     30  C   UNL     1      19.765  -3.172  18.460  0.00  0.00    +0.000 A 
ATOM     31  N   UNL     1      22.966  -3.425  20.242  0.00  0.00    +0.000 NA
ATOM     32  C   UNL     1      22.461  -2.825  18.017  0.00  0.00    +0.000 A 
ATOM     33  C   UNL     1      22.532  -3.808  21.463  0.00  0.00    +0.000 A 
ATOM     34  C   UNL     1      21.206  -4.006  21.789  0.00  0.00    +0.000 A 
ATOM     35  C   UNL     1      21.558  -2.592  16.972  0.00  0.00    +0.000 A 
ATOM     36  C   UNL     1      20.192  -2.769  17.194  0.00  0.00    +0.000 A 
BRANCH  36  37
ATOM     37  O   UNL     1      19.347  -2.535  16.134  0.00  0.00    +0.000 OA
ATOM     38  C   UNL     1      17.994  -2.374  16.460  0.00  0.00    +0.000 C 
ENDBRANCH  36  37
BRANCH  35  39
ATOM     39  O   UNL     1      21.948  -2.200  15.712  0.00  0.00    +0.000 OA
BRANCH  39  40
ATOM     40  C   UNL     1      23.253  -2.296  15.472  0.00  0.00    +0.000 C 
ATOM     41  C   UNL     1      24.758  -2.420  15.207  0.00  0.00    +0.000 C 
BRANCH  41  42
ATOM     42  C   UNL     1      26.262  -2.549  14.943  0.00  0.00    +0.000 C 
BRANCH  42  43
ATOM     43  N   UNL     1      27.691  -2.672  14.691  0.00  0.00    +0.000 N 
ATOM     44  C   UNL     1      28.078  -4.065  15.074  0.00  0.00    +0.000 C 
ATOM     45  C   UNL     1      28.507  -5.251  14.151  0.00  0.00    +0.000 C 
ATOM     46  O   UNL     1      28.656  -5.413  12.818  0.00  0.00    +0.000 OA
ATOM     47  C   UNL     1      28.301  -4.159  12.471  0.00  0.00    +0.000 C 
ATOM     48  C   UNL     1      27.853  -2.866  13.219  0.00  0.00    +0.000 C 
ENDBRANCH  42  43
ENDBRANCH  41  42
ENDBRANCH  39  40
ENDBRANCH  35  39
ENDBRANCH  26  27
ENDBRANCH   7  26
TORSDOF 11
ENDMDL
MODEL 2
REMARK VINA RESULT:      -7.6     19.469     25.841
REMARK  Name = Foretinib.pdbqt.pdb
REMARK  11 active torsions:
REMARK  status: ('A' for Active; 'I' for Inactive)
REMARK    1  A    between atoms: C_2  and  N_31
REMARK    2  A    between atoms: C_7  and  O_8
REMARK    3  A    between atoms: O_8  and  C_9
REMARK    4  A    between atoms: C_17  and  O_19
REMARK    5  A    between atoms: C_18  and  O_29
REMARK    6  A    between atoms: O_19  and  C_20
REMARK    7  A    between atoms: C_21  and  C_22
REMARK    8  A    between atoms: C_22  and  N_23
REMARK    9  A    between atoms: C_32  and  C_35
REMARK   10  A    between atoms: C_35  and  C_38
REMARK   11  A    between atoms: N_40  and  C_42
REMARK                            x       y       z     vdW  Elec       q    Type
REMARK                         _______ _______ _______ _____ _____    ______ ____
ROOT
ATOM      1  F   UNL     1      23.035  22.801  32.792  0.00  0.00    +0.000 F 
ATOM      2  C   UNL     1      21.137  24.620  30.291  0.00  0.00    +0.000 A 
ATOM      3  C   UNL     1      22.026  24.348  31.331  0.00  0.00    +0.000 A 
ATOM      4  C   UNL     1      20.425  23.573  29.702  0.00  0.00    +0.000 A 
ATOM      5  C   UNL     1      22.201  23.039  31.769  0.00  0.00    +0.000 A 
ATOM      6  C   UNL     1      20.599  22.263  30.142  0.00  0.00    +0.000 A 
ATOM      7  C   UNL     1      21.508  21.991  31.162  0.00  0.00    +0.000 A 
ENDROOT
BRANCH   2   8
ATOM      8  N   UNL     1      20.911  25.920  29.801  0.00  0.00    +0.000 N 
ATOM      9  C   UNL     1      21.890  26.788  29.344  0.00  0.00    +0.000 C 
ATOM     10  O   UNL     1      23.095  26.572  29.320  0.00  0.00    +0.000 OA
ATOM     11  H   UNL     1      19.953  26.257  29.825  0.00  0.00    +0.000 HD
BRANCH   9  12
ATOM     12  C   UNL     1      21.377  28.126  28.898  0.00  0.00    +0.000 C 
ATOM     13  C   UNL     1      21.201  29.159  29.913  0.00  0.00    +0.000 C 
ATOM     14  C   UNL     1      20.023  28.494  29.298  0.00  0.00    +0.000 C 
BRANCH  12  15
ATOM     15  C   UNL     1      21.861  28.565  27.549  0.00  0.00    +0.000 C 
ATOM     16  O   UNL     1      21.540  27.909  26.564  0.00  0.00    +0.000 OA
ATOM     17  N   UNL     1      22.603  29.734  27.550  0.00  0.00    +0.000 N 
ATOM     18  H   UNL     1      22.745  30.206  28.438  0.00  0.00    +0.000 HD
BRANCH  17  19
ATOM     19  C   UNL     1      23.153  30.353  26.413  0.00  0.00    +0.000 A 
ATOM     20  C   UNL     1      24.544  30.421  26.319  0.00  0.00    +0.000 A 
ATOM     21  C   UNL     1      25.149  31.021  25.217  0.00  0.00    +0.000 A 
ATOM     22  C   UNL     1      24.352  31.553  24.210  0.00  0.00    +0.000 A 
ATOM     23  F   UNL     1      24.930  32.129  23.148  0.00  0.00    +0.000 F 
ATOM     24  C   UNL     1      22.965  31.492  24.284  0.00  0.00    +0.000 A 
ATOM     25  C   UNL     1      22.369  30.891  25.390  0.00  0.00    +0.000 A 
ENDBRANCH  17  19
ENDBRANCH  12  15
ENDBRANCH   9  12
ENDBRANCH   2   8
BRANCH   7  26
ATOM     26  O   UNL     1      21.591  20.692  31.598  0.00  0.00    +0.000 OA
BRANCH  26  27
ATOM     27  C   UNL     1      22.540  19.885  31.000  0.00  0.00    +0.000 A 
ATOM     28  C   UNL     1      22.231  18.528  30.815  0.00  0.00    +0.000 A 
ATOM     29  C   UNL     1      23.178  17.725  30.155  0.00  0.00    +0.000 A 
ATOM     30  C   UNL     1      21.030  17.959  31.267  0.00  0.00    +0.000 A 
ATOM     31  N   UNL     1      24.341  18.215  29.697  0.00  0.00    +0.000 NA
ATOM     32  C   UNL     1      22.882  16.382  29.976  0.00  0.00    +0.000 A 
ATOM     33  C   UNL     1      24.594  19.530  29.884  0.00  0.00    +0.000 A 
ATOM     34  C   UNL     1      23.734  20.405  30.514  0.00  0.00    +0.000 A 
ATOM     35  C   UNL     1      21.685  15.809  30.422  0.00  0.00    +0.000 A 
ATOM     36  C   UNL     1      20.746  16.607  31.078  0.00  0.00    +0.000 A 
BRANCH  36  37
ATOM     37  O   UNL     1      19.590  15.995  31.504  0.00  0.00    +0.000 OA
ATOM     38  C   UNL     1      19.372  16.007  32.889  0.00  0.00    +0.000 C 
ENDBRANCH  36  37
BRANCH  35  39
ATOM     39  O   UNL     1      21.378  14.479  30.257  0.00  0.00    +0.000 OA
BRANCH  39  40
ATOM     40  C   UNL     1      21.759  13.685  31.254  0.00  0.00    +0.000 C 
ATOM     41  C   UNL     1      22.183  12.771  32.410  0.00  0.00    +0.000 C 
BRANCH  41  42
ATOM     42  C   UNL     1      22.600  11.854  33.564  0.00  0.00    +0.000 C 
BRANCH  42  43
ATOM     43  N   UNL     1      22.996  10.982  34.661  0.00  0.00    +0.000 N 
ATOM     44  C   UNL     1      24.478  11.113  34.802  0.00  0.00    +0.000 C 
ATOM     45  C   UNL     1      25.298  11.789  35.949  0.00  0.00    +0.000 C 
ATOM     46  O   UNL     1      24.979  12.432  37.093  0.00  0.00    +0.000 OA
ATOM     47  C   UNL     1      23.641  12.320  36.964  0.00  0.00    +0.000 C 
ATOM     48  C   UNL     1      22.657  11.700  35.926  0.00  0.00    +0.000 C 
ENDBRANCH  42  43
ENDBRANCH  41  42
ENDBRANCH  39  40
ENDBRANCH  35  39
ENDBRANCH  26  27
ENDBRANCH   7  26
TORSDOF 11
ENDMDL
MODEL 3
REMARK VINA RESULT:      -7.4     19.228     25.086
REMARK  Name = Foretinib.pdbqt.pdb
REMARK  11 active torsions:
REMARK  status: ('A' for Active; 'I' for Inactive)
REMARK    1  A    between atoms: C_2  and  N_31
REMARK    2  A    between atoms: C_7  and  O_8
REMARK    3  A    between atoms: O_8  and  C_9
REMARK    4  A    between atoms: C_17  and  O_19
REMARK    5  A    between atoms: C_18  and  O_29
REMARK    6  A    between atoms: O_19  and  C_20
REMARK    7  A    between atoms: C_21  and  C_22
REMARK    8  A    between atoms: C_22  and  N_23
REMARK    9  A    between atoms: C_32  and  C_35
REMARK   10  A    between atoms: C_35  and  C_38
REMARK   11  A    between atoms: N_40  and  C_42
REMARK                            x       y       z     vdW  Elec       q    Type
REMARK                         _______ _______ _______ _____ _____    ______ ____
ROOT
ATOM      1  F   UNL     1      21.472  21.416  33.472  0.00  0.00    +0.000 F 
ATOM      2  C   UNL     1      20.605  24.070  31.153  0.00  0.00    +0.000 A 
ATOM      3  C   UNL     1      21.041  23.417  32.307  0.00  0.00    +0.000 A 
ATOM      4  C   UNL     1      20.210  23.318  30.044  0.00  0.00    +0.000 A 
ATOM      5  C   UNL     1      21.082  22.027  32.343  0.00  0.00    +0.000 A 
ATOM      6  C   UNL     1      20.250  21.925  30.082  0.00  0.00    +0.000 A 
ATOM      7  C   UNL     1      20.711  21.278  31.226  0.00  0.00    +0.000 A 
ENDROOT
BRANCH   2   8
ATOM      8  N   UNL     1      20.537  25.471  31.049  0.00  0.00    +0.000 N 
ATOM      9  C   UNL     1      21.497  26.282  30.465  0.00  0.00    +0.000 C 
ATOM     10  O   UNL     1      22.557  25.911  29.976  0.00  0.00    +0.000 OA
ATOM     11  H   UNL     1      19.733  25.922  31.476  0.00  0.00    +0.000 HD
BRANCH   9  12
ATOM     12  C   UNL     1      21.185  27.749  30.510  0.00  0.00    +0.000 C 
ATOM     13  C   UNL     1      22.009  28.592  31.369  0.00  0.00    +0.000 C 
ATOM     14  C   UNL     1      20.606  28.275  31.741  0.00  0.00    +0.000 C 
BRANCH  12  15
ATOM     15  C   UNL     1      20.729  28.334  29.207  0.00  0.00    +0.000 C 
ATOM     16  O   UNL     1      19.551  28.648  29.080  0.00  0.00    +0.000 OA
ATOM     17  N   UNL     1      21.731  28.511  28.268  0.00  0.00    +0.000 N 
ATOM     18  H   UNL     1      22.679  28.255  28.530  0.00  0.00    +0.000 HD
BRANCH  17  19
ATOM     19  C   UNL     1      21.557  29.052  26.981  0.00  0.00    +0.000 A 
ATOM     20  C   UNL     1      21.317  28.164  25.930  0.00  0.00    +0.000 A 
ATOM     21  C   UNL     1      21.137  28.639  24.633  0.00  0.00    +0.000 A 
ATOM     22  C   UNL     1      21.198  30.007  24.395  0.00  0.00    +0.000 A 
ATOM     23  F   UNL     1      21.022  30.466  23.149  0.00  0.00    +0.000 F 
ATOM     24  C   UNL     1      21.434  30.906  25.429  0.00  0.00    +0.000 A 
ATOM     25  C   UNL     1      21.614  30.423  26.722  0.00  0.00    +0.000 A 
ENDBRANCH  17  19
ENDBRANCH  12  15
ENDBRANCH   9  12
ENDBRANCH   2   8
BRANCH   7  26
ATOM     26  O   UNL     1      20.669  19.906  31.229  0.00  0.00    +0.000 OA
BRANCH  26  27
ATOM     27  C   UNL     1      21.762  19.239  30.712  0.00  0.00    +0.000 A 
ATOM     28  C   UNL     1      21.743  17.835  30.716  0.00  0.00    +0.000 A 
ATOM     29  C   UNL     1      22.833  17.163  30.137  0.00  0.00    +0.000 A 
ATOM     30  C   UNL     1      20.690  17.097  31.279  0.00  0.00    +0.000 A 
ATOM     31  N   UNL     1      23.865  17.816  29.580  0.00  0.00    +0.000 NA
ATOM     32  C   UNL     1      22.823  15.777  30.145  0.00  0.00    +0.000 A 
ATOM     33  C   UNL     1      23.839  19.168  29.584  0.00  0.00    +0.000 A 
ATOM     34  C   UNL     1      22.818  19.924  30.121  0.00  0.00    +0.000 A 
ATOM     35  C   UNL     1      21.775  15.034  30.703  0.00  0.00    +0.000 A 
ATOM     36  C   UNL     1      20.693  15.702  31.279  0.00  0.00    +0.000 A 
BRANCH  36  37
ATOM     37  O   UNL     1      19.693  14.929  31.820  0.00  0.00    +0.000 OA
ATOM     38  C   UNL     1      19.030  15.480  32.925  0.00  0.00    +0.000 C 
ENDBRANCH  36  37
BRANCH  35  39
ATOM     39  O   UNL     1      21.752  13.659  30.724  0.00  0.00    +0.000 OA
BRANCH  39  40
ATOM     40  C   UNL     1      22.145  13.107  31.869  0.00  0.00    +0.000 C 
ATOM     41  C   UNL     1      22.582  12.465  33.191  0.00  0.00    +0.000 C 
BRANCH  41  42
ATOM     42  C   UNL     1      23.015  11.817  34.510  0.00  0.00    +0.000 C 
BRANCH  42  43
ATOM     43  N   UNL     1      23.428  11.202  35.763  0.00  0.00    +0.000 N 
ATOM     44  C   UNL     1      22.201  10.607  36.376  0.00  0.00    +0.000 C 
ATOM     45  C   UNL     1      21.824   9.100  36.552  0.00  0.00    +0.000 C 
ATOM     46  O   UNL     1      22.418   7.929  36.235  0.00  0.00    +0.000 OA
ATOM     47  C   UNL     1      23.523   8.464  35.676  0.00  0.00    +0.000 C 
ATOM     48  C   UNL     1      24.071   9.900  35.413  0.00  0.00    +0.000 C 
ENDBRANCH  42  43
ENDBRANCH  41  42
ENDBRANCH  39  40
ENDBRANCH  35  39
ENDBRANCH  26  27
ENDBRANCH   7  26
TORSDOF 11
ENDMDL
MODEL 4
REMARK VINA RESULT:      -7.3      8.890     10.558
REMARK  Name = Foretinib.pdbqt.pdb
REMARK  11 active torsions:
REMARK  status: ('A' for Active; 'I' for Inactive)
REMARK    1  A    between atoms: C_2  and  N_31
REMARK    2  A    between atoms: C_7  and  O_8
REMARK    3  A    between atoms: O_8  and  C_9
REMARK    4  A    between atoms: C_17  and  O_19
REMARK    5  A    between atoms: C_18  and  O_29
REMARK    6  A    between atoms: O_19  and  C_20
REMARK    7  A    between atoms: C_21  and  C_22
REMARK    8  A    between atoms: C_22  and  N_23
REMARK    9  A    between atoms: C_32  and  C_35
REMARK   10  A    between atoms: C_35  and  C_38
REMARK   11  A    between atoms: N_40  and  C_42
REMARK                            x       y       z     vdW  Elec       q    Type
REMARK                         _______ _______ _______ _____ _____    ______ ____
ROOT
ATOM      1  F   UNL     1      26.046   0.826  29.037  0.00  0.00    +0.000 F 
ATOM      2  C   UNL     1      24.362  -0.957  31.711  0.00  0.00    +0.000 A 
ATOM      3  C   UNL     1      24.955   0.076  30.985  0.00  0.00    +0.000 A 
ATOM      4  C   UNL     1      24.275  -2.233  31.150  0.00  0.00    +0.000 A 
ATOM      5  C   UNL     1      25.449  -0.171  29.708  0.00  0.00    +0.000 A 
ATOM      6  C   UNL     1      24.772  -2.479  29.871  0.00  0.00    +0.000 A 
ATOM      7  C   UNL     1      25.339  -1.440  29.138  0.00  0.00    +0.000 A 
ENDROOT
BRANCH   2   8
ATOM      8  N   UNL     1      23.843  -0.778  33.007  0.00  0.00    +0.000 N 
ATOM      9  C   UNL     1      22.505  -0.599  33.319  0.00  0.00    +0.000 C 
ATOM     10  O   UNL     1      21.577  -0.543  32.522  0.00  0.00    +0.000 OA
ATOM     11  H   UNL     1      24.516  -0.738  33.767  0.00  0.00    +0.000 HD
BRANCH   9  12
ATOM     12  C   UNL     1      22.227  -0.406  34.781  0.00  0.00    +0.000 C 
ATOM     13  C   UNL     1      21.847  -1.579  35.560  0.00  0.00    +0.000 C 
ATOM     14  C   UNL     1      20.843  -0.535  35.225  0.00  0.00    +0.000 C 
BRANCH  12  15
ATOM     15  C   UNL     1      23.094   0.614  35.455  0.00  0.00    +0.000 C 
ATOM     16  O   UNL     1      24.194   0.271  35.873  0.00  0.00    +0.000 OA
ATOM     17  N   UNL     1      22.565   1.893  35.493  0.00  0.00    +0.000 N 
ATOM     18  H   UNL     1      21.661   2.046  35.056  0.00  0.00    +0.000 HD
BRANCH  17  19
ATOM     19  C   UNL     1      23.191   3.020  36.057  0.00  0.00    +0.000 A 
ATOM     20  C   UNL     1      23.713   3.977  35.184  0.00  0.00    +0.000 A 
ATOM     21  C   UNL     1      24.345   5.115  35.681  0.00  0.00    +0.000 A 
ATOM     22  C   UNL     1      24.450   5.288  37.057  0.00  0.00    +0.000 A 
ATOM     23  F   UNL     1      25.055   6.382  37.538  0.00  0.00    +0.000 F 
ATOM     24  C   UNL     1      23.934   4.347  37.940  0.00  0.00    +0.000 A 
ATOM     25  C   UNL     1      23.305   3.212  37.435  0.00  0.00    +0.000 A 
ENDBRANCH  17  19
ENDBRANCH  12  15
ENDBRANCH   9  12
ENDBRANCH   2   8
BRANCH   7  26
ATOM     26  O   UNL     1      25.870  -1.755  27.911  0.00  0.00    +0.000 OA
BRANCH  26  27
ATOM     27  C   UNL     1      26.712  -2.847  27.850  0.00  0.00    +0.000 A 
ATOM     28  C   UNL     1      26.378  -3.891  26.973  0.00  0.00    +0.000 A 
ATOM     29  C   UNL     1      27.269  -4.974  26.873  0.00  0.00    +0.000 A 
ATOM     30  C   UNL     1      25.199  -3.888  26.212  0.00  0.00    +0.000 A 
ATOM     31  N   UNL     1      28.414  -5.028  27.572  0.00  0.00    +0.000 NA
ATOM     32  C   UNL     1      26.940  -6.011  26.014  0.00  0.00    +0.000 A 
ATOM     33  C   UNL     1      28.706  -3.997  28.396  0.00  0.00    +0.000 A 
ATOM     34  C   UNL     1      27.904  -2.887  28.565  0.00  0.00    +0.000 A 
ATOM     35  C   UNL     1      25.766  -6.014  25.251  0.00  0.00    +0.000 A 
ATOM     36  C   UNL     1      24.881  -4.939  25.351  0.00  0.00    +0.000 A 
BRANCH  36  37
ATOM     37  O   UNL     1      23.739  -4.992  24.587  0.00  0.00    +0.000 OA
ATOM     38  C   UNL     1      22.731  -4.085  24.940  0.00  0.00    +0.000 C 
ENDBRANCH  36  37
BRANCH  35  39
ATOM     39  O   UNL     1      25.423  -7.036  24.398  0.00  0.00    +0.000 OA
BRANCH  39  40
ATOM     40  C   UNL     1      26.310  -7.290  23.438  0.00  0.00    +0.000 C 
ATOM     41  C   UNL     1      27.327  -7.600  22.335  0.00  0.00    +0.000 C 
BRANCH  41  42
ATOM     42  C   UNL     1      28.341  -7.914  21.229  0.00  0.00    +0.000 C 
BRANCH  42  43
ATOM     43  N   UNL     1      29.303  -8.214  20.178  0.00  0.00    +0.000 N 
ATOM     44  C   UNL     1      28.536  -8.269  18.895  0.00  0.00    +0.000 C 
ATOM     45  C   UNL     1      28.564  -7.271  17.692  0.00  0.00    +0.000 C 
ATOM     46  O   UNL     1      29.222  -6.122  17.427  0.00  0.00    +0.000 OA
ATOM     47  C   UNL     1      29.910  -6.067  18.586  0.00  0.00    +0.000 C 
ATOM     48  C   UNL     1      30.019  -6.939  19.874  0.00  0.00    +0.000 C 
ENDBRANCH  42  43
ENDBRANCH  41  42
ENDBRANCH  39  40
ENDBRANCH  35  39
ENDBRANCH  26  27
ENDBRANCH   7  26
TORSDOF 11
ENDMDL
MODEL 5
REMARK VINA RESULT:      -7.1     25.599     31.339
REMARK  Name = Foretinib.pdbqt.pdb
REMARK  11 active torsions:
REMARK  status: ('A' for Active; 'I' for Inactive)
REMARK    1  A    between atoms: C_2  and  N_31
REMARK    2  A    between atoms: C_7  and  O_8
REMARK    3  A    between atoms: O_8  and  C_9
REMARK    4  A    between atoms: C_17  and  O_19
REMARK    5  A    between atoms: C_18  and  O_29
REMARK    6  A    between atoms: O_19  and  C_20
REMARK    7  A    between atoms: C_21  and  C_22
REMARK    8  A    between atoms: C_22  and  N_23
REMARK    9  A    between atoms: C_32  and  C_35
REMARK   10  A    between atoms: C_35  and  C_38
REMARK   11  A    between atoms: N_40  and  C_42
REMARK                            x       y       z     vdW  Elec       q    Type
REMARK                         _______ _______ _______ _____ _____    ______ ____
ROOT
ATOM      1  F   UNL     1      46.335 -14.762  11.552  0.00  0.00    +0.000 F 
ATOM      2  C   UNL     1      47.452 -12.143   9.302  0.00  0.00    +0.000 A 
ATOM      3  C   UNL     1      46.621 -13.052   9.958  0.00  0.00    +0.000 A 
ATOM      4  C   UNL     1      48.803 -12.068   9.652  0.00  0.00    +0.000 A 
ATOM      5  C   UNL     1      47.141 -13.871  10.956  0.00  0.00    +0.000 A 
ATOM      6  C   UNL     1      49.322 -12.889  10.651  0.00  0.00    +0.000 A 
ATOM      7  C   UNL     1      48.484 -13.776  11.322  0.00  0.00    +0.000 A 
ENDROOT
BRANCH   2   8
ATOM      8  N   UNL     1      46.993 -11.287   8.284  0.00  0.00    +0.000 N 
ATOM      9  C   UNL     1      45.665 -11.053   7.969  0.00  0.00    +0.000 C 
ATOM     10  O   UNL     1      44.692 -11.569   8.505  0.00  0.00    +0.000 OA
ATOM     11  H   UNL     1      47.702 -10.838   7.711  0.00  0.00    +0.000 HD
BRANCH   9  12
ATOM     12  C   UNL     1      45.454 -10.111   6.820  0.00  0.00    +0.000 C 
ATOM     13  C   UNL     1      44.789 -10.630   5.630  0.00  0.00    +0.000 C 
ATOM     14  C   UNL     1      46.245 -10.334   5.614  0.00  0.00    +0.000 C 
BRANCH  12  15
ATOM     15  C   UNL     1      45.149  -8.697   7.215  0.00  0.00    +0.000 C 
ATOM     16  O   UNL     1      45.399  -7.796   6.423  0.00  0.00    +0.000 OA
ATOM     17  N   UNL     1      44.549  -8.557   8.455  0.00  0.00    +0.000 N 
ATOM     18  H   UNL     1      44.349  -9.401   8.984  0.00  0.00    +0.000 HD
BRANCH  17  19
ATOM     19  C   UNL     1      44.156  -7.339   9.039  0.00  0.00    +0.000 A 
ATOM     20  C   UNL     1      42.906  -6.825   8.689  0.00  0.00    +0.000 A 
ATOM     21  C   UNL     1      42.460  -5.622   9.233  0.00  0.00    +0.000 A 
ATOM     22  C   UNL     1      43.273  -4.940  10.131  0.00  0.00    +0.000 A 
ATOM     23  F   UNL     1      42.846  -3.785  10.658  0.00  0.00    +0.000 F 
ATOM     24  C   UNL     1      44.520  -5.438  10.493  0.00  0.00    +0.000 A 
ATOM     25  C   UNL     1      44.958  -6.640   9.943  0.00  0.00    +0.000 A 
ENDBRANCH  17  19
ENDBRANCH  12  15
ENDBRANCH   9  12
ENDBRANCH   2   8
BRANCH   7  26
ATOM     26  O   UNL     1      49.063 -14.605  12.250  0.00  0.00    +0.000 OA
BRANCH  26  27
ATOM     27  C   UNL     1      48.957 -14.238  13.578  0.00  0.00    +0.000 A 
ATOM     28  C   UNL     1      48.216 -15.066  14.435  0.00  0.00    +0.000 A 
ATOM     29  C   UNL     1      48.159 -14.718  15.796  0.00  0.00    +0.000 A 
ATOM     30  C   UNL     1      47.536 -16.207  13.980  0.00  0.00    +0.000 A 
ATOM     31  N   UNL     1      48.792 -13.642  16.288  0.00  0.00    +0.000 NA
ATOM     32  C   UNL     1      47.422 -15.528  16.646  0.00  0.00    +0.000 A 
ATOM     33  C   UNL     1      49.507 -12.877  15.432  0.00  0.00    +0.000 A 
ATOM     34  C   UNL     1      49.631 -13.132  14.082  0.00  0.00    +0.000 A 
ATOM     35  C   UNL     1      46.743 -16.669  16.199  0.00  0.00    +0.000 A 
ATOM     36  C   UNL     1      46.799 -17.014  14.847  0.00  0.00    +0.000 A 
BRANCH  36  37
ATOM     37  O   UNL     1      46.110 -18.138  14.457  0.00  0.00    +0.000 OA
ATOM     38  C   UNL     1      46.021 -18.345  13.074  0.00  0.00    +0.000 C 
ENDBRANCH  36  37
BRANCH  35  39
ATOM     39  O   UNL     1      46.004 -17.480  17.028  0.00  0.00    +0.000 OA
BRANCH  39  40
ATOM     40  C   UNL     1      45.171 -16.840  17.845  0.00  0.00    +0.000 C 
ATOM     41  C   UNL     1      44.199 -16.113  18.780  0.00  0.00    +0.000 C 
BRANCH  41  42
ATOM     42  C   UNL     1      43.224 -15.391  19.717  0.00  0.00    +0.000 C 
BRANCH  42  43
ATOM     43  N   UNL     1      42.298 -14.705  20.607  0.00  0.00    +0.000 N 
ATOM     44  C   UNL     1      43.005 -13.487  21.109  0.00  0.00    +0.000 C 
ATOM     45  C   UNL     1      42.727 -11.985  20.776  0.00  0.00    +0.000 C 
ATOM     46  O   UNL     1      41.841 -11.334  19.991  0.00  0.00    +0.000 OA
ATOM     47  C   UNL     1      41.206 -12.433  19.533  0.00  0.00    +0.000 C 
ATOM     48  C   UNL     1      41.328 -13.973  19.739  0.00  0.00    +0.000 C 
ENDBRANCH  42  43
ENDBRANCH  41  42
ENDBRANCH  39  40
ENDBRANCH  35  39
ENDBRANCH  26  27
ENDBRANCH   7  26
TORSDOF 11
ENDMDL
MODEL 6
REMARK VINA RESULT:      -7.0     30.046     35.079
REMARK  Name = Foretinib.pdbqt.pdb
REMARK  11 active torsions:
REMARK  status: ('A' for Active; 'I' for Inactive)
REMARK    1  A    between atoms: C_2  and  N_31
REMARK    2  A    between atoms: C_7  and  O_8
REMARK    3  A    between atoms: O_8  and  C_9
REMARK    4  A    between atoms: C_17  and  O_19
REMARK    5  A    between atoms: C_18  and  O_29
REMARK    6  A    between atoms: O_19  and  C_20
REMARK    7  A    between atoms: C_21  and  C_22
REMARK    8  A    between atoms: C_22  and  N_23
REMARK    9  A    between atoms: C_32  and  C_35
REMARK   10  A    between atoms: C_35  and  C_38
REMARK   11  A    between atoms: N_40  and  C_42
REMARK                            x       y       z     vdW  Elec       q    Type
REMARK                         _______ _______ _______ _____ _____    ______ ____
ROOT
ATOM      1  F   UNL     1      25.969  26.841  -2.957  0.00  0.00    +0.000 F 
ATOM      2  C   UNL     1      28.802  24.659  -3.574  0.00  0.00    +0.000 A 
ATOM      3  C   UNL     1      27.986  25.791  -3.571  0.00  0.00    +0.000 A 
ATOM      4  C   UNL     1      28.373  23.498  -2.928  0.00  0.00    +0.000 A 
ATOM      5  C   UNL     1      26.756  25.755  -2.922  0.00  0.00    +0.000 A 
ATOM      6  C   UNL     1      27.140  23.463  -2.279  0.00  0.00    +0.000 A 
ATOM      7  C   UNL     1      26.340  24.603  -2.255  0.00  0.00    +0.000 A 
ENDROOT
BRANCH   2   8
ATOM      8  N   UNL     1      30.056  24.626  -4.212  0.00  0.00    +0.000 N 
ATOM      9  C   UNL     1      31.280  24.514  -3.572  0.00  0.00    +0.000 C 
ATOM     10  O   UNL     1      31.462  24.453  -2.363  0.00  0.00    +0.000 OA
ATOM     11  H   UNL     1      30.058  24.733  -5.222  0.00  0.00    +0.000 HD
BRANCH   9  12
ATOM     12  C   UNL     1      32.466  24.526  -4.491  0.00  0.00    +0.000 C 
ATOM     13  C   UNL     1      33.738  24.997  -3.953  0.00  0.00    +0.000 C 
ATOM     14  C   UNL     1      32.972  25.826  -4.919  0.00  0.00    +0.000 C 
BRANCH  12  15
ATOM     15  C   UNL     1      32.514  23.391  -5.470  0.00  0.00    +0.000 C 
ATOM     16  O   UNL     1      33.193  23.513  -6.483  0.00  0.00    +0.000 OA
ATOM     17  N   UNL     1      31.801  22.267  -5.090  0.00  0.00    +0.000 N 
ATOM     18  H   UNL     1      31.327  22.285  -4.193  0.00  0.00    +0.000 HD
BRANCH  17  19
ATOM     19  C   UNL     1      31.704  21.074  -5.829  0.00  0.00    +0.000 A 
ATOM     20  C   UNL     1      32.818  20.231  -5.852  0.00  0.00    +0.000 A 
ATOM     21  C   UNL     1      32.784  19.036  -6.567  0.00  0.00    +0.000 A 
ATOM     22  C   UNL     1      31.628  18.688  -7.256  0.00  0.00    +0.000 A 
ATOM     23  F   UNL     1      31.591  17.538  -7.942  0.00  0.00    +0.000 F 
ATOM     24  C   UNL     1      30.509  19.513  -7.242  0.00  0.00    +0.000 A 
ATOM     25  C   UNL     1      30.552  20.707  -6.527  0.00  0.00    +0.000 A 
ENDBRANCH  17  19
ENDBRANCH  12  15
ENDBRANCH   9  12
ENDBRANCH   2   8
BRANCH   7  26
ATOM     26  O   UNL     1      25.108  24.491  -1.657  0.00  0.00    +0.000 OA
BRANCH  26  27
ATOM     27  C   UNL     1      25.077  24.457  -0.277  0.00  0.00    +0.000 A 
ATOM     28  C   UNL     1      24.652  23.273   0.346  0.00  0.00    +0.000 A 
ATOM     29  C   UNL     1      24.677  23.225   1.750  0.00  0.00    +0.000 A 
ATOM     30  C   UNL     1      24.204  22.158  -0.381  0.00  0.00    +0.000 A 
ATOM     31  N   UNL     1      25.101  24.258   2.496  0.00  0.00    +0.000 NA
ATOM     32  C   UNL     1      24.251  22.060   2.371  0.00  0.00    +0.000 A 
ATOM     33  C   UNL     1      25.515  25.375   1.858  0.00  0.00    +0.000 A 
ATOM     34  C   UNL     1      25.534  25.525   0.487  0.00  0.00    +0.000 A 
ATOM     35  C   UNL     1      23.804  20.944   1.652  0.00  0.00    +0.000 A 
ATOM     36  C   UNL     1      23.779  20.993   0.258  0.00  0.00    +0.000 A 
BRANCH  36  37
ATOM     37  O   UNL     1      23.325  19.874  -0.401  0.00  0.00    +0.000 OA
ATOM     38  C   UNL     1      22.069  19.997  -1.010  0.00  0.00    +0.000 C 
ENDBRANCH  36  37
BRANCH  35  39
ATOM     39  O   UNL     1      23.374  19.784   2.252  0.00  0.00    +0.000 OA
BRANCH  39  40
ATOM     40  C   UNL     1      22.188  19.866   2.850  0.00  0.00    +0.000 C 
ATOM     41  C   UNL     1      20.815  19.963   3.523  0.00  0.00    +0.000 C 
BRANCH  41  42
ATOM     42  C   UNL     1      19.439  20.055   4.192  0.00  0.00    +0.000 C 
BRANCH  42  43
ATOM     43  N   UNL     1      18.131  20.144   4.826  0.00  0.00    +0.000 N 
ATOM     44  C   UNL     1      17.141  20.410   3.737  0.00  0.00    +0.000 C 
ATOM     45  C   UNL     1      16.039  19.462   3.162  0.00  0.00    +0.000 C 
ATOM     46  O   UNL     1      15.644  18.197   3.421  0.00  0.00    +0.000 OA
ATOM     47  C   UNL     1      16.540  17.954   4.399  0.00  0.00    +0.000 C 
ATOM     48  C   UNL     1      17.688  18.744   5.098  0.00  0.00    +0.000 C 
ENDBRANCH  42  43
ENDBRANCH  41  42
ENDBRANCH  39  40
ENDBRANCH  35  39
ENDBRANCH  26  27
ENDBRANCH   7  26
TORSDOF 11
ENDMDL
MODEL 7
REMARK VINA RESULT:      -7.0     24.593     31.188
REMARK  Name = Foretinib.pdbqt.pdb
REMARK  11 active torsions:
REMARK  status: ('A' for Active; 'I' for Inactive)
REMARK    1  A    between atoms: C_2  and  N_31
REMARK    2  A    between atoms: C_7  and  O_8
REMARK    3  A    between atoms: O_8  and  C_9
REMARK    4  A    between atoms: C_17  and  O_19
REMARK    5  A    between atoms: C_18  and  O_29
REMARK    6  A    between atoms: O_19  and  C_20
REMARK    7  A    between atoms: C_21  and  C_22
REMARK    8  A    between atoms: C_22  and  N_23
REMARK    9  A    between atoms: C_32  and  C_35
REMARK   10  A    between atoms: C_35  and  C_38
REMARK   11  A    between atoms: N_40  and  C_42
REMARK                            x       y       z     vdW  Elec       q    Type
REMARK                         _______ _______ _______ _____ _____    ______ ____
ROOT
ATOM      1  F   UNL     1      46.835 -16.029  10.122  0.00  0.00    +0.000 F 
ATOM      2  C   UNL     1      47.229 -12.637   8.896  0.00  0.00    +0.000 A 
ATOM      3  C   UNL     1      46.723 -13.925   9.070  0.00  0.00    +0.000 A 
ATOM      4  C   UNL     1      48.330 -12.222   9.649  0.00  0.00    +0.000 A 
ATOM      5  C   UNL     1      47.314 -14.783   9.993  0.00  0.00    +0.000 A 
ATOM      6  C   UNL     1      48.922 -13.082  10.572  0.00  0.00    +0.000 A 
ATOM      7  C   UNL     1      48.397 -14.358  10.762  0.00  0.00    +0.000 A 
ENDROOT
BRANCH   2   8
ATOM      8  N   UNL     1      46.681 -11.719   7.981  0.00  0.00    +0.000 N 
ATOM      9  C   UNL     1      45.337 -11.405   7.864  0.00  0.00    +0.000 C 
ATOM     10  O   UNL     1      44.421 -11.890   8.516  0.00  0.00    +0.000 OA
ATOM     11  H   UNL     1      47.327 -11.285   7.327  0.00  0.00    +0.000 HD
BRANCH   9  12
ATOM     12  C   UNL     1      45.021 -10.409   6.787  0.00  0.00    +0.000 C 
ATOM     13  C   UNL     1      44.015 -10.777   5.797  0.00  0.00    +0.000 C 
ATOM     14  C   UNL     1      45.454 -10.727   5.430  0.00  0.00    +0.000 C 
BRANCH  12  15
ATOM     15  C   UNL     1      45.061  -8.976   7.225  0.00  0.00    +0.000 C 
ATOM     16  O   UNL     1      45.337  -8.113   6.400  0.00  0.00    +0.000 OA
ATOM     17  N   UNL     1      44.721  -8.764   8.551  0.00  0.00    +0.000 N 
ATOM     18  H   UNL     1      44.459  -9.571   9.109  0.00  0.00    +0.000 HD
BRANCH  17  19
ATOM     19  C   UNL     1      44.671  -7.513   9.191  0.00  0.00    +0.000 A 
ATOM     20  C   UNL     1      45.833  -7.057   9.817  0.00  0.00    +0.000 A 
ATOM     21  C   UNL     1      45.847  -5.826  10.469  0.00  0.00    +0.000 A 
ATOM     22  C   UNL     1      44.692  -5.053  10.487  0.00  0.00    +0.000 A 
ATOM     23  F   UNL     1      44.703  -3.868  11.110  0.00  0.00    +0.000 F 
ATOM     24  C   UNL     1      43.527  -5.489   9.867  0.00  0.00    +0.000 A 
ATOM     25  C   UNL     1      43.521  -6.722   9.219  0.00  0.00    +0.000 A 
ENDBRANCH  17  19
ENDBRANCH  12  15
ENDBRANCH   9  12
ENDBRANCH   2   8
BRANCH   7  26
ATOM     26  O   UNL     1      49.060 -15.184  11.636  0.00  0.00    +0.000 OA
BRANCH  26  27
ATOM     27  C   UNL     1      49.023 -14.846  12.975  0.00  0.00    +0.000 A 
ATOM     28  C   UNL     1      48.025 -15.424  13.775  0.00  0.00    +0.000 A 
ATOM     29  C   UNL     1      48.027 -15.120  15.148  0.00  0.00    +0.000 A 
ATOM     30  C   UNL     1      47.038 -16.275  13.252  0.00  0.00    +0.000 A 
ATOM     31  N   UNL     1      48.948 -14.317  15.703  0.00  0.00    +0.000 NA
ATOM     32  C   UNL     1      47.039 -15.682  15.942  0.00  0.00    +0.000 A 
ATOM     33  C   UNL     1      49.901 -13.791  14.901  0.00  0.00    +0.000 A 
ATOM     34  C   UNL     1      49.991 -14.027  13.545  0.00  0.00    +0.000 A 
ATOM     35  C   UNL     1      46.053 -16.534  15.427  0.00  0.00    +0.000 A 
ATOM     36  C   UNL     1      46.050 -16.834  14.064  0.00  0.00    +0.000 A 
BRANCH  36  37
ATOM     37  O   UNL     1      45.057 -17.668  13.607  0.00  0.00    +0.000 OA
ATOM     38  C   UNL     1      45.354 -18.379  12.436  0.00  0.00    +0.000 C 
ENDBRANCH  36  37
BRANCH  35  39
ATOM     39  O   UNL     1      45.064 -17.095  16.200  0.00  0.00    +0.000 OA
BRANCH  39  40
ATOM     40  C   UNL     1      43.851 -16.575  16.026  0.00  0.00    +0.000 C 
ATOM     41  C   UNL     1      42.453 -15.974  15.844  0.00  0.00    +0.000 C 
BRANCH  41  42
ATOM     42  C   UNL     1      41.057 -15.368  15.665  0.00  0.00    +0.000 C 
BRANCH  42  43
ATOM     43  N   UNL     1      39.730 -14.793  15.496  0.00  0.00    +0.000 N 
ATOM     44  C   UNL     1      39.463 -13.960  16.708  0.00  0.00    +0.000 C 
ATOM     45  C   UNL     1      39.374 -12.404  16.828  0.00  0.00    +0.000 C 
ATOM     46  O   UNL     1      39.502 -11.376  15.962  0.00  0.00    +0.000 OA
ATOM     47  C   UNL     1      39.749 -12.126  14.868  0.00  0.00    +0.000 C 
ATOM     48  C   UNL     1      39.875 -13.647  14.549  0.00  0.00    +0.000 C 
ENDBRANCH  42  43
ENDBRANCH  41  42
ENDBRANCH  39  40
ENDBRANCH  35  39
ENDBRANCH  26  27
ENDBRANCH   7  26
TORSDOF 11
ENDMDL
MODEL 8
REMARK VINA RESULT:      -6.9      7.085     14.269
REMARK  Name = Foretinib.pdbqt.pdb
REMARK  11 active torsions:
REMARK  status: ('A' for Active; 'I' for Inactive)
REMARK    1  A    between atoms: C_2  and  N_31
REMARK    2  A    between atoms: C_7  and  O_8
REMARK    3  A    between atoms: O_8  and  C_9
REMARK    4  A    between atoms: C_17  and  O_19
REMARK    5  A    between atoms: C_18  and  O_29
REMARK    6  A    between atoms: O_19  and  C_20
REMARK    7  A    between atoms: C_21  and  C_22
REMARK    8  A    between atoms: C_22  and  N_23
REMARK    9  A    between atoms: C_32  and  C_35
REMARK   10  A    between atoms: C_35  and  C_38
REMARK   11  A    between atoms: N_40  and  C_42
REMARK                            x       y       z     vdW  Elec       q    Type
REMARK                         _______ _______ _______ _____ _____    ______ ____
ROOT
ATOM      1  F   UNL     1      26.062  -7.295  19.653  0.00  0.00    +0.000 F 
ATOM      2  C   UNL     1      28.453  -5.942  17.284  0.00  0.00    +0.000 A 
ATOM      3  C   UNL     1      27.245  -6.345  17.852  0.00  0.00    +0.000 A 
ATOM      4  C   UNL     1      29.638  -6.087  18.009  0.00  0.00    +0.000 A 
ATOM      5  C   UNL     1      27.228  -6.882  19.136  0.00  0.00    +0.000 A 
ATOM      6  C   UNL     1      29.621  -6.626  19.294  0.00  0.00    +0.000 A 
ATOM      7  C   UNL     1      28.409  -7.003  19.868  0.00  0.00    +0.000 A 
ENDROOT
BRANCH   2   8
ATOM      8  N   UNL     1      28.542  -5.392  15.991  0.00  0.00    +0.000 N 
ATOM      9  C   UNL     1      28.190  -6.038  14.817  0.00  0.00    +0.000 C 
ATOM     10  O   UNL     1      27.775  -7.185  14.719  0.00  0.00    +0.000 OA
ATOM     11  H   UNL     1      28.936  -4.458  15.919  0.00  0.00    +0.000 HD
BRANCH   9  12
ATOM     12  C   UNL     1      28.408  -5.229  13.572  0.00  0.00    +0.000 C 
ATOM     13  C   UNL     1      29.220  -5.818  12.513  0.00  0.00    +0.000 C 
ATOM     14  C   UNL     1      29.748  -4.701  13.340  0.00  0.00    +0.000 C 
BRANCH  12  15
ATOM     15  C   UNL     1      27.235  -4.394  13.153  0.00  0.00    +0.000 C 
ATOM     16  O   UNL     1      26.361  -4.907  12.465  0.00  0.00    +0.000 OA
ATOM     17  N   UNL     1      27.237  -3.100  13.647  0.00  0.00    +0.000 N 
ATOM     18  H   UNL     1      28.002  -2.825  14.256  0.00  0.00    +0.000 HD
BRANCH  17  19
ATOM     19  C   UNL     1      26.244  -2.134  13.408  0.00  0.00    +0.000 A 
ATOM     20  C   UNL     1      26.347  -1.372  12.242  0.00  0.00    +0.000 A 
ATOM     21  C   UNL     1      25.395  -0.398  11.948  0.00  0.00    +0.000 A 
ATOM     22  C   UNL     1      24.338  -0.194  12.829  0.00  0.00    +0.000 A 
ATOM     23  F   UNL     1      23.419   0.739  12.548  0.00  0.00    +0.000 F 
ATOM     24  C   UNL     1      24.218  -0.945  13.993  0.00  0.00    +0.000 A 
ATOM     25  C   UNL     1      25.175  -1.915  14.279  0.00  0.00    +0.000 A 
ENDBRANCH  17  19
ENDBRANCH  12  15
ENDBRANCH   9  12
ENDBRANCH   2   8
BRANCH   7  26
ATOM     26  O   UNL     1      28.459  -7.587  21.110  0.00  0.00    +0.000 OA
BRANCH  26  27
ATOM     27  C   UNL     1      27.852  -6.912  22.151  0.00  0.00    +0.000 A 
ATOM     28  C   UNL     1      26.896  -7.599  22.916  0.00  0.00    +0.000 A 
ATOM     29  C   UNL     1      26.324  -6.925  24.008  0.00  0.00    +0.000 A 
ATOM     30  C   UNL     1      26.498  -8.913  22.622  0.00  0.00    +0.000 A 
ATOM     31  N   UNL     1      26.669  -5.671  24.339  0.00  0.00    +0.000 NA
ATOM     32  C   UNL     1      25.373  -7.596  24.763  0.00  0.00    +0.000 A 
ATOM     33  C   UNL     1      27.603  -5.049  23.585  0.00  0.00    +0.000 A 
ATOM     34  C   UNL     1      28.229  -5.619  22.497  0.00  0.00    +0.000 A 
ATOM     35  C   UNL     1      24.973  -8.907  24.476  0.00  0.00    +0.000 A 
ATOM     36  C   UNL     1      25.541  -9.576  23.391  0.00  0.00    +0.000 A 
BRANCH  36  37
ATOM     37  O   UNL     1      25.109 -10.858  23.147  0.00  0.00    +0.000 OA
ATOM     38  C   UNL     1      24.112 -10.987  22.170  0.00  0.00    +0.000 C 
ENDBRANCH  36  37
BRANCH  35  39
ATOM     39  O   UNL     1      24.028  -9.585  25.211  0.00  0.00    +0.000 OA
BRANCH  39  40
ATOM     40  C   UNL     1      22.885  -8.930  25.399  0.00  0.00    +0.000 C 
ATOM     41  C   UNL     1      21.560  -8.191  25.618  0.00  0.00    +0.000 C 
BRANCH  41  42
ATOM     42  C   UNL     1      20.234  -7.457  25.841  0.00  0.00    +0.000 C 
BRANCH  42  43
ATOM     43  N   UNL     1      18.974  -6.759  26.055  0.00  0.00    +0.000 N 
ATOM     44  C   UNL     1      19.217  -5.320  25.729  0.00  0.00    +0.000 C 
ATOM     45  C   UNL     1      18.686  -4.486  24.519  0.00  0.00    +0.000 C 
ATOM     46  O   UNL     1      17.905  -4.754  23.450  0.00  0.00    +0.000 OA
ATOM     47  C   UNL     1      17.690  -6.054  23.739  0.00  0.00    +0.000 C 
ATOM     48  C   UNL     1      18.117  -7.044  24.866  0.00  0.00    +0.000 C 
ENDBRANCH  42  43
ENDBRANCH  41  42
ENDBRANCH  39  40
ENDBRANCH  35  39
ENDBRANCH  26  27
ENDBRANCH   7  26
TORSDOF 11
ENDMDL
MODEL 9
REMARK VINA RESULT:      -6.9     18.923     22.187
REMARK  Name = Foretinib.pdbqt.pdb
REMARK  11 active torsions:
REMARK  status: ('A' for Active; 'I' for Inactive)
REMARK    1  A    between atoms: C_2  and  N_31
REMARK    2  A    between atoms: C_7  and  O_8
REMARK    3  A    between atoms: O_8  and  C_9
REMARK    4  A    between atoms: C_17  and  O_19
REMARK    5  A    between atoms: C_18  and  O_29
REMARK    6  A    between atoms: O_19  and  C_20
REMARK    7  A    between atoms: C_21  and  C_22
REMARK    8  A    between atoms: C_22  and  N_23
REMARK    9  A    between atoms: C_32  and  C_35
REMARK   10  A    between atoms: C_35  and  C_38
REMARK   11  A    between atoms: N_40  and  C_42
REMARK                            x       y       z     vdW  Elec       q    Type
REMARK                         _______ _______ _______ _____ _____    ______ ____
ROOT
ATOM      1  F   UNL     1      21.252  14.832  34.463  0.00  0.00    +0.000 F 
ATOM      2  C   UNL     1      22.181  16.627  31.449  0.00  0.00    +0.000 A 
ATOM      3  C   UNL     1      21.889  16.359  32.787  0.00  0.00    +0.000 A 
ATOM      4  C   UNL     1      22.139  15.590  30.514  0.00  0.00    +0.000 A 
ATOM      5  C   UNL     1      21.563  15.064  33.179  0.00  0.00    +0.000 A 
ATOM      6  C   UNL     1      21.811  14.294  30.908  0.00  0.00    +0.000 A 
ATOM      7  C   UNL     1      21.547  14.025  32.249  0.00  0.00    +0.000 A 
ENDROOT
BRANCH   2   8
ATOM      8  N   UNL     1      22.516  17.912  30.984  0.00  0.00    +0.000 N 
ATOM      9  C   UNL     1      23.768  18.498  31.073  0.00  0.00    +0.000 C 
ATOM     10  O   UNL     1      24.763  18.004  31.588  0.00  0.00    +0.000 OA
ATOM     11  H   UNL     1      21.761  18.465  30.588  0.00  0.00    +0.000 HD
BRANCH   9  12
ATOM     12  C   UNL     1      23.845  19.890  30.518  0.00  0.00    +0.000 C 
ATOM     13  C   UNL     1      23.980  20.039  29.073  0.00  0.00    +0.000 C 
ATOM     14  C   UNL     1      25.126  20.327  29.974  0.00  0.00    +0.000 C 
BRANCH  12  15
ATOM     15  C   UNL     1      23.000  20.899  31.237  0.00  0.00    +0.000 C 
ATOM     16  O   UNL     1      22.271  20.519  32.145  0.00  0.00    +0.000 OA
ATOM     17  N   UNL     1      23.175  22.207  30.818  0.00  0.00    +0.000 N 
ATOM     18  H   UNL     1      23.859  22.385  30.088  0.00  0.00    +0.000 HD
BRANCH  17  19
ATOM     19  C   UNL     1      22.510  23.329  31.345  0.00  0.00    +0.000 A 
ATOM     20  C   UNL     1      23.103  23.988  32.424  0.00  0.00    +0.000 A 
ATOM     21  C   UNL     1      22.493  25.105  32.990  0.00  0.00    +0.000 A 
ATOM     22  C   UNL     1      21.287  25.559  32.468  0.00  0.00    +0.000 A 
ATOM     23  F   UNL     1      20.699  26.634  33.008  0.00  0.00    +0.000 F 
ATOM     24  C   UNL     1      20.683  24.916  31.393  0.00  0.00    +0.000 A 
ATOM     25  C   UNL     1      21.299  23.800  30.834  0.00  0.00    +0.000 A 
ENDBRANCH  17  19
ENDBRANCH  12  15
ENDBRANCH   9  12
ENDBRANCH   2   8
BRANCH   7  26
ATOM     26  O   UNL     1      21.167  12.745  32.568  0.00  0.00    +0.000 OA
BRANCH  26  27
ATOM     27  C   UNL     1      22.009  12.024  33.392  0.00  0.00    +0.000 A 
ATOM     28  C   UNL     1      21.467  11.451  34.553  0.00  0.00    +0.000 A 
ATOM     29  C   UNL     1      22.316  10.671  35.357  0.00  0.00    +0.000 A 
ATOM     30  C   UNL     1      20.128  11.637  34.931  0.00  0.00    +0.000 A 
ATOM     31  N   UNL     1      23.603  10.455  35.043  0.00  0.00    +0.000 NA
ATOM     32  C   UNL     1      21.788  10.109  36.509  0.00  0.00    +0.000 A 
ATOM     33  C   UNL     1      24.084  11.013  33.909  0.00  0.00    +0.000 A 
ATOM     34  C   UNL     1      23.336  11.791  33.049  0.00  0.00    +0.000 A 
ATOM     35  C   UNL     1      20.452  10.289  36.891  0.00  0.00    +0.000 A 
ATOM     36  C   UNL     1      19.610  11.064  36.093  0.00  0.00    +0.000 A 
BRANCH  36  37
ATOM     37  O   UNL     1      18.310  11.216  36.514  0.00  0.00    +0.000 OA
ATOM     38  C   UNL     1      17.965  12.498  36.963  0.00  0.00    +0.000 C 
ENDBRANCH  36  37
BRANCH  35  39
ATOM     39  O   UNL     1      19.914   9.742  38.032  0.00  0.00    +0.000 OA
BRANCH  39  40
ATOM     40  C   UNL     1      20.574   8.693  38.519  0.00  0.00    +0.000 C 
ATOM     41  C   UNL     1      21.343   7.497  39.088  0.00  0.00    +0.000 C 
BRANCH  41  42
ATOM     42  C   UNL     1      22.113   6.303  39.664  0.00  0.00    +0.000 C 
BRANCH  42  43
ATOM     43  N   UNL     1      22.845   5.169  40.210  0.00  0.00    +0.000 N 
ATOM     44  C   UNL     1      22.028   3.950  39.921  0.00  0.00    +0.000 C 
ATOM     45  C   UNL     1      22.325   2.785  38.921  0.00  0.00    +0.000 C 
ATOM     46  O   UNL     1      23.322   2.510  38.053  0.00  0.00    +0.000 OA
ATOM     47  C   UNL     1      24.057   3.612  38.308  0.00  0.00    +0.000 C 
ATOM     48  C   UNL     1      23.938   4.855  39.241  0.00  0.00    +0.000 C 
ENDBRANCH  42  43
ENDBRANCH  41  42
ENDBRANCH  39  40
ENDBRANCH  35  39
ENDBRANCH  26  27
ENDBRANCH   7  26
TORSDOF 11
ENDMDL
