MODEL 1
REMARK VINA RESULT:      -4.8      0.000      0.000
REMARK  Name = 
REMARK  7 active torsions:
REMARK  status: ('A' for Active; 'I' for Inactive)
REMARK    1  A    between atoms: S_1  and  O_3
REMARK    2  A    between atoms: S_1  and  O_6
REMARK    3  A    between atoms: O_3  and  C_9
REMARK    4  A    between atoms: O_4  and  C_10
REMARK    5  A    between atoms: O_5  and  C_11
REMARK    6  A    between atoms: C_12  and  C_14
REMARK    7  A    between atoms: C_13  and  C_15
REMARK                            x       y       z     vdW  Elec       q    Type
REMARK                         _______ _______ _______ _____ _____    ______ ____
ROOT
ATOM      1  O   UNL     1      25.307  -1.400  32.864  0.00  0.00    +0.000 OA
ATOM      2  C   UNL     1      26.327  -0.941  30.682  0.00  0.00    +0.000 C 
ATOM      3  C   UNL     1      25.608   0.416  30.650  0.00  0.00    +0.000 C 
ATOM      4  C   UNL     1      24.332   0.385  31.502  0.00  0.00    +0.000 C 
ATOM      5  C   UNL     1      26.547  -1.362  32.147  0.00  0.00    +0.000 C 
ATOM      6  C   UNL     1      24.650  -0.126  32.914  0.00  0.00    +0.000 C 
ATOM      7  C   UNL     1      27.173  -2.748  32.254  0.00  0.00    +0.000 C 
ATOM      8  C   UNL     1      23.383  -0.295  33.746  0.00  0.00    +0.000 C 
ENDROOT
BRANCH   3   9
ATOM      9  O   UNL     1      25.240   0.824  29.324  0.00  0.00    +0.000 OA
ATOM     10  H   UNL     1      24.596   0.183  28.958  0.00  0.00    +0.000 HD
ENDBRANCH   3   9
BRANCH   4  11
ATOM     11  O   UNL     1      23.779   1.705  31.547  0.00  0.00    +0.000 OA
ATOM     12  H   UNL     1      22.833   1.573  31.763  0.00  0.00    +0.000 HD
ENDBRANCH   4  11
BRANCH   2  13
ATOM     13  O   UNL     1      25.527  -1.921  30.017  0.00  0.00    +0.000 OA
BRANCH  13  14
ATOM     14  S   UNL     1      25.989  -2.430  28.550  0.00  0.00    +0.000 S 
ATOM     15  O   UNL     1      26.080  -3.871  28.579  0.00  0.00    +0.000 OA
ATOM     16  O   UNL     1      25.230  -1.718  27.545  0.00  0.00    +0.000 OA
BRANCH  14  17
ATOM     17  O   UNL     1      27.508  -1.905  28.484  0.00  0.00    +0.000 OA
ATOM     18  H   UNL     1      27.862  -1.934  29.398  0.00  0.00    +0.000 HD
ENDBRANCH  14  17
ENDBRANCH  13  14
ENDBRANCH   2  13
TORSDOF 5
ENDMDL
MODEL 2
REMARK VINA RESULT:      -4.7     14.547     15.188
REMARK  Name = 
REMARK  7 active torsions:
REMARK  status: ('A' for Active; 'I' for Inactive)
REMARK    1  A    between atoms: S_1  and  O_3
REMARK    2  A    between atoms: S_1  and  O_6
REMARK    3  A    between atoms: O_3  and  C_9
REMARK    4  A    between atoms: O_4  and  C_10
REMARK    5  A    between atoms: O_5  and  C_11
REMARK    6  A    between atoms: C_12  and  C_14
REMARK    7  A    between atoms: C_13  and  C_15
REMARK                            x       y       z     vdW  Elec       q    Type
REMARK                         _______ _______ _______ _____ _____    ______ ____
ROOT
ATOM      1  O   UNL     1      34.980  10.617  36.214  0.00  0.00    +0.000 OA
ATOM      2  C   UNL     1      36.236   9.759  34.290  0.00  0.00    +0.000 C 
ATOM      3  C   UNL     1      35.877  11.031  33.509  0.00  0.00    +0.000 C 
ATOM      4  C   UNL     1      34.575  11.652  34.033  0.00  0.00    +0.000 C 
ATOM      5  C   UNL     1      36.240  10.075  35.798  0.00  0.00    +0.000 C 
ATOM      6  C   UNL     1      34.655  11.848  35.553  0.00  0.00    +0.000 C 
ATOM      7  C   UNL     1      36.497   8.831  36.640  0.00  0.00    +0.000 C 
ATOM      8  C   UNL     1      33.330  12.339  36.124  0.00  0.00    +0.000 C 
ENDROOT
BRANCH   3   9
ATOM      9  O   UNL     1      35.717  10.799  32.101  0.00  0.00    +0.000 OA
ATOM     10  H   UNL     1      36.596  10.822  31.670  0.00  0.00    +0.000 HD
ENDBRANCH   3   9
BRANCH   4  11
ATOM     11  O   UNL     1      34.361  12.901  33.366  0.00  0.00    +0.000 OA
ATOM     12  H   UNL     1      35.255  13.198  33.098  0.00  0.00    +0.000 HD
ENDBRANCH   4  11
BRANCH   2  13
ATOM     13  O   UNL     1      35.270   8.742  34.016  0.00  0.00    +0.000 OA
BRANCH  13  14
ATOM     14  S   UNL     1      35.720   7.468  33.122  0.00  0.00    +0.000 S 
ATOM     15  O   UNL     1      34.632   6.519  33.107  0.00  0.00    +0.000 OA
ATOM     16  O   UNL     1      36.354   7.945  31.913  0.00  0.00    +0.000 OA
BRANCH  14  17
ATOM     17  O   UNL     1      36.857   6.804  34.047  0.00  0.00    +0.000 OA
ATOM     18  H   UNL     1      37.698   6.854  33.547  0.00  0.00    +0.000 HD
ENDBRANCH  14  17
ENDBRANCH  13  14
ENDBRANCH   2  13
TORSDOF 5
ENDMDL
MODEL 3
REMARK VINA RESULT:      -4.7     18.238     19.656
REMARK  Name = 
REMARK  7 active torsions:
REMARK  status: ('A' for Active; 'I' for Inactive)
REMARK    1  A    between atoms: S_1  and  O_3
REMARK    2  A    between atoms: S_1  and  O_6
REMARK    3  A    between atoms: O_3  and  C_9
REMARK    4  A    between atoms: O_4  and  C_10
REMARK    5  A    between atoms: O_5  and  C_11
REMARK    6  A    between atoms: C_12  and  C_14
REMARK    7  A    between atoms: C_13  and  C_15
REMARK                            x       y       z     vdW  Elec       q    Type
REMARK                         _______ _______ _______ _____ _____    ______ ____
ROOT
ATOM      1  O   UNL     1      39.385  11.216  21.143  0.00  0.00    +0.000 OA
ATOM      2  C   UNL     1      40.153   9.036  21.964  0.00  0.00    +0.000 C 
ATOM      3  C   UNL     1      39.002   8.362  21.204  0.00  0.00    +0.000 C 
ATOM      4  C   UNL     1      37.828   9.331  21.007  0.00  0.00    +0.000 C 
ATOM      5  C   UNL     1      40.525  10.353  21.257  0.00  0.00    +0.000 C 
ATOM      6  C   UNL     1      38.321  10.639  20.372  0.00  0.00    +0.000 C 
ATOM      7  C   UNL     1      41.600  11.124  22.014  0.00  0.00    +0.000 C 
ATOM      8  C   UNL     1      37.205  11.674  20.285  0.00  0.00    +0.000 C 
ENDROOT
BRANCH   3   9
ATOM      9  O   UNL     1      38.499   7.193  21.868  0.00  0.00    +0.000 OA
ATOM     10  H   UNL     1      37.779   7.457  22.478  0.00  0.00    +0.000 HD
ENDBRANCH   3   9
BRANCH   4  11
ATOM     11  O   UNL     1      36.846   8.699  20.180  0.00  0.00    +0.000 OA
ATOM     12  H   UNL     1      36.602   7.881  20.660  0.00  0.00    +0.000 HD
ENDBRANCH   4  11
BRANCH   2  13
ATOM     13  O   UNL     1      39.744   9.311  23.305  0.00  0.00    +0.000 OA
BRANCH  13  14
ATOM     14  S   UNL     1      40.269   8.338  24.489  0.00  0.00    +0.000 S 
ATOM     15  O   UNL     1      41.077   7.299  23.896  0.00  0.00    +0.000 OA
ATOM     16  O   UNL     1      40.732   9.150  25.593  0.00  0.00    +0.000 OA
BRANCH  14  17
ATOM     17  O   UNL     1      38.907   7.614  24.947  0.00  0.00    +0.000 OA
ATOM     18  H   UNL     1      38.189   7.968  24.381  0.00  0.00    +0.000 HD
ENDBRANCH  14  17
ENDBRANCH  13  14
ENDBRANCH   2  13
TORSDOF 5
ENDMDL
MODEL 4
REMARK VINA RESULT:      -4.4     14.346     15.129
REMARK  Name = 
REMARK  7 active torsions:
REMARK  status: ('A' for Active; 'I' for Inactive)
REMARK    1  A    between atoms: S_1  and  O_3
REMARK    2  A    between atoms: S_1  and  O_6
REMARK    3  A    between atoms: O_3  and  C_9
REMARK    4  A    between atoms: O_4  and  C_10
REMARK    5  A    between atoms: O_5  and  C_11
REMARK    6  A    between atoms: C_12  and  C_14
REMARK    7  A    between atoms: C_13  and  C_15
REMARK                            x       y       z     vdW  Elec       q    Type
REMARK                         _______ _______ _______ _____ _____    ______ ____
ROOT
ATOM      1  O   UNL     1      35.155  10.506  33.876  0.00  0.00    +0.000 OA
ATOM      2  C   UNL     1      36.393   8.631  32.896  0.00  0.00    +0.000 C 
ATOM      3  C   UNL     1      35.244   7.689  33.283  0.00  0.00    +0.000 C 
ATOM      4  C   UNL     1      34.462   8.239  34.485  0.00  0.00    +0.000 C 
ATOM      5  C   UNL     1      35.839  10.054  32.700  0.00  0.00    +0.000 C 
ATOM      6  C   UNL     1      34.028   9.687  34.218  0.00  0.00    +0.000 C 
ATOM      7  C   UNL     1      36.945  11.061  32.406  0.00  0.00    +0.000 C 
ATOM      8  C   UNL     1      33.366  10.306  35.443  0.00  0.00    +0.000 C 
ENDROOT
BRANCH   3   9
ATOM      9  O   UNL     1      35.689   6.366  33.618  0.00  0.00    +0.000 OA
ATOM     10  H   UNL     1      36.633   6.274  33.371  0.00  0.00    +0.000 HD
ENDBRANCH   3   9
BRANCH   4  11
ATOM     11  O   UNL     1      33.327   7.398  34.716  0.00  0.00    +0.000 OA
ATOM     12  H   UNL     1      33.209   7.396  35.688  0.00  0.00    +0.000 HD
ENDBRANCH   4  11
BRANCH   2  13
ATOM     13  O   UNL     1      37.375   8.637  33.934  0.00  0.00    +0.000 OA
BRANCH  13  14
ATOM     14  S   UNL     1      38.817   7.958  33.640  0.00  0.00    +0.000 S 
ATOM     15  O   UNL     1      39.037   7.964  32.213  0.00  0.00    +0.000 OA
ATOM     16  O   UNL     1      39.783   8.484  34.579  0.00  0.00    +0.000 OA
BRANCH  14  17
ATOM     17  O   UNL     1      38.541   6.421  34.026  0.00  0.00    +0.000 OA
ATOM     18  H   UNL     1      37.864   6.420  34.735  0.00  0.00    +0.000 HD
ENDBRANCH  14  17
ENDBRANCH  13  14
ENDBRANCH   2  13
TORSDOF 5
ENDMDL
MODEL 5
REMARK VINA RESULT:      -4.3     14.424     15.550
REMARK  Name = 
REMARK  7 active torsions:
REMARK  status: ('A' for Active; 'I' for Inactive)
REMARK    1  A    between atoms: S_1  and  O_3
REMARK    2  A    between atoms: S_1  and  O_6
REMARK    3  A    between atoms: O_3  and  C_9
REMARK    4  A    between atoms: O_4  and  C_10
REMARK    5  A    between atoms: O_5  and  C_11
REMARK    6  A    between atoms: C_12  and  C_14
REMARK    7  A    between atoms: C_13  and  C_15
REMARK                            x       y       z     vdW  Elec       q    Type
REMARK                         _______ _______ _______ _____ _____    ______ ____
ROOT
ATOM      1  O   UNL     1      37.124   7.732  33.072  0.00  0.00    +0.000 OA
ATOM      2  C   UNL     1      35.170   9.210  32.983  0.00  0.00    +0.000 C 
ATOM      3  C   UNL     1      36.012  10.253  32.235  0.00  0.00    +0.000 C 
ATOM      4  C   UNL     1      37.504  10.096  32.563  0.00  0.00    +0.000 C 
ATOM      5  C   UNL     1      35.740   7.807  32.707  0.00  0.00    +0.000 C 
ATOM      6  C   UNL     1      37.947   8.645  32.333  0.00  0.00    +0.000 C 
ATOM      7  C   UNL     1      35.006   6.728  33.497  0.00  0.00    +0.000 C 
ATOM      8  C   UNL     1      39.389   8.424  32.776  0.00  0.00    +0.000 C 
ENDROOT
BRANCH   3   9
ATOM      9  O   UNL     1      35.636  11.604  32.541  0.00  0.00    +0.000 OA
ATOM     10  H   UNL     1      34.669  11.703  32.421  0.00  0.00    +0.000 HD
ENDBRANCH   3   9
BRANCH   4  11
ATOM     11  O   UNL     1      38.252  10.997  31.740  0.00  0.00    +0.000 OA
ATOM     12  H   UNL     1      39.019  11.260  32.289  0.00  0.00    +0.000 HD
ENDBRANCH   4  11
BRANCH   2  13
ATOM     13  O   UNL     1      35.213   9.479  34.385  0.00  0.00    +0.000 OA
BRANCH  13  14
ATOM     14  S   UNL     1      33.849   9.941  35.127  0.00  0.00    +0.000 S 
ATOM     15  O   UNL     1      32.759   9.152  34.603  0.00  0.00    +0.000 OA
ATOM     16  O   UNL     1      34.106  10.067  36.546  0.00  0.00    +0.000 OA
BRANCH  14  17
ATOM     17  O   UNL     1      33.636  11.420  34.532  0.00  0.00    +0.000 OA
ATOM     18  H   UNL     1      34.465  11.666  34.072  0.00  0.00    +0.000 HD
ENDBRANCH  14  17
ENDBRANCH  13  14
ENDBRANCH   2  13
TORSDOF 5
ENDMDL
MODEL 6
REMARK VINA RESULT:      -4.3     15.604     16.385
REMARK  Name = 
REMARK  7 active torsions:
REMARK  status: ('A' for Active; 'I' for Inactive)
REMARK    1  A    between atoms: S_1  and  O_3
REMARK    2  A    between atoms: S_1  and  O_6
REMARK    3  A    between atoms: O_3  and  C_9
REMARK    4  A    between atoms: O_4  and  C_10
REMARK    5  A    between atoms: O_5  and  C_11
REMARK    6  A    between atoms: C_12  and  C_14
REMARK    7  A    between atoms: C_13  and  C_15
REMARK                            x       y       z     vdW  Elec       q    Type
REMARK                         _______ _______ _______ _____ _____    ______ ____
ROOT
ATOM      1  O   UNL     1      39.082  10.454  34.111  0.00  0.00    +0.000 OA
ATOM      2  C   UNL     1      37.545   9.273  32.609  0.00  0.00    +0.000 C 
ATOM      3  C   UNL     1      37.095  10.623  32.034  0.00  0.00    +0.000 C 
ATOM      4  C   UNL     1      37.296  11.752  33.054  0.00  0.00    +0.000 C 
ATOM      5  C   UNL     1      38.985   9.403  33.140  0.00  0.00    +0.000 C 
ATOM      6  C   UNL     1      38.739  11.741  33.579  0.00  0.00    +0.000 C 
ATOM      7  C   UNL     1      39.464   8.122  33.812  0.00  0.00    +0.000 C 
ATOM      8  C   UNL     1      38.937  12.764  34.691  0.00  0.00    +0.000 C 
ENDROOT
BRANCH   3   9
ATOM      9  O   UNL     1      35.715  10.632  31.637  0.00  0.00    +0.000 OA
ATOM     10  H   UNL     1      35.546  11.422  31.082  0.00  0.00    +0.000 HD
ENDBRANCH   3   9
BRANCH   4  11
ATOM     11  O   UNL     1      36.990  13.000  32.423  0.00  0.00    +0.000 OA
ATOM     12  H   UNL     1      37.019  13.661  33.146  0.00  0.00    +0.000 HD
ENDBRANCH   4  11
BRANCH   2  13
ATOM     13  O   UNL     1      36.673   8.893  33.675  0.00  0.00    +0.000 OA
BRANCH  13  14
ATOM     14  S   UNL     1      35.657   7.653  33.439  0.00  0.00    +0.000 S 
ATOM     15  O   UNL     1      35.463   7.491  32.018  0.00  0.00    +0.000 OA
ATOM     16  O   UNL     1      36.044   6.559  34.303  0.00  0.00    +0.000 OA
BRANCH  14  17
ATOM     17  O   UNL     1      34.272   8.254  33.996  0.00  0.00    +0.000 OA
ATOM     18  H   UNL     1      33.553   7.866  33.455  0.00  0.00    +0.000 HD
ENDBRANCH  14  17
ENDBRANCH  13  14
ENDBRANCH   2  13
TORSDOF 5
ENDMDL
MODEL 7
REMARK VINA RESULT:      -4.3     37.453     39.208
REMARK  Name = 
REMARK  7 active torsions:
REMARK  status: ('A' for Active; 'I' for Inactive)
REMARK    1  A    between atoms: S_1  and  O_3
REMARK    2  A    between atoms: S_1  and  O_6
REMARK    3  A    between atoms: O_3  and  C_9
REMARK    4  A    between atoms: O_4  and  C_10
REMARK    5  A    between atoms: O_5  and  C_11
REMARK    6  A    between atoms: C_12  and  C_14
REMARK    7  A    between atoms: C_13  and  C_15
REMARK                            x       y       z     vdW  Elec       q    Type
REMARK                         _______ _______ _______ _____ _____    ______ ____
ROOT
ATOM      1  O   UNL     1      29.897  34.172  10.086  0.00  0.00    +0.000 OA
ATOM      2  C   UNL     1      29.122  32.426  11.624  0.00  0.00    +0.000 C 
ATOM      3  C   UNL     1      30.394  31.620  11.325  0.00  0.00    +0.000 C 
ATOM      4  C   UNL     1      30.957  31.970   9.940  0.00  0.00    +0.000 C 
ATOM      5  C   UNL     1      29.410  33.924  11.411  0.00  0.00    +0.000 C 
ATOM      6  C   UNL     1      31.127  33.489   9.806  0.00  0.00    +0.000 C 
ATOM      7  C   UNL     1      28.160  34.777  11.599  0.00  0.00    +0.000 C 
ATOM      8  C   UNL     1      31.558  33.881   8.397  0.00  0.00    +0.000 C 
ENDROOT
BRANCH   3   9
ATOM      9  O   UNL     1      30.183  30.201  11.367  0.00  0.00    +0.000 OA
ATOM     10  H   UNL     1      30.102  29.862  10.451  0.00  0.00    +0.000 HD
ENDBRANCH   3   9
BRANCH   4  11
ATOM     11  O   UNL     1      32.209  31.297   9.771  0.00  0.00    +0.000 OA
ATOM     12  H   UNL     1      32.847  31.818  10.300  0.00  0.00    +0.000 HD
ENDBRANCH   4  11
BRANCH   2  13
ATOM     13  O   UNL     1      28.076  32.009  10.745  0.00  0.00    +0.000 OA
BRANCH  13  14
ATOM     14  S   UNL     1      26.842  31.156  11.359  0.00  0.00    +0.000 S 
ATOM     15  O   UNL     1      25.621  31.618  10.743  0.00  0.00    +0.000 OA
ATOM     16  O   UNL     1      27.214  29.759  11.400  0.00  0.00    +0.000 OA
BRANCH  14  17
ATOM     17  O   UNL     1      26.792  31.697  12.873  0.00  0.00    +0.000 OA
ATOM     18  H   UNL     1      26.812  30.912  13.459  0.00  0.00    +0.000 HD
ENDBRANCH  14  17
ENDBRANCH  13  14
ENDBRANCH   2  13
TORSDOF 5
ENDMDL
MODEL 8
REMARK VINA RESULT:      -4.2     20.940     22.854
REMARK  Name = 
REMARK  7 active torsions:
REMARK  status: ('A' for Active; 'I' for Inactive)
REMARK    1  A    between atoms: S_1  and  O_3
REMARK    2  A    between atoms: S_1  and  O_6
REMARK    3  A    between atoms: O_3  and  C_9
REMARK    4  A    between atoms: O_4  and  C_10
REMARK    5  A    between atoms: O_5  and  C_11
REMARK    6  A    between atoms: C_12  and  C_14
REMARK    7  A    between atoms: C_13  and  C_15
REMARK                            x       y       z     vdW  Elec       q    Type
REMARK                         _______ _______ _______ _____ _____    ______ ____
ROOT
ATOM      1  O   UNL     1      36.172 -14.155  17.071  0.00  0.00    +0.000 OA
ATOM      2  C   UNL     1      38.595 -14.114  16.696  0.00  0.00    +0.000 C 
ATOM      3  C   UNL     1      38.702 -12.892  17.619  0.00  0.00    +0.000 C 
ATOM      4  C   UNL     1      37.383 -12.107  17.650  0.00  0.00    +0.000 C 
ATOM      5  C   UNL     1      37.365 -14.949  17.100  0.00  0.00    +0.000 C 
ATOM      6  C   UNL     1      36.215 -13.046  17.981  0.00  0.00    +0.000 C 
ATOM      7  C   UNL     1      37.144 -16.130  16.163  0.00  0.00    +0.000 C 
ATOM      8  C   UNL     1      34.875 -12.326  17.889  0.00  0.00    +0.000 C 
ENDROOT
BRANCH   3   9
ATOM      9  O   UNL     1      39.743 -11.983  17.230  0.00  0.00    +0.000 OA
ATOM     10  H   UNL     1      39.432 -11.064  17.362  0.00  0.00    +0.000 HD
ENDBRANCH   3   9
BRANCH   4  11
ATOM     11  O   UNL     1      37.493 -11.064  18.624  0.00  0.00    +0.000 OA
ATOM     12  H   UNL     1      37.641 -10.248  18.102  0.00  0.00    +0.000 HD
ENDBRANCH   4  11
BRANCH   2  13
ATOM     13  O   UNL     1      38.456 -13.680  15.342  0.00  0.00    +0.000 OA
BRANCH  13  14
ATOM     14  S   UNL     1      39.731 -13.811  14.352  0.00  0.00    +0.000 S 
ATOM     15  O   UNL     1      40.889 -14.144  15.147  0.00  0.00    +0.000 OA
ATOM     16  O   UNL     1      39.342 -14.573  13.185  0.00  0.00    +0.000 OA
BRANCH  14  17
ATOM     17  O   UNL     1      39.949 -12.285  13.893  0.00  0.00    +0.000 OA
ATOM     18  H   UNL     1      39.198 -12.050  13.309  0.00  0.00    +0.000 HD
ENDBRANCH  14  17
ENDBRANCH  13  14
ENDBRANCH   2  13
TORSDOF 5
ENDMDL
MODEL 9
REMARK VINA RESULT:      -4.1     19.654     21.794
REMARK  Name = 
REMARK  7 active torsions:
REMARK  status: ('A' for Active; 'I' for Inactive)
REMARK    1  A    between atoms: S_1  and  O_3
REMARK    2  A    between atoms: S_1  and  O_6
REMARK    3  A    between atoms: O_3  and  C_9
REMARK    4  A    between atoms: O_4  and  C_10
REMARK    5  A    between atoms: O_5  and  C_11
REMARK    6  A    between atoms: C_12  and  C_14
REMARK    7  A    between atoms: C_13  and  C_15
REMARK                            x       y       z     vdW  Elec       q    Type
REMARK                         _______ _______ _______ _____ _____    ______ ____
ROOT
ATOM      1  O   UNL     1      35.907 -13.613  16.678  0.00  0.00    +0.000 OA
ATOM      2  C   UNL     1      37.351 -12.072  17.923  0.00  0.00    +0.000 C 
ATOM      3  C   UNL     1      38.275 -11.975  16.702  0.00  0.00    +0.000 C 
ATOM      4  C   UNL     1      38.172 -13.235  15.830  0.00  0.00    +0.000 C 
ATOM      5  C   UNL     1      35.923 -12.408  17.453  0.00  0.00    +0.000 C 
ATOM      6  C   UNL     1      36.704 -13.524  15.488  0.00  0.00    +0.000 C 
ATOM      7  C   UNL     1      34.970 -12.612  18.625  0.00  0.00    +0.000 C 
ATOM      8  C   UNL     1      36.554 -14.842  14.736  0.00  0.00    +0.000 C 
ENDROOT
BRANCH   3   9
ATOM      9  O   UNL     1      39.656 -11.798  17.054  0.00  0.00    +0.000 OA
ATOM     10  H   UNL     1      39.797 -10.872  17.342  0.00  0.00    +0.000 HD
ENDBRANCH   3   9
BRANCH   4  11
ATOM     11  O   UNL     1      38.945 -13.036  14.642  0.00  0.00    +0.000 OA
ATOM     12  H   UNL     1      39.839 -12.795  14.962  0.00  0.00    +0.000 HD
ENDBRANCH   4  11
BRANCH   2  13
ATOM     13  O   UNL     1      37.822 -13.099  18.798  0.00  0.00    +0.000 OA
BRANCH  13  14
ATOM     14  S   UNL     1      38.485 -12.667  20.212  0.00  0.00    +0.000 S 
ATOM     15  O   UNL     1      37.834 -13.412  21.264  0.00  0.00    +0.000 OA
ATOM     16  O   UNL     1      39.923 -12.626  20.062  0.00  0.00    +0.000 OA
BRANCH  14  17
ATOM     17  O   UNL     1      37.963 -11.154  20.371  0.00  0.00    +0.000 OA
ATOM     18  H   UNL     1      38.752 -10.574  20.345  0.00  0.00    +0.000 HD
ENDBRANCH  14  17
ENDBRANCH  13  14
ENDBRANCH   2  13
TORSDOF 5
ENDMDL
