REMARK  Name = Fulvestrant.pdbqt.pdb
REMARK  12 active torsions:
REMARK  status: ('A' for Active; 'I' for Inactive)
REMARK    1  A    between atoms: C_6  and  O_40
REMARK    2  A    between atoms: C_8  and  C_19
REMARK    3  A    between atoms: C_18  and  O_42
REMARK    4  A    between atoms: C_20  and  C_21
REMARK    5  A    between atoms: C_22  and  C_23
REMARK    6  A    between atoms: C_23  and  C_24
REMARK    7  A    between atoms: C_25  and  C_26
REMARK    8  A    between atoms: C_27  and  S_28
REMARK    9  A    between atoms: S_28  and  C_30
REMARK   10  A    between atoms: C_30  and  C_31
REMARK   11  A    between atoms: C_32  and  C_33
REMARK   12  A    between atoms: C_33  and  C_36
REMARK                            x       y       z     vdW  Elec       q    Type
REMARK                         _______ _______ _______ _____ _____    ______ ____
ROOT
ATOM      1  C   UNL     1       6.031   1.576   0.172  0.00  0.00    +0.000 C 
ATOM      2  C   UNL     1       7.054   2.742  -0.238  0.00  0.00    +0.000 C 
ATOM      3  C   UNL     1       6.424   0.137   0.317  0.00  0.00    +0.000 A 
ATOM      4  C   UNL     1       7.900  -0.280   0.486  0.00  0.00    +0.000 A 
ATOM      5  C   UNL     1       8.385   2.226   0.063  0.00  0.00    +0.000 C 
ATOM      6  C   UNL     1       6.627   3.912   0.676  0.00  0.00    +0.000 C 
ATOM      7  C   UNL     1       5.102   2.152   1.098  0.00  0.00    +0.000 C 
ATOM      8  C   UNL     1       5.417  -0.957   0.324  0.00  0.00    +0.000 A 
ATOM      9  C   UNL     1       8.790   0.816   0.391  0.00  0.00    +0.000 C 
ATOM     10  C   UNL     1       5.472   3.574   1.431  0.00  0.00    +0.000 C 
ATOM     11  C   UNL     1       6.828   3.100  -1.729  0.00  0.00    +0.000 C 
ATOM     12  C   UNL     1       8.340  -1.691   0.675  0.00  0.00    +0.000 A 
ATOM     13  C   UNL     1       6.033  -2.216   0.524  0.00  0.00    +0.000 A 
ATOM     14  C   UNL     1       7.353  -2.705   0.696  0.00  0.00    +0.000 A 
ATOM     15  C   UNL     1       9.676  -2.054   0.829  0.00  0.00    +0.000 A 
ATOM     16  C   UNL     1       7.672  -4.043   0.864  0.00  0.00    +0.000 A 
ATOM     17  C   UNL     1      10.013  -3.398   1.000  0.00  0.00    +0.000 A 
ATOM     18  C   UNL     1       9.015  -4.374   1.015  0.00  0.00    +0.000 A 
ENDROOT
BRANCH   8  19
ATOM     19  C   UNL     1       4.055  -0.772  -0.014  0.00  0.00    +0.000 C 
ATOM     20  C   UNL     1       2.581  -0.591  -0.390  0.00  0.00    +0.000 C 
BRANCH  20  21
ATOM     21  C   UNL     1       1.109  -0.435  -0.781  0.00  0.00    +0.000 C 
ATOM     22  C   UNL     1      -0.361  -0.304  -1.192  0.00  0.00    +0.000 C 
BRANCH  22  23
ATOM     23  C   UNL     1      -1.826  -0.198  -1.626  0.00  0.00    +0.000 C 
BRANCH  23  24
ATOM     24  C   UNL     1      -3.285  -0.115  -2.087  0.00  0.00    +0.000 C 
ATOM     25  C   UNL     1      -4.735  -0.052  -2.576  0.00  0.00    +0.000 C 
BRANCH  25  26
ATOM     26  C   UNL     1      -6.176  -0.006  -3.095  0.00  0.00    +0.000 C 
ATOM     27  C   UNL     1      -7.605   0.025  -3.646  0.00  0.00    +0.000 C 
BRANCH  27  28
ATOM     28  S   UNL     1      -9.235   0.050  -4.310  0.00  0.00    +0.000 S 
ATOM     29  O   UNL     1      -9.385  -1.434  -4.149  0.00  0.00    +0.000 OA
BRANCH  28  30
ATOM     30  C   UNL     1      -9.989   0.359  -2.749  0.00  0.00    +0.000 C 
BRANCH  30  31
ATOM     31  C   UNL     1     -10.667   0.623  -1.400  0.00  0.00    +0.000 C 
ATOM     32  C   UNL     1     -11.362   0.883  -0.059  0.00  0.00    +0.000 C 
BRANCH  32  33
ATOM     33  C   UNL     1     -12.035   1.131   1.219  0.00  0.00    +0.000 C 
ATOM     34  F   UNL     1     -13.369   0.918   1.039  0.00  0.00    +0.000 F 
ATOM     35  F   UNL     1     -11.904   2.456   1.508  0.00  0.00    +0.000 F 
BRANCH  33  36
ATOM     36  C   UNL     1     -11.496   0.269   2.365  0.00  0.00    +0.000 C 
ATOM     37  F   UNL     1     -10.174   0.486   2.587  0.00  0.00    +0.000 F 
ATOM     38  F   UNL     1     -11.642  -1.057   2.121  0.00  0.00    +0.000 F 
ATOM     39  F   UNL     1     -12.137   0.526   3.534  0.00  0.00    +0.000 F 
ENDBRANCH  33  36
ENDBRANCH  32  33
ENDBRANCH  30  31
ENDBRANCH  28  30
ENDBRANCH  27  28
ENDBRANCH  25  26
ENDBRANCH  23  24
ENDBRANCH  22  23
ENDBRANCH  20  21
ENDBRANCH   8  19
BRANCH   6  40
ATOM     40  O   UNL     1       7.496   4.909   1.067  0.00  0.00    +0.000 OA
ATOM     41  H   UNL     1       7.098   5.493   1.737  0.00  0.00    +0.000 HD
ENDBRANCH   6  40
BRANCH  18  42
ATOM     42  O   UNL     1       9.393  -5.676   1.184  0.00  0.00    +0.000 OA
ATOM     43  H   UNL     1       8.595  -6.233   1.162  0.00  0.00    +0.000 HD
ENDBRANCH  18  42
TORSDOF 12
