MODEL 1
REMARK VINA RESULT:      -7.5      0.000      0.000
REMARK  Name = Fulvestrant.pdbqt.pdb
REMARK  12 active torsions:
REMARK  status: ('A' for Active; 'I' for Inactive)
REMARK    1  A    between atoms: C_6  and  O_40
REMARK    2  A    between atoms: C_8  and  C_19
REMARK    3  A    between atoms: C_18  and  O_42
REMARK    4  A    between atoms: C_20  and  C_21
REMARK    5  A    between atoms: C_22  and  C_23
REMARK    6  A    between atoms: C_23  and  C_24
REMARK    7  A    between atoms: C_25  and  C_26
REMARK    8  A    between atoms: C_27  and  S_28
REMARK    9  A    between atoms: S_28  and  C_30
REMARK   10  A    between atoms: C_30  and  C_31
REMARK   11  A    between atoms: C_32  and  C_33
REMARK   12  A    between atoms: C_33  and  C_36
REMARK                            x       y       z     vdW  Elec       q    Type
REMARK                         _______ _______ _______ _____ _____    ______ ____
ROOT
ATOM      1  C   UNL     1      15.549   2.197  28.484  0.00  0.00    +0.000 C 
ATOM      2  C   UNL     1      14.520   1.745  29.629  0.00  0.00    +0.000 C 
ATOM      3  C   UNL     1      15.440   3.487  27.728  0.00  0.00    +0.000 A 
ATOM      4  C   UNL     1      14.587   4.659  28.257  0.00  0.00    +0.000 A 
ATOM      5  C   UNL     1      13.865   2.969  30.079  0.00  0.00    +0.000 C 
ATOM      6  C   UNL     1      15.444   1.115  30.694  0.00  0.00    +0.000 C 
ATOM      7  C   UNL     1      16.839   1.717  28.880  0.00  0.00    +0.000 C 
ATOM      8  C   UNL     1      16.158   3.711  26.446  0.00  0.00    +0.000 A 
ATOM      9  C   UNL     1      13.882   4.329  29.439  0.00  0.00    +0.000 C 
ATOM     10  C   UNL     1      16.790   1.074  30.242  0.00  0.00    +0.000 C 
ATOM     11  C   UNL     1      13.557   0.683  29.040  0.00  0.00    +0.000 C 
ATOM     12  C   UNL     1      14.477   5.974  27.566  0.00  0.00    +0.000 A 
ATOM     13  C   UNL     1      15.934   5.020  25.957  0.00  0.00    +0.000 A 
ATOM     14  C   UNL     1      15.190   6.159  26.358  0.00  0.00    +0.000 A 
ATOM     15  C   UNL     1      13.705   7.025  28.056  0.00  0.00    +0.000 A 
ATOM     16  C   UNL     1      15.144   7.349  25.648  0.00  0.00    +0.000 A 
ATOM     17  C   UNL     1      13.650   8.230  27.352  0.00  0.00    +0.000 A 
ATOM     18  C   UNL     1      14.364   8.380  26.162  0.00  0.00    +0.000 A 
ENDROOT
BRANCH   8  19
ATOM     19  C   UNL     1      16.818   2.685  25.727  0.00  0.00    +0.000 C 
ATOM     20  C   UNL     1      17.536   1.590  24.932  0.00  0.00    +0.000 C 
BRANCH  20  21
ATOM     21  C   UNL     1      18.257   0.514  24.116  0.00  0.00    +0.000 C 
ATOM     22  C   UNL     1      18.959  -0.585  23.311  0.00  0.00    +0.000 C 
BRANCH  22  23
ATOM     23  C   UNL     1      19.640  -1.707  22.522  0.00  0.00    +0.000 C 
BRANCH  23  24
ATOM     24  C   UNL     1      20.333  -2.805  21.708  0.00  0.00    +0.000 C 
ATOM     25  C   UNL     1      21.027  -3.880  20.867  0.00  0.00    +0.000 C 
BRANCH  25  26
ATOM     26  C   UNL     1      21.720  -4.934  19.997  0.00  0.00    +0.000 C 
ATOM     27  C   UNL     1      22.383  -5.989  19.106  0.00  0.00    +0.000 C 
BRANCH  27  28
ATOM     28  S   UNL     1      23.115  -7.204  18.064  0.00  0.00    +0.000 S 
ATOM     29  O   UNL     1      22.118  -6.951  16.972  0.00  0.00    +0.000 OA
BRANCH  28  30
ATOM     30  C   UNL     1      24.266  -6.072  17.360  0.00  0.00    +0.000 C 
BRANCH  30  31
ATOM     31  C   UNL     1      25.286  -5.100  16.757  0.00  0.00    +0.000 C 
ATOM     32  C   UNL     1      26.317  -4.130  16.169  0.00  0.00    +0.000 C 
BRANCH  32  33
ATOM     33  C   UNL     1      27.308  -3.203  15.615  0.00  0.00    +0.000 C 
ATOM     34  F   UNL     1      28.520  -3.512  16.156  0.00  0.00    +0.000 F 
ATOM     35  F   UNL     1      27.005  -1.953  16.065  0.00  0.00    +0.000 F 
BRANCH  33  36
ATOM     36  C   UNL     1      27.373  -3.229  14.085  0.00  0.00    +0.000 C 
ATOM     37  F   UNL     1      28.249  -2.313  13.597  0.00  0.00    +0.000 F 
ATOM     38  F   UNL     1      26.170  -2.964  13.517  0.00  0.00    +0.000 F 
ATOM     39  F   UNL     1      27.770  -4.440  13.617  0.00  0.00    +0.000 F 
ENDBRANCH  33  36
ENDBRANCH  32  33
ENDBRANCH  30  31
ENDBRANCH  28  30
ENDBRANCH  27  28
ENDBRANCH  25  26
ENDBRANCH  23  24
ENDBRANCH  22  23
ENDBRANCH  20  21
ENDBRANCH   8  19
BRANCH   6  40
ATOM     40  O   UNL     1      15.116   1.068  32.033  0.00  0.00    +0.000 OA
ATOM     41  H   UNL     1      14.397   1.688  32.251  0.00  0.00    +0.000 HD
ENDBRANCH   6  40
BRANCH  18  42
ATOM     42  O   UNL     1      14.278   9.576  25.508  0.00  0.00    +0.000 OA
ATOM     43  H   UNL     1      14.244   9.401  24.551  0.00  0.00    +0.000 HD
ENDBRANCH  18  42
TORSDOF 12
ENDMDL
MODEL 2
REMARK VINA RESULT:      -7.5     24.708     32.284
REMARK  Name = Fulvestrant.pdbqt.pdb
REMARK  12 active torsions:
REMARK  status: ('A' for Active; 'I' for Inactive)
REMARK    1  A    between atoms: C_6  and  O_40
REMARK    2  A    between atoms: C_8  and  C_19
REMARK    3  A    between atoms: C_18  and  O_42
REMARK    4  A    between atoms: C_20  and  C_21
REMARK    5  A    between atoms: C_22  and  C_23
REMARK    6  A    between atoms: C_23  and  C_24
REMARK    7  A    between atoms: C_25  and  C_26
REMARK    8  A    between atoms: C_27  and  S_28
REMARK    9  A    between atoms: S_28  and  C_30
REMARK   10  A    between atoms: C_30  and  C_31
REMARK   11  A    between atoms: C_32  and  C_33
REMARK   12  A    between atoms: C_33  and  C_36
REMARK                            x       y       z     vdW  Elec       q    Type
REMARK                         _______ _______ _______ _____ _____    ______ ____
ROOT
ATOM      1  C   UNL     1      44.618  -5.726  10.804  0.00  0.00    +0.000 C 
ATOM      2  C   UNL     1      43.114  -6.110  10.399  0.00  0.00    +0.000 C 
ATOM      3  C   UNL     1      45.829  -6.426  10.267  0.00  0.00    +0.000 A 
ATOM      4  C   UNL     1      45.759  -7.288   8.989  0.00  0.00    +0.000 A 
ATOM      5  C   UNL     1      43.216  -6.836   9.138  0.00  0.00    +0.000 C 
ATOM      6  C   UNL     1      42.431  -4.731  10.260  0.00  0.00    +0.000 C 
ATOM      7  C   UNL     1      44.644  -4.304  10.982  0.00  0.00    +0.000 C 
ATOM      8  C   UNL     1      47.159  -6.314  10.924  0.00  0.00    +0.000 A 
ATOM      9  C   UNL     1      44.444  -7.399   8.478  0.00  0.00    +0.000 C 
ATOM     10  C   UNL     1      43.317  -3.684  10.630  0.00  0.00    +0.000 C 
ATOM     11  C   UNL     1      42.479  -6.923  11.556  0.00  0.00    +0.000 C 
ATOM     12  C   UNL     1      46.941  -7.971   8.392  0.00  0.00    +0.000 A 
ATOM     13  C   UNL     1      48.147  -7.024  10.200  0.00  0.00    +0.000 A 
ATOM     14  C   UNL     1      48.195  -7.827   9.032  0.00  0.00    +0.000 A 
ATOM     15  C   UNL     1      46.865  -8.744   7.235  0.00  0.00    +0.000 A 
ATOM     16  C   UNL     1      49.345  -8.428   8.547  0.00  0.00    +0.000 A 
ATOM     17  C   UNL     1      48.015  -9.356   6.735  0.00  0.00    +0.000 A 
ATOM     18  C   UNL     1      49.237  -9.195   7.391  0.00  0.00    +0.000 A 
ENDROOT
BRANCH   8  19
ATOM     19  C   UNL     1      47.357  -5.733  12.199  0.00  0.00    +0.000 C 
ATOM     20  C   UNL     1      47.590  -5.116  13.582  0.00  0.00    +0.000 C 
BRANCH  20  21
ATOM     21  C   UNL     1      47.845  -4.518  14.968  0.00  0.00    +0.000 C 
ATOM     22  C   UNL     1      48.075  -3.936  16.366  0.00  0.00    +0.000 C 
BRANCH  22  23
ATOM     23  C   UNL     1      48.276  -3.368  17.775  0.00  0.00    +0.000 C 
BRANCH  23  24
ATOM     24  C   UNL     1      48.441  -2.798  19.187  0.00  0.00    +0.000 C 
ATOM     25  C   UNL     1      48.570  -2.226  20.602  0.00  0.00    +0.000 C 
BRANCH  25  26
ATOM     26  C   UNL     1      48.665  -1.648  22.018  0.00  0.00    +0.000 C 
ATOM     27  C   UNL     1      48.729  -1.050  23.427  0.00  0.00    +0.000 C 
BRANCH  27  28
ATOM     28  S   UNL     1      48.777  -0.341  25.037  0.00  0.00    +0.000 S 
ATOM     29  O   UNL     1      48.568   1.043  24.497  0.00  0.00    +0.000 OA
BRANCH  28  30
ATOM     30  C   UNL     1      47.052  -0.562  25.311  0.00  0.00    +0.000 C 
BRANCH  30  31
ATOM     31  C   UNL     1      45.547  -0.759  25.525  0.00  0.00    +0.000 C 
ATOM     32  C   UNL     1      44.043  -0.947  25.756  0.00  0.00    +0.000 C 
BRANCH  32  33
ATOM     33  C   UNL     1      42.607  -1.124  25.986  0.00  0.00    +0.000 C 
ATOM     34  F   UNL     1      42.124   0.030  26.527  0.00  0.00    +0.000 F 
ATOM     35  F   UNL     1      42.453  -2.079  26.945  0.00  0.00    +0.000 F 
BRANCH  33  36
ATOM     36  C   UNL     1      41.832  -1.497  24.718  0.00  0.00    +0.000 C 
ATOM     37  F   UNL     1      41.753  -2.842  24.547  0.00  0.00    +0.000 F 
ATOM     38  F   UNL     1      42.406  -0.990  23.599  0.00  0.00    +0.000 F 
ATOM     39  F   UNL     1      40.557  -1.031  24.751  0.00  0.00    +0.000 F 
ENDBRANCH  33  36
ENDBRANCH  32  33
ENDBRANCH  30  31
ENDBRANCH  28  30
ENDBRANCH  27  28
ENDBRANCH  25  26
ENDBRANCH  23  24
ENDBRANCH  22  23
ENDBRANCH  20  21
ENDBRANCH   8  19
BRANCH   6  40
ATOM     40  O   UNL     1      41.338  -4.518   9.446  0.00  0.00    +0.000 OA
ATOM     41  H   UNL     1      41.472  -4.892   8.557  0.00  0.00    +0.000 HD
ENDBRANCH   6  40
BRANCH  18  42
ATOM     42  O   UNL     1      50.335  -9.813   6.864  0.00  0.00    +0.000 OA
ATOM     43  H   UNL     1      50.961  -9.129   6.568  0.00  0.00    +0.000 HD
ENDBRANCH  18  42
TORSDOF 12
ENDMDL
MODEL 3
REMARK VINA RESULT:      -6.9     13.824     17.380
REMARK  Name = Fulvestrant.pdbqt.pdb
REMARK  12 active torsions:
REMARK  status: ('A' for Active; 'I' for Inactive)
REMARK    1  A    between atoms: C_6  and  O_40
REMARK    2  A    between atoms: C_8  and  C_19
REMARK    3  A    between atoms: C_18  and  O_42
REMARK    4  A    between atoms: C_20  and  C_21
REMARK    5  A    between atoms: C_22  and  C_23
REMARK    6  A    between atoms: C_23  and  C_24
REMARK    7  A    between atoms: C_25  and  C_26
REMARK    8  A    between atoms: C_27  and  S_28
REMARK    9  A    between atoms: S_28  and  C_30
REMARK   10  A    between atoms: C_30  and  C_31
REMARK   11  A    between atoms: C_32  and  C_33
REMARK   12  A    between atoms: C_33  and  C_36
REMARK                            x       y       z     vdW  Elec       q    Type
REMARK                         _______ _______ _______ _____ _____    ______ ____
ROOT
ATOM      1  C   UNL     1      26.725  -4.535  15.271  0.00  0.00    +0.000 C 
ATOM      2  C   UNL     1      28.137  -4.876  14.591  0.00  0.00    +0.000 C 
ATOM      3  C   UNL     1      26.238  -5.166  16.541  0.00  0.00    +0.000 A 
ATOM      4  C   UNL     1      27.208  -5.877  17.508  0.00  0.00    +0.000 A 
ATOM      5  C   UNL     1      28.958  -5.454  15.650  0.00  0.00    +0.000 C 
ATOM      6  C   UNL     1      28.633  -3.492  14.115  0.00  0.00    +0.000 C 
ATOM      7  C   UNL     1      26.480  -3.144  15.035  0.00  0.00    +0.000 C 
ATOM      8  C   UNL     1      24.807  -5.125  16.942  0.00  0.00    +0.000 A 
ATOM      9  C   UNL     1      28.531  -5.933  17.009  0.00  0.00    +0.000 C 
ATOM     10  C   UNL     1      27.652  -2.491  14.348  0.00  0.00    +0.000 C 
ATOM     11  C   UNL     1      27.894  -5.817  13.384  0.00  0.00    +0.000 C 
ATOM     12  C   UNL     1      26.783  -6.484  18.801  0.00  0.00    +0.000 A 
ATOM     13  C   UNL     1      24.612  -5.745  18.200  0.00  0.00    +0.000 A 
ATOM     14  C   UNL     1      25.417  -6.409  19.161  0.00  0.00    +0.000 A 
ATOM     15  C   UNL     1      27.670  -7.120  19.667  0.00  0.00    +0.000 A 
ATOM     16  C   UNL     1      24.933  -6.948  20.342  0.00  0.00    +0.000 A 
ATOM     17  C   UNL     1      27.198  -7.668  20.861  0.00  0.00    +0.000 A 
ATOM     18  C   UNL     1      25.843  -7.578  21.186  0.00  0.00    +0.000 A 
ENDROOT
BRANCH   8  19
ATOM     19  C   UNL     1      23.765  -4.693  16.088  0.00  0.00    +0.000 C 
ATOM     20  C   UNL     1      22.636  -4.206  15.174  0.00  0.00    +0.000 C 
BRANCH  20  21
ATOM     21  C   UNL     1      21.506  -3.694  14.276  0.00  0.00    +0.000 C 
ATOM     22  C   UNL     1      20.368  -3.161  13.401  0.00  0.00    +0.000 C 
BRANCH  22  23
ATOM     23  C   UNL     1      19.221  -2.606  12.550  0.00  0.00    +0.000 C 
BRANCH  23  24
ATOM     24  C   UNL     1      18.052  -2.076  11.713  0.00  0.00    +0.000 C 
ATOM     25  C   UNL     1      16.863  -1.548  10.905  0.00  0.00    +0.000 C 
BRANCH  25  26
ATOM     26  C   UNL     1      15.652  -1.024  10.126  0.00  0.00    +0.000 C 
ATOM     27  C   UNL     1      14.436  -0.476   9.373  0.00  0.00    +0.000 C 
BRANCH  27  28
ATOM     28  S   UNL     1      13.030   0.173   8.537  0.00  0.00    +0.000 S 
ATOM     29  O   UNL     1      12.616   0.976   9.735  0.00  0.00    +0.000 OA
BRANCH  28  30
ATOM     30  C   UNL     1      13.920   1.531   7.856  0.00  0.00    +0.000 C 
BRANCH  30  31
ATOM     31  C   UNL     1      14.701   2.720   7.285  0.00  0.00    +0.000 C 
ATOM     32  C   UNL     1      15.475   3.920   6.728  0.00  0.00    +0.000 C 
BRANCH  32  33
ATOM     33  C   UNL     1      16.209   5.074   6.201  0.00  0.00    +0.000 C 
ATOM     34  F   UNL     1      15.373   5.761   5.372  0.00  0.00    +0.000 F 
ATOM     35  F   UNL     1      17.214   4.602   5.411  0.00  0.00    +0.000 F 
BRANCH  33  36
ATOM     36  C   UNL     1      16.764   5.991   7.296  0.00  0.00    +0.000 C 
ATOM     37  F   UNL     1      16.169   7.212   7.287  0.00  0.00    +0.000 F 
ATOM     38  F   UNL     1      18.097   6.201   7.161  0.00  0.00    +0.000 F 
ATOM     39  F   UNL     1      16.572   5.470   8.535  0.00  0.00    +0.000 F 
ENDBRANCH  33  36
ENDBRANCH  32  33
ENDBRANCH  30  31
ENDBRANCH  28  30
ENDBRANCH  27  28
ENDBRANCH  25  26
ENDBRANCH  23  24
ENDBRANCH  22  23
ENDBRANCH  20  21
ENDBRANCH   8  19
BRANCH   6  40
ATOM     40  O   UNL     1      29.970  -3.191  13.960  0.00  0.00    +0.000 OA
ATOM     41  H   UNL     1      30.127  -2.640  13.173  0.00  0.00    +0.000 HD
ENDBRANCH   6  40
BRANCH  18  42
ATOM     42  O   UNL     1      25.428  -8.129  22.365  0.00  0.00    +0.000 OA
ATOM     43  H   UNL     1      25.493  -7.452  23.061  0.00  0.00    +0.000 HD
ENDBRANCH  18  42
TORSDOF 12
ENDMDL
MODEL 4
REMARK VINA RESULT:      -6.7     26.165     32.069
REMARK  Name = Fulvestrant.pdbqt.pdb
REMARK  12 active torsions:
REMARK  status: ('A' for Active; 'I' for Inactive)
REMARK    1  A    between atoms: C_6  and  O_40
REMARK    2  A    between atoms: C_8  and  C_19
REMARK    3  A    between atoms: C_18  and  O_42
REMARK    4  A    between atoms: C_20  and  C_21
REMARK    5  A    between atoms: C_22  and  C_23
REMARK    6  A    between atoms: C_23  and  C_24
REMARK    7  A    between atoms: C_25  and  C_26
REMARK    8  A    between atoms: C_27  and  S_28
REMARK    9  A    between atoms: S_28  and  C_30
REMARK   10  A    between atoms: C_30  and  C_31
REMARK   11  A    between atoms: C_32  and  C_33
REMARK   12  A    between atoms: C_33  and  C_36
REMARK                            x       y       z     vdW  Elec       q    Type
REMARK                         _______ _______ _______ _____ _____    ______ ____
ROOT
ATOM      1  C   UNL     1      23.526  35.228  22.437  0.00  0.00    +0.000 C 
ATOM      2  C   UNL     1      22.406  36.206  21.833  0.00  0.00    +0.000 C 
ATOM      3  C   UNL     1      24.723  34.758  21.667  0.00  0.00    +0.000 A 
ATOM      4  C   UNL     1      25.194  35.485  20.391  0.00  0.00    +0.000 A 
ATOM      5  C   UNL     1      23.034  36.875  20.699  0.00  0.00    +0.000 C 
ATOM      6  C   UNL     1      22.102  37.153  23.015  0.00  0.00    +0.000 C 
ATOM      7  C   UNL     1      23.664  35.569  23.821  0.00  0.00    +0.000 C 
ATOM      8  C   UNL     1      25.526  33.584  22.101  0.00  0.00    +0.000 A 
ATOM      9  C   UNL     1      24.329  36.539  20.013  0.00  0.00    +0.000 C 
ATOM     10  C   UNL     1      22.815  36.760  24.179  0.00  0.00    +0.000 C 
ATOM     11  C   UNL     1      21.156  35.365  21.468  0.00  0.00    +0.000 C 
ATOM     12  C   UNL     1      26.400  35.084  19.613  0.00  0.00    +0.000 A 
ATOM     13  C   UNL     1      26.629  33.374  21.239  0.00  0.00    +0.000 A 
ATOM     14  C   UNL     1      27.152  33.974  20.065  0.00  0.00    +0.000 A 
ATOM     15  C   UNL     1      26.816  35.751  18.463  0.00  0.00    +0.000 A 
ATOM     16  C   UNL     1      28.285  33.530  19.402  0.00  0.00    +0.000 A 
ATOM     17  C   UNL     1      27.957  35.316  17.785  0.00  0.00    +0.000 A 
ATOM     18  C   UNL     1      28.676  34.216  18.257  0.00  0.00    +0.000 A 
ENDROOT
BRANCH   8  19
ATOM     19  C   UNL     1      25.124  32.693  23.125  0.00  0.00    +0.000 C 
ATOM     20  C   UNL     1      24.679  31.717  24.219  0.00  0.00    +0.000 C 
BRANCH  20  21
ATOM     21  C   UNL     1      24.219  30.727  25.292  0.00  0.00    +0.000 C 
ATOM     22  C   UNL     1      23.729  29.736  26.352  0.00  0.00    +0.000 C 
BRANCH  22  23
ATOM     23  C   UNL     1      23.207  28.749  27.401  0.00  0.00    +0.000 C 
BRANCH  23  24
ATOM     24  C   UNL     1      22.653  27.761  28.433  0.00  0.00    +0.000 C 
ATOM     25  C   UNL     1      22.133  26.764  29.473  0.00  0.00    +0.000 C 
BRANCH  25  26
ATOM     26  C   UNL     1      21.646  25.756  30.519  0.00  0.00    +0.000 C 
ATOM     27  C   UNL     1      21.139  24.732  31.539  0.00  0.00    +0.000 C 
BRANCH  27  28
ATOM     28  S   UNL     1      20.536  23.541  32.687  0.00  0.00    +0.000 S 
ATOM     29  O   UNL     1      19.437  23.118  31.757  0.00  0.00    +0.000 OA
BRANCH  28  30
ATOM     30  C   UNL     1      21.605  22.269  32.104  0.00  0.00    +0.000 C 
BRANCH  30  31
ATOM     31  C   UNL     1      22.553  21.171  31.611  0.00  0.00    +0.000 C 
ATOM     32  C   UNL     1      23.500  20.079  31.101  0.00  0.00    +0.000 C 
BRANCH  32  33
ATOM     33  C   UNL     1      24.404  19.038  30.603  0.00  0.00    +0.000 C 
ATOM     34  F   UNL     1      23.849  18.503  29.479  0.00  0.00    +0.000 F 
ATOM     35  F   UNL     1      24.426  18.033  31.523  0.00  0.00    +0.000 F 
BRANCH  33  36
ATOM     36  C   UNL     1      25.820  19.548  30.322  0.00  0.00    +0.000 C 
ATOM     37  F   UNL     1      25.891  20.235  29.152  0.00  0.00    +0.000 F 
ATOM     38  F   UNL     1      26.722  18.539  30.241  0.00  0.00    +0.000 F 
ATOM     39  F   UNL     1      26.257  20.388  31.296  0.00  0.00    +0.000 F 
ENDBRANCH  33  36
ENDBRANCH  32  33
ENDBRANCH  30  31
ENDBRANCH  28  30
ENDBRANCH  27  28
ENDBRANCH  25  26
ENDBRANCH  23  24
ENDBRANCH  22  23
ENDBRANCH  20  21
ENDBRANCH   8  19
BRANCH   6  40
ATOM     40  O   UNL     1      21.628  38.436  22.840  0.00  0.00    +0.000 OA
ATOM     41  H   UNL     1      22.196  39.094  23.277  0.00  0.00    +0.000 HD
ENDBRANCH   6  40
BRANCH  18  42
ATOM     42  O   UNL     1      29.784  33.827  17.559  0.00  0.00    +0.000 OA
ATOM     43  H   UNL     1      30.493  33.627  18.196  0.00  0.00    +0.000 HD
ENDBRANCH  18  42
TORSDOF 12
ENDMDL
MODEL 5
REMARK VINA RESULT:      -6.6      7.313     17.411
REMARK  Name = Fulvestrant.pdbqt.pdb
REMARK  12 active torsions:
REMARK  status: ('A' for Active; 'I' for Inactive)
REMARK    1  A    between atoms: C_6  and  O_40
REMARK    2  A    between atoms: C_8  and  C_19
REMARK    3  A    between atoms: C_18  and  O_42
REMARK    4  A    between atoms: C_20  and  C_21
REMARK    5  A    between atoms: C_22  and  C_23
REMARK    6  A    between atoms: C_23  and  C_24
REMARK    7  A    between atoms: C_25  and  C_26
REMARK    8  A    between atoms: C_27  and  S_28
REMARK    9  A    between atoms: S_28  and  C_30
REMARK   10  A    between atoms: C_30  and  C_31
REMARK   11  A    between atoms: C_32  and  C_33
REMARK   12  A    between atoms: C_33  and  C_36
REMARK                            x       y       z     vdW  Elec       q    Type
REMARK                         _______ _______ _______ _____ _____    ______ ____
ROOT
ATOM      1  C   UNL     1      26.007  -6.566  18.004  0.00  0.00    +0.000 C 
ATOM      2  C   UNL     1      27.252  -7.481  18.434  0.00  0.00    +0.000 C 
ATOM      3  C   UNL     1      26.067  -5.535  16.918  0.00  0.00    +0.000 A 
ATOM      4  C   UNL     1      27.189  -5.548  15.859  0.00  0.00    +0.000 A 
ATOM      5  C   UNL     1      28.171  -7.459  17.300  0.00  0.00    +0.000 C 
ATOM      6  C   UNL     1      26.600  -8.862  18.670  0.00  0.00    +0.000 C 
ATOM      7  C   UNL     1      24.834  -7.376  18.146  0.00  0.00    +0.000 C 
ATOM      8  C   UNL     1      25.045  -4.462  16.794  0.00  0.00    +0.000 A 
ATOM      9  C   UNL     1      28.154  -6.553  16.100  0.00  0.00    +0.000 C 
ATOM     10  C   UNL     1      25.188  -8.789  18.529  0.00  0.00    +0.000 C 
ATOM     11  C   UNL     1      27.848  -6.924  19.751  0.00  0.00    +0.000 C 
ATOM     12  C   UNL     1      27.271  -4.572  14.736  0.00  0.00    +0.000 A 
ATOM     13  C   UNL     1      25.294  -3.648  15.663  0.00  0.00    +0.000 A 
ATOM     14  C   UNL     1      26.271  -3.576  14.637  0.00  0.00    +0.000 A 
ATOM     15  C   UNL     1      28.288  -4.596  13.784  0.00  0.00    +0.000 A 
ATOM     16  C   UNL     1      26.271  -2.627  13.627  0.00  0.00    +0.000 A 
ATOM     17  C   UNL     1      28.301  -3.647  12.761  0.00  0.00    +0.000 A 
ATOM     18  C   UNL     1      27.300  -2.677  12.692  0.00  0.00    +0.000 A 
ENDROOT
BRANCH   8  19
ATOM     19  C   UNL     1      24.071  -4.187  17.784  0.00  0.00    +0.000 C 
ATOM     20  C   UNL     1      23.013  -3.871  18.846  0.00  0.00    +0.000 C 
BRANCH  20  21
ATOM     21  C   UNL     1      21.951  -3.529  19.894  0.00  0.00    +0.000 C 
ATOM     22  C   UNL     1      20.902  -3.158  20.947  0.00  0.00    +0.000 C 
BRANCH  22  23
ATOM     23  C   UNL     1      19.869  -2.757  22.004  0.00  0.00    +0.000 C 
BRANCH  23  24
ATOM     24  C   UNL     1      18.812  -2.380  23.048  0.00  0.00    +0.000 C 
ATOM     25  C   UNL     1      17.783  -1.998  24.115  0.00  0.00    +0.000 C 
BRANCH  25  26
ATOM     26  C   UNL     1      16.778  -1.613  25.207  0.00  0.00    +0.000 C 
ATOM     27  C   UNL     1      15.796  -1.199  26.308  0.00  0.00    +0.000 C 
BRANCH  27  28
ATOM     28  S   UNL     1      14.690  -0.699  27.582  0.00  0.00    +0.000 S 
ATOM     29  O   UNL     1      15.800  -0.599  28.586  0.00  0.00    +0.000 OA
BRANCH  28  30
ATOM     30  C   UNL     1      14.817   1.011  27.178  0.00  0.00    +0.000 C 
BRANCH  30  31
ATOM     31  C   UNL     1      14.925   2.504  26.851  0.00  0.00    +0.000 C 
ATOM     32  C   UNL     1      15.028   4.001  26.541  0.00  0.00    +0.000 C 
BRANCH  32  33
ATOM     33  C   UNL     1      15.124   5.435  26.254  0.00  0.00    +0.000 C 
ATOM     34  F   UNL     1      15.196   5.588  24.902  0.00  0.00    +0.000 F 
ATOM     35  F   UNL     1      16.316   5.879  26.744  0.00  0.00    +0.000 F 
BRANCH  33  36
ATOM     36  C   UNL     1      13.962   6.248  26.833  0.00  0.00    +0.000 C 
ATOM     37  F   UNL     1      12.803   5.540  26.848  0.00  0.00    +0.000 F 
ATOM     38  F   UNL     1      13.724   7.379  26.123  0.00  0.00    +0.000 F 
ATOM     39  F   UNL     1      14.204   6.632  28.113  0.00  0.00    +0.000 F 
ENDBRANCH  33  36
ENDBRANCH  32  33
ENDBRANCH  30  31
ENDBRANCH  28  30
ENDBRANCH  27  28
ENDBRANCH  25  26
ENDBRANCH  23  24
ENDBRANCH  22  23
ENDBRANCH  20  21
ENDBRANCH   8  19
BRANCH   6  40
ATOM     40  O   UNL     1      27.293 -10.047  18.537  0.00  0.00    +0.000 OA
ATOM     41  H   UNL     1      26.719 -10.768  18.222  0.00  0.00    +0.000 HD
ENDBRANCH   6  40
BRANCH  18  42
ATOM     42  O   UNL     1      27.355  -1.768  11.673  0.00  0.00    +0.000 OA
ATOM     43  H   UNL     1      27.174  -2.233  10.837  0.00  0.00    +0.000 HD
ENDBRANCH  18  42
TORSDOF 12
ENDMDL
MODEL 6
REMARK VINA RESULT:      -6.5     13.219     17.342
REMARK  Name = Fulvestrant.pdbqt.pdb
REMARK  12 active torsions:
REMARK  status: ('A' for Active; 'I' for Inactive)
REMARK    1  A    between atoms: C_6  and  O_40
REMARK    2  A    between atoms: C_8  and  C_19
REMARK    3  A    between atoms: C_18  and  O_42
REMARK    4  A    between atoms: C_20  and  C_21
REMARK    5  A    between atoms: C_22  and  C_23
REMARK    6  A    between atoms: C_23  and  C_24
REMARK    7  A    between atoms: C_25  and  C_26
REMARK    8  A    between atoms: C_27  and  S_28
REMARK    9  A    between atoms: S_28  and  C_30
REMARK   10  A    between atoms: C_30  and  C_31
REMARK   11  A    between atoms: C_32  and  C_33
REMARK   12  A    between atoms: C_33  and  C_36
REMARK                            x       y       z     vdW  Elec       q    Type
REMARK                         _______ _______ _______ _____ _____    ______ ____
ROOT
ATOM      1  C   UNL     1      19.406  16.845  33.894  0.00  0.00    +0.000 C 
ATOM      2  C   UNL     1      17.911  17.427  33.898  0.00  0.00    +0.000 C 
ATOM      3  C   UNL     1      20.455  17.251  32.903  0.00  0.00    +0.000 A 
ATOM      4  C   UNL     1      20.318  18.544  32.072  0.00  0.00    +0.000 A 
ATOM      5  C   UNL     1      17.972  18.681  33.154  0.00  0.00    +0.000 C 
ATOM      6  C   UNL     1      17.620  17.619  35.403  0.00  0.00    +0.000 C 
ATOM      7  C   UNL     1      19.770  16.639  35.264  0.00  0.00    +0.000 C 
ATOM      8  C   UNL     1      21.684  16.444  32.683  0.00  0.00    +0.000 A 
ATOM      9  C   UNL     1      19.086  19.204  32.291  0.00  0.00    +0.000 C 
ATOM     10  C   UNL     1      18.693  17.131  36.196  0.00  0.00    +0.000 C 
ATOM     11  C   UNL     1      16.962  16.365  33.286  0.00  0.00    +0.000 C 
ATOM     12  C   UNL     1      21.349  19.013  31.105  0.00  0.00    +0.000 A 
ATOM     13  C   UNL     1      22.537  17.062  31.738  0.00  0.00    +0.000 A 
ATOM     14  C   UNL     1      22.516  18.230  30.935  0.00  0.00    +0.000 A 
ATOM     15  C   UNL     1      21.215  20.184  30.362  0.00  0.00    +0.000 A 
ATOM     16  C   UNL     1      23.525  18.590  30.056  0.00  0.00    +0.000 A 
ATOM     17  C   UNL     1      22.223  20.560  29.473  0.00  0.00    +0.000 A 
ATOM     18  C   UNL     1      23.361  19.765  29.328  0.00  0.00    +0.000 A 
ENDROOT
BRANCH   8  19
ATOM     19  C   UNL     1      21.874  15.144  33.210  0.00  0.00    +0.000 C 
ATOM     20  C   UNL     1      22.097  13.744  33.792  0.00  0.00    +0.000 C 
BRANCH  20  21
ATOM     21  C   UNL     1      22.343  12.355  34.386  0.00  0.00    +0.000 C 
ATOM     22  C   UNL     1      22.567  10.953  34.962  0.00  0.00    +0.000 C 
BRANCH  22  23
ATOM     23  C   UNL     1      22.764   9.540  35.520  0.00  0.00    +0.000 C 
BRANCH  23  24
ATOM     24  C   UNL     1      22.940   8.114  36.052  0.00  0.00    +0.000 C 
ATOM     25  C   UNL     1      23.080   6.683  36.579  0.00  0.00    +0.000 C 
BRANCH  25  26
ATOM     26  C   UNL     1      23.186   5.247  37.104  0.00  0.00    +0.000 C 
ATOM     27  C   UNL     1      23.325   3.810  37.614  0.00  0.00    +0.000 C 
BRANCH  27  28
ATOM     28  S   UNL     1      23.516   2.155  38.183  0.00  0.00    +0.000 S 
ATOM     29  O   UNL     1      22.034   1.977  38.337  0.00  0.00    +0.000 OA
BRANCH  28  30
ATOM     30  C   UNL     1      23.492   1.473  36.559  0.00  0.00    +0.000 C 
BRANCH  30  31
ATOM     31  C   UNL     1      23.475   0.902  35.137  0.00  0.00    +0.000 C 
ATOM     32  C   UNL     1      23.473   0.319  33.720  0.00  0.00    +0.000 C 
BRANCH  32  33
ATOM     33  C   UNL     1      23.479  -0.244  32.366  0.00  0.00    +0.000 C 
ATOM     34  F   UNL     1      23.433   0.792  31.481  0.00  0.00    +0.000 F 
ATOM     35  F   UNL     1      22.315  -0.932  32.197  0.00  0.00    +0.000 F 
BRANCH  33  36
ATOM     36  C   UNL     1      24.687  -1.143  32.089  0.00  0.00    +0.000 C 
ATOM     37  F   UNL     1      24.587  -1.776  30.892  0.00  0.00    +0.000 F 
ATOM     38  F   UNL     1      24.836  -2.106  33.032  0.00  0.00    +0.000 F 
ATOM     39  F   UNL     1      25.847  -0.436  32.063  0.00  0.00    +0.000 F 
ENDBRANCH  33  36
ENDBRANCH  32  33
ENDBRANCH  30  31
ENDBRANCH  28  30
ENDBRANCH  27  28
ENDBRANCH  25  26
ENDBRANCH  23  24
ENDBRANCH  22  23
ENDBRANCH  20  21
ENDBRANCH   8  19
BRANCH   6  40
ATOM     40  O   UNL     1      16.718  18.549  35.876  0.00  0.00    +0.000 OA
ATOM     41  H   UNL     1      16.858  18.739  36.821  0.00  0.00    +0.000 HD
ENDBRANCH   6  40
BRANCH  18  42
ATOM     42  O   UNL     1      24.321  20.172  28.445  0.00  0.00    +0.000 OA
ATOM     43  H   UNL     1      23.923  20.817  27.835  0.00  0.00    +0.000 HD
ENDBRANCH  18  42
TORSDOF 12
ENDMDL
MODEL 7
REMARK VINA RESULT:      -6.1     26.137     30.109
REMARK  Name = Fulvestrant.pdbqt.pdb
REMARK  12 active torsions:
REMARK  status: ('A' for Active; 'I' for Inactive)
REMARK    1  A    between atoms: C_6  and  O_40
REMARK    2  A    between atoms: C_8  and  C_19
REMARK    3  A    between atoms: C_18  and  O_42
REMARK    4  A    between atoms: C_20  and  C_21
REMARK    5  A    between atoms: C_22  and  C_23
REMARK    6  A    between atoms: C_23  and  C_24
REMARK    7  A    between atoms: C_25  and  C_26
REMARK    8  A    between atoms: C_27  and  S_28
REMARK    9  A    between atoms: S_28  and  C_30
REMARK   10  A    between atoms: C_30  and  C_31
REMARK   11  A    between atoms: C_32  and  C_33
REMARK   12  A    between atoms: C_33  and  C_36
REMARK                            x       y       z     vdW  Elec       q    Type
REMARK                         _______ _______ _______ _____ _____    ______ ____
ROOT
ATOM      1  C   UNL     1      22.423  22.206  -0.137  0.00  0.00    +0.000 C 
ATOM      2  C   UNL     1      23.379  21.846  -1.375  0.00  0.00    +0.000 C 
ATOM      3  C   UNL     1      22.817  23.127   0.977  0.00  0.00    +0.000 A 
ATOM      4  C   UNL     1      23.994  24.114   0.827  0.00  0.00    +0.000 A 
ATOM      5  C   UNL     1      24.373  22.913  -1.433  0.00  0.00    +0.000 C 
ATOM      6  C   UNL     1      22.405  21.848  -2.574  0.00  0.00    +0.000 C 
ATOM      7  C   UNL     1      21.086  22.248  -0.650  0.00  0.00    +0.000 C 
ATOM      8  C   UNL     1      22.088  23.151   2.273  0.00  0.00    +0.000 A 
ATOM      9  C   UNL     1      24.673  23.968  -0.405  0.00  0.00    +0.000 C 
ATOM     10  C   UNL     1      21.066  22.053  -2.144  0.00  0.00    +0.000 C 
ATOM     11  C   UNL     1      23.970  20.431  -1.151  0.00  0.00    +0.000 C 
ATOM     12  C   UNL     1      24.399  25.079   1.888  0.00  0.00    +0.000 A 
ATOM     13  C   UNL     1      22.619  24.137   3.139  0.00  0.00    +0.000 A 
ATOM     14  C   UNL     1      23.671  25.087   3.102  0.00  0.00    +0.000 A 
ATOM     15  C   UNL     1      25.462  25.967   1.739  0.00  0.00    +0.000 A 
ATOM     16  C   UNL     1      23.981  25.948   4.143  0.00  0.00    +0.000 A 
ATOM     17  C   UNL     1      25.786  26.841   2.778  0.00  0.00    +0.000 A 
ATOM     18  C   UNL     1      25.048  26.823   3.963  0.00  0.00    +0.000 A 
ENDROOT
BRANCH   8  19
ATOM     19  C   UNL     1      21.123  22.186   2.648  0.00  0.00    +0.000 C 
ATOM     20  C   UNL     1      20.063  21.153   3.043  0.00  0.00    +0.000 C 
BRANCH  20  21
ATOM     21  C   UNL     1      18.983  20.137   3.425  0.00  0.00    +0.000 C 
ATOM     22  C   UNL     1      17.880  19.141   3.797  0.00  0.00    +0.000 C 
BRANCH  22  23
ATOM     23  C   UNL     1      16.754  18.169   4.160  0.00  0.00    +0.000 C 
BRANCH  23  24
ATOM     24  C   UNL     1      15.625  17.187   4.489  0.00  0.00    +0.000 C 
ATOM     25  C   UNL     1      14.520  16.182   4.831  0.00  0.00    +0.000 C 
BRANCH  25  26
ATOM     26  C   UNL     1      13.440  15.153   5.182  0.00  0.00    +0.000 C 
ATOM     27  C   UNL     1      12.385  14.105   5.551  0.00  0.00    +0.000 C 
BRANCH  27  28
ATOM     28  S   UNL     1      11.199  12.881   5.990  0.00  0.00    +0.000 S 
ATOM     29  O   UNL     1      11.995  11.792   5.333  0.00  0.00    +0.000 OA
BRANCH  28  30
ATOM     30  C   UNL     1      11.938  12.563   7.556  0.00  0.00    +0.000 C 
BRANCH  30  31
ATOM     31  C   UNL     1      12.568  12.265   8.921  0.00  0.00    +0.000 C 
ATOM     32  C   UNL     1      13.202  11.950  10.280  0.00  0.00    +0.000 C 
BRANCH  32  33
ATOM     33  C   UNL     1      13.809  11.639  11.578  0.00  0.00    +0.000 C 
ATOM     34  F   UNL     1      13.481  12.638  12.444  0.00  0.00    +0.000 F 
ATOM     35  F   UNL     1      15.162  11.701  11.430  0.00  0.00    +0.000 F 
BRANCH  33  36
ATOM     36  C   UNL     1      13.385  10.275  12.133  0.00  0.00    +0.000 C 
ATOM     37  F   UNL     1      14.237   9.830  13.093  0.00  0.00    +0.000 F 
ATOM     38  F   UNL     1      13.342   9.321  11.171  0.00  0.00    +0.000 F 
ATOM     39  F   UNL     1      12.151  10.322  12.697  0.00  0.00    +0.000 F 
ENDBRANCH  33  36
ENDBRANCH  32  33
ENDBRANCH  30  31
ENDBRANCH  28  30
ENDBRANCH  27  28
ENDBRANCH  25  26
ENDBRANCH  23  24
ENDBRANCH  22  23
ENDBRANCH  20  21
ENDBRANCH   8  19
BRANCH   6  40
ATOM     40  O   UNL     1      22.811  22.112  -3.865  0.00  0.00    +0.000 OA
ATOM     41  H   UNL     1      23.178  21.320  -4.298  0.00  0.00    +0.000 HD
ENDBRANCH   6  40
BRANCH  18  42
ATOM     42  O   UNL     1      25.402  27.696   4.953  0.00  0.00    +0.000 OA
ATOM     43  H   UNL     1      25.877  27.201   5.644  0.00  0.00    +0.000 HD
ENDBRANCH  18  42
TORSDOF 12
ENDMDL
MODEL 8
REMARK VINA RESULT:      -6.0     15.162     19.983
REMARK  Name = Fulvestrant.pdbqt.pdb
REMARK  12 active torsions:
REMARK  status: ('A' for Active; 'I' for Inactive)
REMARK    1  A    between atoms: C_6  and  O_40
REMARK    2  A    between atoms: C_8  and  C_19
REMARK    3  A    between atoms: C_18  and  O_42
REMARK    4  A    between atoms: C_20  and  C_21
REMARK    5  A    between atoms: C_22  and  C_23
REMARK    6  A    between atoms: C_23  and  C_24
REMARK    7  A    between atoms: C_25  and  C_26
REMARK    8  A    between atoms: C_27  and  S_28
REMARK    9  A    between atoms: S_28  and  C_30
REMARK   10  A    between atoms: C_30  and  C_31
REMARK   11  A    between atoms: C_32  and  C_33
REMARK   12  A    between atoms: C_33  and  C_36
REMARK                            x       y       z     vdW  Elec       q    Type
REMARK                         _______ _______ _______ _____ _____    ______ ____
ROOT
ATOM      1  C   UNL     1      23.382   1.601  37.801  0.00  0.00    +0.000 C 
ATOM      2  C   UNL     1      23.848   0.774  39.094  0.00  0.00    +0.000 C 
ATOM      3  C   UNL     1      23.534   1.103  36.395  0.00  0.00    +0.000 A 
ATOM      4  C   UNL     1      23.767  -0.392  36.093  0.00  0.00    +0.000 A 
ATOM      5  C   UNL     1      23.935  -0.617  38.665  0.00  0.00    +0.000 C 
ATOM      6  C   UNL     1      22.706   1.037  40.101  0.00  0.00    +0.000 C 
ATOM      7  C   UNL     1      22.196   2.314  38.174  0.00  0.00    +0.000 C 
ATOM      8  C   UNL     1      23.450   2.015  35.224  0.00  0.00    +0.000 A 
ATOM      9  C   UNL     1      23.909  -1.169  37.267  0.00  0.00    +0.000 C 
ATOM     10  C   UNL     1      21.761   1.957  39.571  0.00  0.00    +0.000 C 
ATOM     11  C   UNL     1      25.182   1.370  39.611  0.00  0.00    +0.000 C 
ATOM     12  C   UNL     1      23.884  -0.944  34.714  0.00  0.00    +0.000 A 
ATOM     13  C   UNL     1      23.575   1.298  34.009  0.00  0.00    +0.000 A 
ATOM     14  C   UNL     1      23.780  -0.051  33.622  0.00  0.00    +0.000 A 
ATOM     15  C   UNL     1      24.092  -2.297  34.455  0.00  0.00    +0.000 A 
ATOM     16  C   UNL     1      23.878  -0.477  32.307  0.00  0.00    +0.000 A 
ATOM     17  C   UNL     1      24.193  -2.742  33.135  0.00  0.00    +0.000 A 
ATOM     18  C   UNL     1      24.087  -1.834  32.080  0.00  0.00    +0.000 A 
ENDROOT
BRANCH   8  19
ATOM     19  C   UNL     1      23.438   3.427  35.327  0.00  0.00    +0.000 C 
ATOM     20  C   UNL     1      23.403   4.954  35.443  0.00  0.00    +0.000 C 
BRANCH  20  21
ATOM     21  C   UNL     1      23.339   6.479  35.562  0.00  0.00    +0.000 C 
ATOM     22  C   UNL     1      23.281   8.007  35.649  0.00  0.00    +0.000 C 
BRANCH  22  23
ATOM     23  C   UNL     1      23.232   9.537  35.703  0.00  0.00    +0.000 C 
BRANCH  23  24
ATOM     24  C   UNL     1      23.188  11.066  35.793  0.00  0.00    +0.000 C 
ATOM     25  C   UNL     1      23.167  12.593  35.910  0.00  0.00    +0.000 C 
BRANCH  25  26
ATOM     26  C   UNL     1      23.165  14.118  36.057  0.00  0.00    +0.000 C 
ATOM     27  C   UNL     1      23.200  15.642  36.210  0.00  0.00    +0.000 C 
BRANCH  27  28
ATOM     28  S   UNL     1      23.273  17.391  36.394  0.00  0.00    +0.000 S 
ATOM     29  O   UNL     1      24.733  17.351  36.739  0.00  0.00    +0.000 OA
BRANCH  28  30
ATOM     30  C   UNL     1      23.619  17.671  34.690  0.00  0.00    +0.000 C 
BRANCH  30  31
ATOM     31  C   UNL     1      23.902  17.898  33.201  0.00  0.00    +0.000 C 
ATOM     32  C   UNL     1      24.198  18.112  31.713  0.00  0.00    +0.000 C 
BRANCH  32  33
ATOM     33  C   UNL     1      24.490  18.310  30.290  0.00  0.00    +0.000 C 
ATOM     34  F   UNL     1      24.139  17.172  29.628  0.00  0.00    +0.000 F 
ATOM     35  F   UNL     1      25.841  18.420  30.154  0.00  0.00    +0.000 F 
BRANCH  33  36
ATOM     36  C   UNL     1      23.781  19.529  29.691  0.00  0.00    +0.000 C 
ATOM     37  F   UNL     1      23.678  20.547  30.584  0.00  0.00    +0.000 F 
ATOM     38  F   UNL     1      22.523  19.238  29.277  0.00  0.00    +0.000 F 
ATOM     39  F   UNL     1      24.446  20.019  28.613  0.00  0.00    +0.000 F 
ENDBRANCH  33  36
ENDBRANCH  32  33
ENDBRANCH  30  31
ENDBRANCH  28  30
ENDBRANCH  27  28
ENDBRANCH  25  26
ENDBRANCH  23  24
ENDBRANCH  22  23
ENDBRANCH  20  21
ENDBRANCH   8  19
BRANCH   6  40
ATOM     40  O   UNL     1      22.388   0.159  41.115  0.00  0.00    +0.000 OA
ATOM     41  H   UNL     1      22.897  -0.669  41.049  0.00  0.00    +0.000 HD
ENDBRANCH   6  40
BRANCH  18  42
ATOM     42  O   UNL     1      24.193  -2.315  30.806  0.00  0.00    +0.000 OA
ATOM     43  H   UNL     1      24.651  -1.650  30.263  0.00  0.00    +0.000 HD
ENDBRANCH  18  42
TORSDOF 12
ENDMDL
MODEL 9
REMARK VINA RESULT:      -6.0     19.673     22.831
REMARK  Name = Fulvestrant.pdbqt.pdb
REMARK  12 active torsions:
REMARK  status: ('A' for Active; 'I' for Inactive)
REMARK    1  A    between atoms: C_6  and  O_40
REMARK    2  A    between atoms: C_8  and  C_19
REMARK    3  A    between atoms: C_18  and  O_42
REMARK    4  A    between atoms: C_20  and  C_21
REMARK    5  A    between atoms: C_22  and  C_23
REMARK    6  A    between atoms: C_23  and  C_24
REMARK    7  A    between atoms: C_25  and  C_26
REMARK    8  A    between atoms: C_27  and  S_28
REMARK    9  A    between atoms: S_28  and  C_30
REMARK   10  A    between atoms: C_30  and  C_31
REMARK   11  A    between atoms: C_32  and  C_33
REMARK   12  A    between atoms: C_33  and  C_36
REMARK                            x       y       z     vdW  Elec       q    Type
REMARK                         _______ _______ _______ _____ _____    ______ ____
ROOT
ATOM      1  C   UNL     1      23.143  18.293  31.853  0.00  0.00    +0.000 C 
ATOM      2  C   UNL     1      22.355  17.462  30.728  0.00  0.00    +0.000 C 
ATOM      3  C   UNL     1      23.175  19.790  31.912  0.00  0.00    +0.000 A 
ATOM      4  C   UNL     1      22.137  20.647  31.157  0.00  0.00    +0.000 A 
ATOM      5  C   UNL     1      21.363  18.380  30.179  0.00  0.00    +0.000 C 
ATOM      6  C   UNL     1      21.737  16.296  31.531  0.00  0.00    +0.000 C 
ATOM      7  C   UNL     1      23.039  17.539  33.067  0.00  0.00    +0.000 C 
ATOM      8  C   UNL     1      24.191  20.524  32.711  0.00  0.00    +0.000 A 
ATOM      9  C   UNL     1      21.260  19.868  30.366  0.00  0.00    +0.000 C 
ATOM     10  C   UNL     1      22.161  16.328  32.886  0.00  0.00    +0.000 C 
ATOM     11  C   UNL     1      23.380  16.933  29.693  0.00  0.00    +0.000 C 
ATOM     12  C   UNL     1      22.100  22.135  31.216  0.00  0.00    +0.000 A 
ATOM     13  C   UNL     1      23.980  21.922  32.645  0.00  0.00    +0.000 A 
ATOM     14  C   UNL     1      23.071  22.801  32.002  0.00  0.00    +0.000 A 
ATOM     15  C   UNL     1      21.156  22.897  30.531  0.00  0.00    +0.000 A 
ATOM     16  C   UNL     1      23.112  24.181  32.112  0.00  0.00    +0.000 A 
ATOM     17  C   UNL     1      21.185  24.289  30.632  0.00  0.00    +0.000 A 
ATOM     18  C   UNL     1      22.156  24.915  31.416  0.00  0.00    +0.000 A 
ENDROOT
BRANCH   8  19
ATOM     19  C   UNL     1      25.323  19.908  33.298  0.00  0.00    +0.000 C 
ATOM     20  C   UNL     1      26.560  19.253  33.919  0.00  0.00    +0.000 C 
BRANCH  20  21
ATOM     21  C   UNL     1      27.814  18.612  34.521  0.00  0.00    +0.000 C 
ATOM     22  C   UNL     1      29.050  17.957  35.145  0.00  0.00    +0.000 C 
BRANCH  22  23
ATOM     23  C   UNL     1      30.266  17.288  35.793  0.00  0.00    +0.000 C 
BRANCH  23  24
ATOM     24  C   UNL     1      31.472  16.587  36.427  0.00  0.00    +0.000 C 
ATOM     25  C   UNL     1      32.662  15.856  37.057  0.00  0.00    +0.000 C 
BRANCH  25  26
ATOM     26  C   UNL     1      33.833  15.094  37.686  0.00  0.00    +0.000 C 
ATOM     27  C   UNL     1      35.019  14.328  38.280  0.00  0.00    +0.000 C 
BRANCH  27  28
ATOM     28  S   UNL     1      36.393  13.441  38.931  0.00  0.00    +0.000 S 
ATOM     29  O   UNL     1      35.516  12.322  39.412  0.00  0.00    +0.000 OA
BRANCH  28  30
ATOM     30  C   UNL     1      36.724  12.614  37.413  0.00  0.00    +0.000 C 
BRANCH  30  31
ATOM     31  C   UNL     1      37.035  11.890  36.098  0.00  0.00    +0.000 C 
ATOM     32  C   UNL     1      37.330  11.172  34.776  0.00  0.00    +0.000 C 
BRANCH  32  33
ATOM     33  C   UNL     1      37.602  10.488  33.509  0.00  0.00    +0.000 C 
ATOM     34  F   UNL     1      37.100   9.224  33.598  0.00  0.00    +0.000 F 
ATOM     35  F   UNL     1      38.953  10.347  33.395  0.00  0.00    +0.000 F 
BRANCH  33  36
ATOM     36  C   UNL     1      37.028  11.218  32.291  0.00  0.00    +0.000 C 
ATOM     37  F   UNL     1      37.807  11.061  31.190  0.00  0.00    +0.000 F 
ATOM     38  F   UNL     1      36.907  12.552  32.502  0.00  0.00    +0.000 F 
ATOM     39  F   UNL     1      35.792  10.759  31.965  0.00  0.00    +0.000 F 
ENDBRANCH  33  36
ENDBRANCH  32  33
ENDBRANCH  30  31
ENDBRANCH  28  30
ENDBRANCH  27  28
ENDBRANCH  25  26
ENDBRANCH  23  24
ENDBRANCH  22  23
ENDBRANCH  20  21
ENDBRANCH   8  19
BRANCH   6  40
ATOM     40  O   UNL     1      20.588  15.644  31.134  0.00  0.00    +0.000 OA
ATOM     41  H   UNL     1      20.640  15.351  30.207  0.00  0.00    +0.000 HD
ENDBRANCH   6  40
BRANCH  18  42
ATOM     42  O   UNL     1      22.146  26.279  31.484  0.00  0.00    +0.000 OA
ATOM     43  H   UNL     1      21.258  26.566  31.764  0.00  0.00    +0.000 HD
ENDBRANCH  18  42
TORSDOF 12
ENDMDL
