MODEL 1
REMARK VINA RESULT:      -6.2      0.000      0.000
REMARK  Name = Gefitinib.pdbqt.pdb
REMARK  6 active torsions:
REMARK  status: ('A' for Active; 'I' for Inactive)
REMARK    1  A    between atoms: C_3  and  O_11
REMARK    2  A    between atoms: C_6  and  O_21
REMARK    3  A    between atoms: O_11  and  C_12
REMARK    4  A    between atoms: C_13  and  C_14
REMARK    5  A    between atoms: C_14  and  N_15
REMARK    6  A    between atoms: N_23  and  C_25
REMARK                            x       y       z     vdW  Elec       q    Type
REMARK                         _______ _______ _______ _____ _____    ______ ____
ROOT
ATOM      1  N   UNL     1      24.751  -3.862  16.934  0.00  0.00    +0.000 NA
ATOM      2  N   UNL     1      23.036  -3.493  15.321  0.00  0.00    +0.000 NA
ATOM      3  C   UNL     1      27.672  -3.775  13.973  0.00  0.00    +0.000 A 
ATOM      4  C   UNL     1      25.322  -3.609  14.625  0.00  0.00    +0.000 A 
ATOM      5  C   UNL     1      26.329  -3.591  13.644  0.00  0.00    +0.000 A 
ATOM      6  C   UNL     1      28.018  -3.977  15.309  0.00  0.00    +0.000 A 
ATOM      7  C   UNL     1      25.664  -3.822  15.963  0.00  0.00    +0.000 A 
ATOM      8  C   UNL     1      27.006  -3.998  16.276  0.00  0.00    +0.000 A 
ATOM      9  C   UNL     1      23.959  -3.436  14.348  0.00  0.00    +0.000 A 
ATOM     10  C   UNL     1      23.473  -3.701  16.569  0.00  0.00    +0.000 A 
ATOM     11  N   UNL     1      23.551  -3.239  13.003  0.00  0.00    +0.000 N 
ATOM     12  H   UNL     1      24.136  -2.550  12.541  0.00  0.00    +0.000 HD
ENDROOT
BRANCH  11  13
ATOM     13  C   UNL     1      22.236  -3.246  12.486  0.00  0.00    +0.000 A 
ATOM     14  C   UNL     1      21.696  -4.453  12.027  0.00  0.00    +0.000 A 
ATOM     15  C   UNL     1      20.370  -4.531  11.607  0.00  0.00    +0.000 A 
ATOM     16 CL   UNL     1      19.773  -6.032  11.023  0.00  0.00    +0.000 Cl
ATOM     17  C   UNL     1      19.558  -3.404  11.668  0.00  0.00    +0.000 A 
ATOM     18  F   UNL     1      18.280  -3.458  11.267  0.00  0.00    +0.000 F 
ATOM     19  C   UNL     1      20.059  -2.204  12.155  0.00  0.00    +0.000 A 
ATOM     20  C   UNL     1      21.386  -2.138  12.576  0.00  0.00    +0.000 A 
ENDBRANCH  11  13
BRANCH   6  21
ATOM     21  O   UNL     1      29.353  -4.155  15.589  0.00  0.00    +0.000 OA
ATOM     22  C   UNL     1      29.640  -4.718  16.839  0.00  0.00    +0.000 C 
ENDBRANCH   6  21
BRANCH   3  23
ATOM     23  O   UNL     1      28.685  -3.764  13.044  0.00  0.00    +0.000 OA
BRANCH  23  24
ATOM     24  C   UNL     1      28.645  -4.763  12.166  0.00  0.00    +0.000 C 
ATOM     25  C   UNL     1      28.606  -5.904  11.143  0.00  0.00    +0.000 C 
BRANCH  25  26
ATOM     26  C   UNL     1      28.583  -7.023  10.096  0.00  0.00    +0.000 C 
BRANCH  26  27
ATOM     27  N   UNL     1      28.576  -8.085   9.100  0.00  0.00    +0.000 N 
ATOM     28  C   UNL     1      27.598  -7.677   8.046  0.00  0.00    +0.000 C 
ATOM     29  C   UNL     1      27.874  -7.225   6.575  0.00  0.00    +0.000 C 
ATOM     30  O   UNL     1      28.986  -7.056   5.826  0.00  0.00    +0.000 OA
ATOM     31  C   UNL     1      29.868  -7.424   6.777  0.00  0.00    +0.000 C 
ATOM     32  C   UNL     1      29.797  -7.894   8.261  0.00  0.00    +0.000 C 
ENDBRANCH  26  27
ENDBRANCH  25  26
ENDBRANCH  23  24
ENDBRANCH   3  23
TORSDOF 6
ENDMDL
MODEL 2
REMARK VINA RESULT:      -5.9     21.109     22.970
REMARK  Name = Gefitinib.pdbqt.pdb
REMARK  6 active torsions:
REMARK  status: ('A' for Active; 'I' for Inactive)
REMARK    1  A    between atoms: C_3  and  O_11
REMARK    2  A    between atoms: C_6  and  O_21
REMARK    3  A    between atoms: O_11  and  C_12
REMARK    4  A    between atoms: C_13  and  C_14
REMARK    5  A    between atoms: C_14  and  N_15
REMARK    6  A    between atoms: N_23  and  C_25
REMARK                            x       y       z     vdW  Elec       q    Type
REMARK                         _______ _______ _______ _____ _____    ______ ____
ROOT
ATOM      1  N   UNL     1      46.768   2.123  20.012  0.00  0.00    +0.000 NA
ATOM      2  N   UNL     1      45.536   1.405  21.922  0.00  0.00    +0.000 NA
ATOM      3  C   UNL     1      43.489   4.254  18.593  0.00  0.00    +0.000 A 
ATOM      4  C   UNL     1      44.501   2.829  20.302  0.00  0.00    +0.000 A 
ATOM      5  C   UNL     1      43.407   3.552  19.796  0.00  0.00    +0.000 A 
ATOM      6  C   UNL     1      44.690   4.237  17.883  0.00  0.00    +0.000 A 
ATOM      7  C   UNL     1      45.701   2.801  19.588  0.00  0.00    +0.000 A 
ATOM      8  C   UNL     1      45.770   3.509  18.395  0.00  0.00    +0.000 A 
ATOM      9  C   UNL     1      44.470   2.103  21.501  0.00  0.00    +0.000 A 
ATOM     10  C   UNL     1      46.636   1.448  21.161  0.00  0.00    +0.000 A 
ATOM     11  N   UNL     1      43.270   2.077  22.257  0.00  0.00    +0.000 N 
ATOM     12  H   UNL     1      42.877   3.008  22.352  0.00  0.00    +0.000 HD
ENDROOT
BRANCH  11  13
ATOM     13  C   UNL     1      42.962   1.259  23.368  0.00  0.00    +0.000 A 
ATOM     14  C   UNL     1      42.488  -0.038  23.143  0.00  0.00    +0.000 A 
ATOM     15  C   UNL     1      42.271  -0.916  24.202  0.00  0.00    +0.000 A 
ATOM     16 CL   UNL     1      41.657  -2.484  23.866  0.00  0.00    +0.000 Cl
ATOM     17  C   UNL     1      42.555  -0.513  25.503  0.00  0.00    +0.000 A 
ATOM     18  F   UNL     1      42.352  -1.343  26.536  0.00  0.00    +0.000 F 
ATOM     19  C   UNL     1      43.062   0.756  25.750  0.00  0.00    +0.000 A 
ATOM     20  C   UNL     1      43.279   1.624  24.682  0.00  0.00    +0.000 A 
ENDBRANCH  11  13
BRANCH   6  21
ATOM     21  O   UNL     1      44.727   4.940  16.702  0.00  0.00    +0.000 OA
ATOM     22  C   UNL     1      45.699   4.530  15.782  0.00  0.00    +0.000 C 
ENDBRANCH   6  21
BRANCH   3  23
ATOM     23  O   UNL     1      42.443   4.972  18.066  0.00  0.00    +0.000 OA
BRANCH  23  24
ATOM     24  C   UNL     1      41.905   5.863  18.897  0.00  0.00    +0.000 C 
ATOM     25  C   UNL     1      41.272   6.888  19.843  0.00  0.00    +0.000 C 
BRANCH  25  26
ATOM     26  C   UNL     1      40.607   7.910  20.772  0.00  0.00    +0.000 C 
BRANCH  26  27
ATOM     27  N   UNL     1      39.989   8.887  21.658  0.00  0.00    +0.000 N 
ATOM     28  C   UNL     1      38.763   8.241  22.217  0.00  0.00    +0.000 C 
ATOM     29  C   UNL     1      38.492   7.752  23.677  0.00  0.00    +0.000 C 
ATOM     30  O   UNL     1      39.209   7.739  24.823  0.00  0.00    +0.000 OA
ATOM     31  C   UNL     1      40.315   8.321  24.319  0.00  0.00    +0.000 C 
ATOM     32  C   UNL     1      40.770   8.866  22.931  0.00  0.00    +0.000 C 
ENDBRANCH  26  27
ENDBRANCH  25  26
ENDBRANCH  23  24
ENDBRANCH   3  23
TORSDOF 6
ENDMDL
MODEL 3
REMARK VINA RESULT:      -5.7     32.513     35.311
REMARK  Name = Gefitinib.pdbqt.pdb
REMARK  6 active torsions:
REMARK  status: ('A' for Active; 'I' for Inactive)
REMARK    1  A    between atoms: C_3  and  O_11
REMARK    2  A    between atoms: C_6  and  O_21
REMARK    3  A    between atoms: O_11  and  C_12
REMARK    4  A    between atoms: C_13  and  C_14
REMARK    5  A    between atoms: C_14  and  N_15
REMARK    6  A    between atoms: N_23  and  C_25
REMARK                            x       y       z     vdW  Elec       q    Type
REMARK                         _______ _______ _______ _____ _____    ______ ____
ROOT
ATOM      1  N   UNL     1      20.944  24.075  33.869  0.00  0.00    +0.000 NA
ATOM      2  N   UNL     1      21.590  22.132  32.651  0.00  0.00    +0.000 NA
ATOM      3  C   UNL     1      20.976  26.367  30.397  0.00  0.00    +0.000 A 
ATOM      4  C   UNL     1      21.276  24.208  31.505  0.00  0.00    +0.000 A 
ATOM      5  C   UNL     1      21.285  25.007  30.348  0.00  0.00    +0.000 A 
ATOM      6  C   UNL     1      20.646  26.939  31.626  0.00  0.00    +0.000 A 
ATOM      7  C   UNL     1      20.956  24.781  32.738  0.00  0.00    +0.000 A 
ATOM      8  C   UNL     1      20.645  26.134  32.771  0.00  0.00    +0.000 A 
ATOM      9  C   UNL     1      21.585  22.841  31.511  0.00  0.00    +0.000 A 
ATOM     10  C   UNL     1      21.267  22.779  33.777  0.00  0.00    +0.000 A 
ATOM     11  N   UNL     1      21.940  22.210  30.291  0.00  0.00    +0.000 N 
ATOM     12  H   UNL     1      21.295  22.463  29.548  0.00  0.00    +0.000 HD
ENDROOT
BRANCH  11  13
ATOM     13  C   UNL     1      22.474  20.916  30.106  0.00  0.00    +0.000 A 
ATOM     14  C   UNL     1      23.854  20.727  30.244  0.00  0.00    +0.000 A 
ATOM     15  C   UNL     1      24.413  19.453  30.175  0.00  0.00    +0.000 A 
ATOM     16 CL   UNL     1      26.117  19.288  30.318  0.00  0.00    +0.000 Cl
ATOM     17  C   UNL     1      23.591  18.346  29.996  0.00  0.00    +0.000 A 
ATOM     18  F   UNL     1      24.111  17.111  29.926  0.00  0.00    +0.000 F 
ATOM     19  C   UNL     1      22.215  18.502  29.895  0.00  0.00    +0.000 A 
ATOM     20  C   UNL     1      21.667  19.781  29.968  0.00  0.00    +0.000 A 
ENDBRANCH  11  13
BRANCH   6  21
ATOM     21  O   UNL     1      20.348  28.282  31.630  0.00  0.00    +0.000 OA
ATOM     22  C   UNL     1      20.810  29.002  32.738  0.00  0.00    +0.000 C 
ENDBRANCH   6  21
BRANCH   3  23
ATOM     23  O   UNL     1      20.973  27.180  29.290  0.00  0.00    +0.000 OA
BRANCH  23  24
ATOM     24  C   UNL     1      22.075  27.910  29.134  0.00  0.00    +0.000 C 
ATOM     25  C   UNL     1      23.353  28.737  28.948  0.00  0.00    +0.000 C 
BRANCH  25  26
ATOM     26  C   UNL     1      24.645  29.535  28.746  0.00  0.00    +0.000 C 
BRANCH  26  27
ATOM     27  N   UNL     1      25.880  30.281  28.552  0.00  0.00    +0.000 N 
ATOM     28  C   UNL     1      26.899  29.303  28.063  0.00  0.00    +0.000 C 
ATOM     29  C   UNL     1      27.542  29.185  26.643  0.00  0.00    +0.000 C 
ATOM     30  O   UNL     1      27.406  29.859  25.480  0.00  0.00    +0.000 OA
ATOM     31  C   UNL     1      26.487  30.741  25.920  0.00  0.00    +0.000 C 
ATOM     32  C   UNL     1      25.739  31.017  27.260  0.00  0.00    +0.000 C 
ENDBRANCH  26  27
ENDBRANCH  25  26
ENDBRANCH  23  24
ENDBRANCH   3  23
TORSDOF 6
ENDMDL
MODEL 4
REMARK VINA RESULT:      -5.6     20.737     22.893
REMARK  Name = Gefitinib.pdbqt.pdb
REMARK  6 active torsions:
REMARK  status: ('A' for Active; 'I' for Inactive)
REMARK    1  A    between atoms: C_3  and  O_11
REMARK    2  A    between atoms: C_6  and  O_21
REMARK    3  A    between atoms: O_11  and  C_12
REMARK    4  A    between atoms: C_13  and  C_14
REMARK    5  A    between atoms: C_14  and  N_15
REMARK    6  A    between atoms: N_23  and  C_25
REMARK                            x       y       z     vdW  Elec       q    Type
REMARK                         _______ _______ _______ _____ _____    ______ ____
ROOT
ATOM      1  N   UNL     1      46.751   3.267  20.545  0.00  0.00    +0.000 NA
ATOM      2  N   UNL     1      45.546   2.136  22.262  0.00  0.00    +0.000 NA
ATOM      3  C   UNL     1      43.213   4.685  18.877  0.00  0.00    +0.000 A 
ATOM      4  C   UNL     1      44.364   3.404  20.613  0.00  0.00    +0.000 A 
ATOM      5  C   UNL     1      43.184   3.892  20.025  0.00  0.00    +0.000 A 
ATOM      6  C   UNL     1      44.447   5.002  18.308  0.00  0.00    +0.000 A 
ATOM      7  C   UNL     1      45.600   3.711  20.039  0.00  0.00    +0.000 A 
ATOM      8  C   UNL     1      45.615   4.506  18.900  0.00  0.00    +0.000 A 
ATOM      9  C   UNL     1      44.390   2.599  21.760  0.00  0.00    +0.000 A 
ATOM     10  C   UNL     1      46.673   2.492  21.634  0.00  0.00    +0.000 A 
ATOM     11  N   UNL     1      43.163   2.237  22.373  0.00  0.00    +0.000 N 
ATOM     12  H   UNL     1      42.551   3.042  22.472  0.00  0.00    +0.000 HD
ENDROOT
BRANCH  11  13
ATOM     13  C   UNL     1      42.952   1.287  23.397  0.00  0.00    +0.000 A 
ATOM     14  C   UNL     1      42.697  -0.044  23.043  0.00  0.00    +0.000 A 
ATOM     15  C   UNL     1      42.587  -1.034  24.016  0.00  0.00    +0.000 A 
ATOM     16 CL   UNL     1      42.240  -2.643  23.524  0.00  0.00    +0.000 Cl
ATOM     17  C   UNL     1      42.760  -0.710  25.357  0.00  0.00    +0.000 A 
ATOM     18  F   UNL     1      42.657  -1.650  26.308  0.00  0.00    +0.000 F 
ATOM     19  C   UNL     1      43.051   0.595  25.731  0.00  0.00    +0.000 A 
ATOM     20  C   UNL     1      43.162   1.578  24.749  0.00  0.00    +0.000 A 
ENDBRANCH  11  13
BRANCH   6  21
ATOM     21  O   UNL     1      44.431   5.785  17.178  0.00  0.00    +0.000 OA
ATOM     22  C   UNL     1      45.019   7.049  17.307  0.00  0.00    +0.000 C 
ENDBRANCH   6  21
BRANCH   3  23
ATOM     23  O   UNL     1      42.083   5.180  18.274  0.00  0.00    +0.000 OA
BRANCH  23  24
ATOM     24  C   UNL     1      41.393   6.048  19.011  0.00  0.00    +0.000 C 
ATOM     25  C   UNL     1      40.585   7.037  19.857  0.00  0.00    +0.000 C 
BRANCH  25  26
ATOM     26  C   UNL     1      39.748   8.005  20.701  0.00  0.00    +0.000 C 
BRANCH  26  27
ATOM     27  N   UNL     1      38.941   8.917  21.499  0.00  0.00    +0.000 N 
ATOM     28  C   UNL     1      39.450  10.295  21.221  0.00  0.00    +0.000 C 
ATOM     29  C   UNL     1      38.761  11.454  20.430  0.00  0.00    +0.000 C 
ATOM     30  O   UNL     1      37.583  11.592  19.783  0.00  0.00    +0.000 OA
ATOM     31  C   UNL     1      37.123  10.349  20.032  0.00  0.00    +0.000 C 
ATOM     32  C   UNL     1      37.643   9.084  20.779  0.00  0.00    +0.000 C 
ENDBRANCH  26  27
ENDBRANCH  25  26
ENDBRANCH  23  24
ENDBRANCH   3  23
TORSDOF 6
ENDMDL
MODEL 5
REMARK VINA RESULT:      -5.5      6.856     10.253
REMARK  Name = Gefitinib.pdbqt.pdb
REMARK  6 active torsions:
REMARK  status: ('A' for Active; 'I' for Inactive)
REMARK    1  A    between atoms: C_3  and  O_11
REMARK    2  A    between atoms: C_6  and  O_21
REMARK    3  A    between atoms: O_11  and  C_12
REMARK    4  A    between atoms: C_13  and  C_14
REMARK    5  A    between atoms: C_14  and  N_15
REMARK    6  A    between atoms: N_23  and  C_25
REMARK                            x       y       z     vdW  Elec       q    Type
REMARK                         _______ _______ _______ _____ _____    ______ ____
ROOT
ATOM      1  N   UNL     1      27.059  -9.822  21.402  0.00  0.00    +0.000 NA
ATOM      2  N   UNL     1      27.204  -7.966  22.889  0.00  0.00    +0.000 NA
ATOM      3  C   UNL     1      28.557  -7.536  18.266  0.00  0.00    +0.000 A 
ATOM      4  C   UNL     1      27.899  -7.726  20.612  0.00  0.00    +0.000 A 
ATOM      5  C   UNL     1      28.397  -6.976  19.533  0.00  0.00    +0.000 A 
ATOM      6  C   UNL     1      28.217  -8.876  18.073  0.00  0.00    +0.000 A 
ATOM      7  C   UNL     1      27.548  -9.065  20.419  0.00  0.00    +0.000 A 
ATOM      8  C   UNL     1      27.718  -9.611  19.154  0.00  0.00    +0.000 A 
ATOM      9  C   UNL     1      27.713  -7.210  21.902  0.00  0.00    +0.000 A 
ATOM     10  C   UNL     1      26.903  -9.236  22.596  0.00  0.00    +0.000 A 
ATOM     11  N   UNL     1      28.031  -5.850  22.151  0.00  0.00    +0.000 N 
ATOM     12  H   UNL     1      28.936  -5.609  21.759  0.00  0.00    +0.000 HD
ENDROOT
BRANCH  11  13
ATOM     13  C   UNL     1      27.736  -5.087  23.302  0.00  0.00    +0.000 A 
ATOM     14  C   UNL     1      26.399  -4.935  23.689  0.00  0.00    +0.000 A 
ATOM     15  C   UNL     1      26.066  -4.281  24.873  0.00  0.00    +0.000 A 
ATOM     16 CL   UNL     1      24.406  -4.097  25.278  0.00  0.00    +0.000 Cl
ATOM     17  C   UNL     1      27.071  -3.795  25.701  0.00  0.00    +0.000 A 
ATOM     18  F   UNL     1      26.770  -3.162  26.844  0.00  0.00    +0.000 F 
ATOM     19  C   UNL     1      28.406  -3.966  25.359  0.00  0.00    +0.000 A 
ATOM     20  C   UNL     1      28.728  -4.625  24.175  0.00  0.00    +0.000 A 
ENDBRANCH  11  13
BRANCH   6  21
ATOM     21  O   UNL     1      28.390  -9.388  16.808  0.00  0.00    +0.000 OA
ATOM     22  C   UNL     1      27.252  -9.958  16.224  0.00  0.00    +0.000 C 
ENDBRANCH   6  21
BRANCH   3  23
ATOM     23  O   UNL     1      29.041  -6.836  17.187  0.00  0.00    +0.000 OA
BRANCH  23  24
ATOM     24  C   UNL     1      28.330  -5.759  16.859  0.00  0.00    +0.000 C 
ATOM     25  C   UNL     1      27.497  -4.528  16.484  0.00  0.00    +0.000 C 
BRANCH  25  26
ATOM     26  C   UNL     1      26.635  -3.316  16.117  0.00  0.00    +0.000 C 
BRANCH  26  27
ATOM     27  N   UNL     1      25.817  -2.158  15.781  0.00  0.00    +0.000 N 
ATOM     28  C   UNL     1      25.684  -2.146  14.293  0.00  0.00    +0.000 C 
ATOM     29  C   UNL     1      24.421  -2.443  13.419  0.00  0.00    +0.000 C 
ATOM     30  O   UNL     1      23.141  -2.786  13.686  0.00  0.00    +0.000 OA
ATOM     31  C   UNL     1      23.262  -2.797  15.029  0.00  0.00    +0.000 C 
ATOM     32  C   UNL     1      24.400  -2.538  16.061  0.00  0.00    +0.000 C 
ENDBRANCH  26  27
ENDBRANCH  25  26
ENDBRANCH  23  24
ENDBRANCH   3  23
TORSDOF 6
ENDMDL
MODEL 6
REMARK VINA RESULT:      -5.5     19.110     23.451
REMARK  Name = Gefitinib.pdbqt.pdb
REMARK  6 active torsions:
REMARK  status: ('A' for Active; 'I' for Inactive)
REMARK    1  A    between atoms: C_3  and  O_11
REMARK    2  A    between atoms: C_6  and  O_21
REMARK    3  A    between atoms: O_11  and  C_12
REMARK    4  A    between atoms: C_13  and  C_14
REMARK    5  A    between atoms: C_14  and  N_15
REMARK    6  A    between atoms: N_23  and  C_25
REMARK                            x       y       z     vdW  Elec       q    Type
REMARK                         _______ _______ _______ _____ _____    ______ ____
ROOT
ATOM      1  N   UNL     1      51.381  -9.763   7.423  0.00  0.00    +0.000 NA
ATOM      2  N   UNL     1      49.270 -10.867   7.508  0.00  0.00    +0.000 NA
ATOM      3  C   UNL     1      50.048  -6.828  10.053  0.00  0.00    +0.000 A 
ATOM      4  C   UNL     1      49.630  -8.881   8.793  0.00  0.00    +0.000 A 
ATOM      5  C   UNL     1      49.204  -7.873   9.675  0.00  0.00    +0.000 A 
ATOM      6  C   UNL     1      51.346  -6.793   9.543  0.00  0.00    +0.000 A 
ATOM      7  C   UNL     1      50.926  -8.842   8.273  0.00  0.00    +0.000 A 
ATOM      8  C   UNL     1      51.757  -7.800   8.662  0.00  0.00    +0.000 A 
ATOM      9  C   UNL     1      48.821  -9.947   8.377  0.00  0.00    +0.000 A 
ATOM     10  C   UNL     1      50.529 -10.735   7.073  0.00  0.00    +0.000 A 
ATOM     11  N   UNL     1      47.487 -10.026   8.855  0.00  0.00    +0.000 N 
ATOM     12  H   UNL     1      47.449  -9.873   9.858  0.00  0.00    +0.000 HD
ENDROOT
BRANCH  11  13
ATOM     13  C   UNL     1      46.457 -10.886   8.414  0.00  0.00    +0.000 A 
ATOM     14  C   UNL     1      45.619 -10.461   7.376  0.00  0.00    +0.000 A 
ATOM     15  C   UNL     1      44.658 -11.313   6.837  0.00  0.00    +0.000 A 
ATOM     16 CL   UNL     1      43.638 -10.725   5.587  0.00  0.00    +0.000 Cl
ATOM     17  C   UNL     1      44.542 -12.614   7.313  0.00  0.00    +0.000 A 
ATOM     18  F   UNL     1      43.623 -13.449   6.808  0.00  0.00    +0.000 F 
ATOM     19  C   UNL     1      45.387 -13.072   8.316  0.00  0.00    +0.000 A 
ATOM     20  C   UNL     1      46.347 -12.212   8.846  0.00  0.00    +0.000 A 
ENDBRANCH  11  13
BRANCH   6  21
ATOM     21  O   UNL     1      52.145  -5.746   9.941  0.00  0.00    +0.000 OA
ATOM     22  C   UNL     1      53.217  -6.083  10.775  0.00  0.00    +0.000 C 
ENDBRANCH   6  21
BRANCH   3  23
ATOM     23  O   UNL     1      49.669  -5.825  10.912  0.00  0.00    +0.000 OA
BRANCH  23  24
ATOM     24  C   UNL     1      48.371  -5.807  11.207  0.00  0.00    +0.000 C 
ATOM     25  C   UNL     1      46.874  -5.773  11.534  0.00  0.00    +0.000 C 
BRANCH  25  26
ATOM     26  C   UNL     1      45.372  -5.718  11.833  0.00  0.00    +0.000 C 
BRANCH  26  27
ATOM     27  N   UNL     1      43.947  -5.654  12.125  0.00  0.00    +0.000 N 
ATOM     28  C   UNL     1      43.394  -4.530  11.308  0.00  0.00    +0.000 C 
ATOM     29  C   UNL     1      42.447  -4.596  10.065  0.00  0.00    +0.000 C 
ATOM     30  O   UNL     1      41.866  -5.595   9.366  0.00  0.00    +0.000 OA
ATOM     31  C   UNL     1      42.365  -6.608  10.101  0.00  0.00    +0.000 C 
ATOM     32  C   UNL     1      43.299  -6.748  11.342  0.00  0.00    +0.000 C 
ENDBRANCH  26  27
ENDBRANCH  25  26
ENDBRANCH  23  24
ENDBRANCH   3  23
TORSDOF 6
ENDMDL
MODEL 7
REMARK VINA RESULT:      -5.1     28.239     31.730
REMARK  Name = Gefitinib.pdbqt.pdb
REMARK  6 active torsions:
REMARK  status: ('A' for Active; 'I' for Inactive)
REMARK    1  A    between atoms: C_3  and  O_11
REMARK    2  A    between atoms: C_6  and  O_21
REMARK    3  A    between atoms: O_11  and  C_12
REMARK    4  A    between atoms: C_13  and  C_14
REMARK    5  A    between atoms: C_14  and  N_15
REMARK    6  A    between atoms: N_23  and  C_25
REMARK                            x       y       z     vdW  Elec       q    Type
REMARK                         _______ _______ _______ _____ _____    ______ ____
ROOT
ATOM      1  N   UNL     1      18.814  18.745  32.437  0.00  0.00    +0.000 NA
ATOM      2  N   UNL     1      19.701  16.548  32.695  0.00  0.00    +0.000 NA
ATOM      3  C   UNL     1      22.382  20.082  30.767  0.00  0.00    +0.000 A 
ATOM      4  C   UNL     1      21.046  18.270  31.720  0.00  0.00    +0.000 A 
ATOM      5  C   UNL     1      22.242  18.750  31.159  0.00  0.00    +0.000 A 
ATOM      6  C   UNL     1      21.303  20.951  30.934  0.00  0.00    +0.000 A 
ATOM      7  C   UNL     1      19.968  19.141  31.899  0.00  0.00    +0.000 A 
ATOM      8  C   UNL     1      20.119  20.462  31.499  0.00  0.00    +0.000 A 
ATOM      9  C   UNL     1      20.856  16.945  32.137  0.00  0.00    +0.000 A 
ATOM     10  C   UNL     1      18.733  17.464  32.818  0.00  0.00    +0.000 A 
ATOM     11  N   UNL     1      21.924  16.022  32.000  0.00  0.00    +0.000 N 
ATOM     12  H   UNL     1      22.349  16.087  31.080  0.00  0.00    +0.000 HD
ENDROOT
BRANCH  11  13
ATOM     13  C   UNL     1      22.015  14.716  32.531  0.00  0.00    +0.000 A 
ATOM     14  C   UNL     1      22.128  14.555  33.917  0.00  0.00    +0.000 A 
ATOM     15  C   UNL     1      22.116  13.287  34.494  0.00  0.00    +0.000 A 
ATOM     16 CL   UNL     1      22.292  13.151  36.197  0.00  0.00    +0.000 Cl
ATOM     17  C   UNL     1      21.959  12.163  33.691  0.00  0.00    +0.000 A 
ATOM     18  F   UNL     1      21.945  10.934  34.228  0.00  0.00    +0.000 F 
ATOM     19  C   UNL     1      21.806  12.298  32.317  0.00  0.00    +0.000 A 
ATOM     20  C   UNL     1      21.817  13.571  31.751  0.00  0.00    +0.000 A 
ENDBRANCH  11  13
BRANCH   6  21
ATOM     21  O   UNL     1      21.483  22.255  30.536  0.00  0.00    +0.000 OA
ATOM     22  C   UNL     1      20.337  23.059  30.553  0.00  0.00    +0.000 C 
ENDBRANCH   6  21
BRANCH   3  23
ATOM     23  O   UNL     1      23.533  20.589  30.215  0.00  0.00    +0.000 OA
BRANCH  23  24
ATOM     24  C   UNL     1      24.494  20.870  31.093  0.00  0.00    +0.000 C 
ATOM     25  C   UNL     1      25.597  21.212  32.100  0.00  0.00    +0.000 C 
BRANCH  25  26
ATOM     26  C   UNL     1      26.693  21.587  33.103  0.00  0.00    +0.000 C 
BRANCH  26  27
ATOM     27  N   UNL     1      27.739  21.931  34.056  0.00  0.00    +0.000 N 
ATOM     28  C   UNL     1      27.051  22.326  35.322  0.00  0.00    +0.000 C 
ATOM     29  C   UNL     1      26.996  21.565  36.687  0.00  0.00    +0.000 C 
ATOM     30  O   UNL     1      27.499  20.397  37.144  0.00  0.00    +0.000 OA
ATOM     31  C   UNL     1      28.119  20.039  36.001  0.00  0.00    +0.000 C 
ATOM     32  C   UNL     1      28.288  20.641  34.574  0.00  0.00    +0.000 C 
ENDBRANCH  26  27
ENDBRANCH  25  26
ENDBRANCH  23  24
ENDBRANCH   3  23
TORSDOF 6
ENDMDL
MODEL 8
REMARK VINA RESULT:      -5.1     30.818     33.191
REMARK  Name = Gefitinib.pdbqt.pdb
REMARK  6 active torsions:
REMARK  status: ('A' for Active; 'I' for Inactive)
REMARK    1  A    between atoms: C_3  and  O_11
REMARK    2  A    between atoms: C_6  and  O_21
REMARK    3  A    between atoms: O_11  and  C_12
REMARK    4  A    between atoms: C_13  and  C_14
REMARK    5  A    between atoms: C_14  and  N_15
REMARK    6  A    between atoms: N_23  and  C_25
REMARK                            x       y       z     vdW  Elec       q    Type
REMARK                         _______ _______ _______ _____ _____    ______ ____
ROOT
ATOM      1  N   UNL     1      24.484  23.514  -3.572  0.00  0.00    +0.000 NA
ATOM      2  N   UNL     1      26.851  23.789  -3.566  0.00  0.00    +0.000 NA
ATOM      3  C   UNL     1      24.493  22.614   0.489  0.00  0.00    +0.000 A 
ATOM      4  C   UNL     1      25.712  23.226  -1.540  0.00  0.00    +0.000 A 
ATOM      5  C   UNL     1      25.686  22.912  -0.170  0.00  0.00    +0.000 A 
ATOM      6  C   UNL     1      23.300  22.634  -0.233  0.00  0.00    +0.000 A 
ATOM      7  C   UNL     1      24.520  23.236  -2.269  0.00  0.00    +0.000 A 
ATOM      8  C   UNL     1      23.339  22.943  -1.598  0.00  0.00    +0.000 A 
ATOM      9  C   UNL     1      26.882  23.526  -2.250  0.00  0.00    +0.000 A 
ATOM     10  C   UNL     1      25.655  23.774  -4.167  0.00  0.00    +0.000 A 
ATOM     11  N   UNL     1      28.125  23.509  -1.567  0.00  0.00    +0.000 N 
ATOM     12  H   UNL     1      28.063  24.006  -0.683  0.00  0.00    +0.000 HD
ENDROOT
BRANCH  11  13
ATOM     13  C   UNL     1      29.421  23.581  -2.122  0.00  0.00    +0.000 A 
ATOM     14  C   UNL     1      29.772  24.704  -2.881  0.00  0.00    +0.000 A 
ATOM     15  C   UNL     1      31.069  24.868  -3.361  0.00  0.00    +0.000 A 
ATOM     16 CL   UNL     1      31.430  26.250  -4.314  0.00  0.00    +0.000 Cl
ATOM     17  C   UNL     1      32.042  23.921  -3.062  0.00  0.00    +0.000 A 
ATOM     18  F   UNL     1      33.297  24.061  -3.515  0.00  0.00    +0.000 F 
ATOM     19  C   UNL     1      31.730  22.817  -2.279  0.00  0.00    +0.000 A 
ATOM     20  C   UNL     1      30.430  22.665  -1.801  0.00  0.00    +0.000 A 
ENDBRANCH  11  13
BRANCH   6  21
ATOM     21  O   UNL     1      22.148  22.333   0.454  0.00  0.00    +0.000 OA
ATOM     22  C   UNL     1      21.093  21.832  -0.318  0.00  0.00    +0.000 C 
ENDBRANCH   6  21
BRANCH   3  23
ATOM     23  O   UNL     1      24.428  22.303   1.826  0.00  0.00    +0.000 OA
BRANCH  23  24
ATOM     24  C   UNL     1      24.435  23.354   2.643  0.00  0.00    +0.000 C 
ATOM     25  C   UNL     1      24.439  24.575   3.569  0.00  0.00    +0.000 C 
BRANCH  25  26
ATOM     26  C   UNL     1      24.429  25.816   4.469  0.00  0.00    +0.000 C 
BRANCH  26  27
ATOM     27  N   UNL     1      24.434  26.995   5.324  0.00  0.00    +0.000 N 
ATOM     28  C   UNL     1      25.186  28.054   4.586  0.00  0.00    +0.000 C 
ATOM     29  C   UNL     1      24.643  29.365   3.929  0.00  0.00    +0.000 C 
ATOM     30  O   UNL     1      23.422  29.932   3.809  0.00  0.00    +0.000 OA
ATOM     31  C   UNL     1      22.743  28.976   4.474  0.00  0.00    +0.000 C 
ATOM     32  C   UNL     1      23.090  27.632   5.183  0.00  0.00    +0.000 C 
ENDBRANCH  26  27
ENDBRANCH  25  26
ENDBRANCH  23  24
ENDBRANCH   3  23
TORSDOF 6
ENDMDL
MODEL 9
REMARK VINA RESULT:      -5.1     24.517     27.026
REMARK  Name = Gefitinib.pdbqt.pdb
REMARK  6 active torsions:
REMARK  status: ('A' for Active; 'I' for Inactive)
REMARK    1  A    between atoms: C_3  and  O_11
REMARK    2  A    between atoms: C_6  and  O_21
REMARK    3  A    between atoms: O_11  and  C_12
REMARK    4  A    between atoms: C_13  and  C_14
REMARK    5  A    between atoms: C_14  and  N_15
REMARK    6  A    between atoms: N_23  and  C_25
REMARK                            x       y       z     vdW  Elec       q    Type
REMARK                         _______ _______ _______ _____ _____    ______ ____
ROOT
ATOM      1  N   UNL     1      32.495   7.145  -5.793  0.00  0.00    +0.000 NA
ATOM      2  N   UNL     1      30.421   8.309  -5.924  0.00  0.00    +0.000 NA
ATOM      3  C   UNL     1      34.546  10.461  -7.243  0.00  0.00    +0.000 A 
ATOM      4  C   UNL     1      32.446   9.407  -6.567  0.00  0.00    +0.000 A 
ATOM      5  C   UNL     1      33.164  10.511  -7.061  0.00  0.00    +0.000 A 
ATOM      6  C   UNL     1      35.227   9.287  -6.921  0.00  0.00    +0.000 A 
ATOM      7  C   UNL     1      33.124   8.227  -6.253  0.00  0.00    +0.000 A 
ATOM      8  C   UNL     1      34.501   8.193  -6.434  0.00  0.00    +0.000 A 
ATOM      9  C   UNL     1      31.059   9.403  -6.371  0.00  0.00    +0.000 A 
ATOM     10  C   UNL     1      31.167   7.232  -5.654  0.00  0.00    +0.000 A 
ATOM     11  N   UNL     1      30.315  10.567  -6.694  0.00  0.00    +0.000 N 
ATOM     12  H   UNL     1      30.761  11.400  -6.323  0.00  0.00    +0.000 HD
ENDROOT
BRANCH  11  13
ATOM     13  C   UNL     1      28.911  10.707  -6.765  0.00  0.00    +0.000 A 
ATOM     14  C   UNL     1      28.369  11.651  -7.646  0.00  0.00    +0.000 A 
ATOM     15  C   UNL     1      26.992  11.753  -7.827  0.00  0.00    +0.000 A 
ATOM     16 CL   UNL     1      26.384  12.952  -8.897  0.00  0.00    +0.000 Cl
ATOM     17  C   UNL     1      26.139  10.890  -7.148  0.00  0.00    +0.000 A 
ATOM     18  F   UNL     1      24.810  10.973  -7.309  0.00  0.00    +0.000 F 
ATOM     19  C   UNL     1      26.653   9.920  -6.298  0.00  0.00    +0.000 A 
ATOM     20  C   UNL     1      28.033   9.825  -6.127  0.00  0.00    +0.000 A 
ENDBRANCH  11  13
BRANCH   6  21
ATOM     21  O   UNL     1      36.588   9.280  -7.117  0.00  0.00    +0.000 OA
ATOM     22  C   UNL     1      37.045   8.490  -8.179  0.00  0.00    +0.000 C 
ENDBRANCH   6  21
BRANCH   3  23
ATOM     23  O   UNL     1      35.282  11.518  -7.724  0.00  0.00    +0.000 OA
BRANCH  23  24
ATOM     24  C   UNL     1      34.626  12.316  -8.562  0.00  0.00    +0.000 C 
ATOM     25  C   UNL     1      33.882  13.231  -9.541  0.00  0.00    +0.000 C 
BRANCH  25  26
ATOM     26  C   UNL     1      33.157  14.133 -10.546  0.00  0.00    +0.000 C 
BRANCH  26  27
ATOM     27  N   UNL     1      32.456  14.984 -11.497  0.00  0.00    +0.000 N 
ATOM     28  C   UNL     1      31.017  14.580 -11.452  0.00  0.00    +0.000 C 
ATOM     29  C   UNL     1      29.795  15.369 -10.877  0.00  0.00    +0.000 C 
ATOM     30  O   UNL     1      29.638  16.568 -10.276  0.00  0.00    +0.000 OA
ATOM     31  C   UNL     1      30.935  16.933 -10.316  0.00  0.00    +0.000 C 
ATOM     32  C   UNL     1      32.266  16.307 -10.830  0.00  0.00    +0.000 C 
ENDBRANCH  26  27
ENDBRANCH  25  26
ENDBRANCH  23  24
ENDBRANCH   3  23
TORSDOF 6
ENDMDL
