MODEL 1
REMARK VINA RESULT:      -7.5      0.000      0.000
REMARK  Name = Genistein.pdbqt.pdb
REMARK  4 active torsions:
REMARK  status: ('A' for Active; 'I' for Inactive)
REMARK    1  A    between atoms: C_4  and  C_12
REMARK    2  A    between atoms: C_7  and  O_20
REMARK    3  A    between atoms: C_11  and  O_22
REMARK    4  A    between atoms: C_17  and  O_18
REMARK                            x       y       z     vdW  Elec       q    Type
REMARK                         _______ _______ _______ _____ _____    ______ ____
ROOT
ATOM      1  O   UNL     1      24.712  -2.355  15.829  0.00  0.00    +0.000 OA
ATOM      2  O   UNL     1      27.924  -3.756  13.542  0.00  0.00    +0.000 OA
ATOM      3  C   UNL     1      26.099  -2.248  13.773  0.00  0.00    +0.000 A 
ATOM      4  C   UNL     1      26.644  -3.948  15.581  0.00  0.00    +0.000 A 
ATOM      5  C   UNL     1      25.015  -1.803  14.586  0.00  0.00    +0.000 A 
ATOM      6  C   UNL     1      26.993  -3.373  14.241  0.00  0.00    +0.000 A 
ATOM      7  C   UNL     1      26.327  -1.632  12.539  0.00  0.00    +0.000 A 
ATOM      8  C   UNL     1      25.611  -3.305  16.025  0.00  0.00    +0.000 A 
ATOM      9  C   UNL     1      24.192  -0.766  14.155  0.00  0.00    +0.000 A 
ATOM     10  C   UNL     1      25.498  -0.595  12.114  0.00  0.00    +0.000 A 
ATOM     11  C   UNL     1      24.444  -0.173  12.922  0.00  0.00    +0.000 A 
ENDROOT
BRANCH   4  12
ATOM     12  C   UNL     1      27.330  -5.036  16.273  0.00  0.00    +0.000 A 
ATOM     13  C   UNL     1      28.614  -4.863  16.797  0.00  0.00    +0.000 A 
ATOM     14  C   UNL     1      26.712  -6.283  16.429  0.00  0.00    +0.000 A 
ATOM     15  C   UNL     1      29.269  -5.900  17.458  0.00  0.00    +0.000 A 
ATOM     16  C   UNL     1      27.357  -7.329  17.087  0.00  0.00    +0.000 A 
ATOM     17  C   UNL     1      28.632  -7.127  17.598  0.00  0.00    +0.000 A 
BRANCH  17  18
ATOM     18  O   UNL     1      29.246  -8.163  18.239  0.00  0.00    +0.000 OA
ATOM     19  H   UNL     1      29.815  -8.624  17.598  0.00  0.00    +0.000 HD
ENDBRANCH  17  18
ENDBRANCH   4  12
BRANCH   7  20
ATOM     20  O   UNL     1      27.341  -1.991  11.693  0.00  0.00    +0.000 OA
ATOM     21  H   UNL     1      27.695  -1.180  11.263  0.00  0.00    +0.000 HD
ENDBRANCH   7  20
BRANCH  11  22
ATOM     22  O   UNL     1      23.626   0.842  12.516  0.00  0.00    +0.000 OA
ATOM     23  H   UNL     1      22.752   0.709  12.924  0.00  0.00    +0.000 HD
ENDBRANCH  11  22
TORSDOF 4
ENDMDL
MODEL 2
REMARK VINA RESULT:      -6.6     17.446     19.344
REMARK  Name = Genistein.pdbqt.pdb
REMARK  4 active torsions:
REMARK  status: ('A' for Active; 'I' for Inactive)
REMARK    1  A    between atoms: C_4  and  C_12
REMARK    2  A    between atoms: C_7  and  O_20
REMARK    3  A    between atoms: C_11  and  O_22
REMARK    4  A    between atoms: C_17  and  O_18
REMARK                            x       y       z     vdW  Elec       q    Type
REMARK                         _______ _______ _______ _____ _____    ______ ____
ROOT
ATOM      1  O   UNL     1      13.949   6.041  29.126  0.00  0.00    +0.000 OA
ATOM      2  O   UNL     1      15.221   5.853  25.145  0.00  0.00    +0.000 OA
ATOM      3  C   UNL     1      14.547   7.177  27.002  0.00  0.00    +0.000 A 
ATOM      4  C   UNL     1      14.662   4.643  27.160  0.00  0.00    +0.000 A 
ATOM      5  C   UNL     1      14.116   7.193  28.361  0.00  0.00    +0.000 A 
ATOM      6  C   UNL     1      14.850   5.867  26.313  0.00  0.00    +0.000 A 
ATOM      7  C   UNL     1      14.686   8.386  26.314  0.00  0.00    +0.000 A 
ATOM      8  C   UNL     1      14.266   5.035  28.329  0.00  0.00    +0.000 A 
ATOM      9  C   UNL     1      13.836   8.400  28.996  0.00  0.00    +0.000 A 
ATOM     10  C   UNL     1      14.404   9.590  26.956  0.00  0.00    +0.000 A 
ATOM     11  C   UNL     1      13.984   9.587  28.285  0.00  0.00    +0.000 A 
ENDROOT
BRANCH   4  12
ATOM     12  C   UNL     1      14.880   3.256  26.756  0.00  0.00    +0.000 A 
ATOM     13  C   UNL     1      13.832   2.475  26.261  0.00  0.00    +0.000 A 
ATOM     14  C   UNL     1      16.150   2.677  26.855  0.00  0.00    +0.000 A 
ATOM     15  C   UNL     1      14.039   1.153  25.874  0.00  0.00    +0.000 A 
ATOM     16  C   UNL     1      16.371   1.354  26.473  0.00  0.00    +0.000 A 
ATOM     17  C   UNL     1      15.311   0.603  25.984  0.00  0.00    +0.000 A 
BRANCH  17  18
ATOM     18  O   UNL     1      15.546  -0.689  25.615  0.00  0.00    +0.000 OA
ATOM     19  H   UNL     1      16.501  -0.790  25.453  0.00  0.00    +0.000 HD
ENDBRANCH  17  18
ENDBRANCH   4  12
BRANCH   7  20
ATOM     20  O   UNL     1      15.094   8.467  25.010  0.00  0.00    +0.000 OA
ATOM     21  H   UNL     1      14.867   9.361  24.664  0.00  0.00    +0.000 HD
ENDBRANCH   7  20
BRANCH  11  22
ATOM     22  O   UNL     1      13.705  10.760  28.924  0.00  0.00    +0.000 OA
ATOM     23  H   UNL     1      13.457  10.554  29.843  0.00  0.00    +0.000 HD
ENDBRANCH  11  22
TORSDOF 4
ENDMDL
MODEL 3
REMARK VINA RESULT:      -6.6     25.062     27.947
REMARK  Name = Genistein.pdbqt.pdb
REMARK  4 active torsions:
REMARK  status: ('A' for Active; 'I' for Inactive)
REMARK    1  A    between atoms: C_4  and  C_12
REMARK    2  A    between atoms: C_7  and  O_20
REMARK    3  A    between atoms: C_11  and  O_22
REMARK    4  A    between atoms: C_17  and  O_18
REMARK                            x       y       z     vdW  Elec       q    Type
REMARK                         _______ _______ _______ _____ _____    ______ ____
ROOT
ATOM      1  O   UNL     1      23.368  22.046   2.291  0.00  0.00    +0.000 OA
ATOM      2  O   UNL     1      21.097  19.024   0.499  0.00  0.00    +0.000 OA
ATOM      3  C   UNL     1      22.826  20.646   0.315  0.00  0.00    +0.000 A 
ATOM      4  C   UNL     1      21.540  20.330   2.483  0.00  0.00    +0.000 A 
ATOM      5  C   UNL     1      23.576  21.669   0.966  0.00  0.00    +0.000 A 
ATOM      6  C   UNL     1      21.741  19.904   1.059  0.00  0.00    +0.000 A 
ATOM      7  C   UNL     1      23.107  20.336  -1.019  0.00  0.00    +0.000 A 
ATOM      8  C   UNL     1      22.389  21.276   2.731  0.00  0.00    +0.000 A 
ATOM      9  C   UNL     1      24.576  22.353   0.280  0.00  0.00    +0.000 A 
ATOM     10  C   UNL     1      24.110  21.025  -1.699  0.00  0.00    +0.000 A 
ATOM     11  C   UNL     1      24.832  22.022  -1.047  0.00  0.00    +0.000 A 
ENDROOT
BRANCH   4  12
ATOM     12  C   UNL     1      20.567  19.789   3.430  0.00  0.00    +0.000 A 
ATOM     13  C   UNL     1      20.692  18.491   3.932  0.00  0.00    +0.000 A 
ATOM     14  C   UNL     1      19.483  20.566   3.858  0.00  0.00    +0.000 A 
ATOM     15  C   UNL     1      19.765  17.976   4.836  0.00  0.00    +0.000 A 
ATOM     16  C   UNL     1      18.548  20.062   4.761  0.00  0.00    +0.000 A 
ATOM     17  C   UNL     1      18.699  18.768   5.243  0.00  0.00    +0.000 A 
BRANCH  17  18
ATOM     18  O   UNL     1      17.774  18.293   6.127  0.00  0.00    +0.000 OA
ATOM     19  H   UNL     1      17.473  17.422   5.814  0.00  0.00    +0.000 HD
ENDBRANCH  17  18
ENDBRANCH   4  12
BRANCH   7  20
ATOM     20  O   UNL     1      22.441  19.370  -1.724  0.00  0.00    +0.000 OA
ATOM     21  H   UNL     1      21.486  19.409  -1.487  0.00  0.00    +0.000 HD
ENDBRANCH   7  20
BRANCH  11  22
ATOM     22  O   UNL     1      25.817  22.703  -1.703  0.00  0.00    +0.000 OA
ATOM     23  H   UNL     1      25.436  23.531  -2.047  0.00  0.00    +0.000 HD
ENDBRANCH  11  22
TORSDOF 4
ENDMDL
MODEL 4
REMARK VINA RESULT:      -6.4     28.069     30.764
REMARK  Name = Genistein.pdbqt.pdb
REMARK  4 active torsions:
REMARK  status: ('A' for Active; 'I' for Inactive)
REMARK    1  A    between atoms: C_4  and  C_12
REMARK    2  A    between atoms: C_7  and  O_20
REMARK    3  A    between atoms: C_11  and  O_22
REMARK    4  A    between atoms: C_17  and  O_18
REMARK                            x       y       z     vdW  Elec       q    Type
REMARK                         _______ _______ _______ _____ _____    ______ ____
ROOT
ATOM      1  O   UNL     1      25.300  24.408   1.505  0.00  0.00    +0.000 OA
ATOM      2  O   UNL     1      22.579  23.333   4.497  0.00  0.00    +0.000 OA
ATOM      3  C   UNL     1      23.714  22.768   2.485  0.00  0.00    +0.000 A 
ATOM      4  C   UNL     1      24.098  25.001   3.634  0.00  0.00    +0.000 A 
ATOM      5  C   UNL     1      24.648  23.176   1.487  0.00  0.00    +0.000 A 
ATOM      6  C   UNL     1      23.382  23.684   3.640  0.00  0.00    +0.000 A 
ATOM      7  C   UNL     1      23.109  21.512   2.382  0.00  0.00    +0.000 A 
ATOM      8  C   UNL     1      24.860  25.028   2.587  0.00  0.00    +0.000 A 
ATOM      9  C   UNL     1      24.953  22.333   0.422  0.00  0.00    +0.000 A 
ATOM     10  C   UNL     1      23.420  20.673   1.313  0.00  0.00    +0.000 A 
ATOM     11  C   UNL     1      24.335  21.089   0.348  0.00  0.00    +0.000 A 
ENDROOT
BRANCH   4  12
ATOM     12  C   UNL     1      23.970  26.072   4.620  0.00  0.00    +0.000 A 
ATOM     13  C   UNL     1      24.404  27.370   4.337  0.00  0.00    +0.000 A 
ATOM     14  C   UNL     1      23.405  25.820   5.875  0.00  0.00    +0.000 A 
ATOM     15  C   UNL     1      24.282  28.392   5.276  0.00  0.00    +0.000 A 
ATOM     16  C   UNL     1      23.277  26.833   6.825  0.00  0.00    +0.000 A 
ATOM     17  C   UNL     1      23.717  28.113   6.515  0.00  0.00    +0.000 A 
BRANCH  17  18
ATOM     18  O   UNL     1      23.583  29.091   7.457  0.00  0.00    +0.000 OA
ATOM     19  H   UNL     1      22.839  28.854   8.038  0.00  0.00    +0.000 HD
ENDBRANCH  17  18
ENDBRANCH   4  12
BRANCH   7  20
ATOM     20  O   UNL     1      22.203  21.037   3.291  0.00  0.00    +0.000 OA
ATOM     21  H   UNL     1      22.648  20.950   4.165  0.00  0.00    +0.000 HD
ENDBRANCH   7  20
BRANCH  11  22
ATOM     22  O   UNL     1      24.647  20.275  -0.703  0.00  0.00    +0.000 OA
ATOM     23  H   UNL     1      25.525  19.887  -0.537  0.00  0.00    +0.000 HD
ENDBRANCH  11  22
TORSDOF 4
ENDMDL
MODEL 5
REMARK VINA RESULT:      -6.1     24.570     26.855
REMARK  Name = Genistein.pdbqt.pdb
REMARK  4 active torsions:
REMARK  status: ('A' for Active; 'I' for Inactive)
REMARK    1  A    between atoms: C_4  and  C_12
REMARK    2  A    between atoms: C_7  and  O_20
REMARK    3  A    between atoms: C_11  and  O_22
REMARK    4  A    between atoms: C_17  and  O_18
REMARK                            x       y       z     vdW  Elec       q    Type
REMARK                         _______ _______ _______ _____ _____    ______ ____
ROOT
ATOM      1  O   UNL     1      22.021  15.655  34.412  0.00  0.00    +0.000 OA
ATOM      2  O   UNL     1      22.118  14.620  30.359  0.00  0.00    +0.000 OA
ATOM      3  C   UNL     1      22.007  13.926  32.631  0.00  0.00    +0.000 A 
ATOM      4  C   UNL     1      22.137  16.385  32.008  0.00  0.00    +0.000 A 
ATOM      5  C   UNL     1      21.977  14.325  34.000  0.00  0.00    +0.000 A 
ATOM      6  C   UNL     1      22.092  14.963  31.535  0.00  0.00    +0.000 A 
ATOM      7  C   UNL     1      21.958  12.565  32.314  0.00  0.00    +0.000 A 
ATOM      8  C   UNL     1      22.092  16.369  33.302  0.00  0.00    +0.000 A 
ATOM      9  C   UNL     1      21.900  13.369  35.009  0.00  0.00    +0.000 A 
ATOM     10  C   UNL     1      21.882  11.615  33.330  0.00  0.00    +0.000 A 
ATOM     11  C   UNL     1      21.852  12.022  34.662  0.00  0.00    +0.000 A 
ENDROOT
BRANCH   4  12
ATOM     12  C   UNL     1      22.220  17.583  31.174  0.00  0.00    +0.000 A 
ATOM     13  C   UNL     1      23.294  17.784  30.303  0.00  0.00    +0.000 A 
ATOM     14  C   UNL     1      21.219  18.559  31.230  0.00  0.00    +0.000 A 
ATOM     15  C   UNL     1      23.373  18.925  29.507  0.00  0.00    +0.000 A 
ATOM     16  C   UNL     1      21.286  19.706  30.440  0.00  0.00    +0.000 A 
ATOM     17  C   UNL     1      22.365  19.879  29.584  0.00  0.00    +0.000 A 
BRANCH  17  18
ATOM     18  O   UNL     1      22.413  21.007  28.818  0.00  0.00    +0.000 OA
ATOM     19  H   UNL     1      23.236  20.987  28.298  0.00  0.00    +0.000 HD
ENDBRANCH  17  18
ENDBRANCH   4  12
BRANCH   7  20
ATOM     20  O   UNL     1      21.982  12.090  31.031  0.00  0.00    +0.000 OA
ATOM     21  H   UNL     1      22.787  12.436  30.581  0.00  0.00    +0.000 HD
ENDBRANCH   7  20
BRANCH  11  22
ATOM     22  O   UNL     1      21.777  11.100  35.665  0.00  0.00    +0.000 OA
ATOM     23  H   UNL     1      22.325  10.335  35.417  0.00  0.00    +0.000 HD
ENDBRANCH  11  22
TORSDOF 4
ENDMDL
MODEL 6
REMARK VINA RESULT:      -6.1     25.576     27.407
REMARK  Name = Genistein.pdbqt.pdb
REMARK  4 active torsions:
REMARK  status: ('A' for Active; 'I' for Inactive)
REMARK    1  A    between atoms: C_4  and  C_12
REMARK    2  A    between atoms: C_7  and  O_20
REMARK    3  A    between atoms: C_11  and  O_22
REMARK    4  A    between atoms: C_17  and  O_18
REMARK                            x       y       z     vdW  Elec       q    Type
REMARK                         _______ _______ _______ _____ _____    ______ ____
ROOT
ATOM      1  O   UNL     1      20.651  18.903  32.312  0.00  0.00    +0.000 OA
ATOM      2  O   UNL     1      22.579  16.128  29.845  0.00  0.00    +0.000 OA
ATOM      3  C   UNL     1      20.717  16.676  31.218  0.00  0.00    +0.000 A 
ATOM      4  C   UNL     1      22.620  18.320  30.858  0.00  0.00    +0.000 A 
ATOM      5  C   UNL     1      20.096  17.652  32.052  0.00  0.00    +0.000 A 
ATOM      6  C   UNL     1      22.046  16.967  30.561  0.00  0.00    +0.000 A 
ATOM      7  C   UNL     1      20.082  15.447  31.015  0.00  0.00    +0.000 A 
ATOM      8  C   UNL     1      21.792  18.932  31.644  0.00  0.00    +0.000 A 
ATOM      9  C   UNL     1      18.871  17.383  32.658  0.00  0.00    +0.000 A 
ATOM     10  C   UNL     1      18.857  15.185  31.625  0.00  0.00    +0.000 A 
ATOM     11  C   UNL     1      18.264  16.151  32.436  0.00  0.00    +0.000 A 
ENDROOT
BRANCH   4  12
ATOM     12  C   UNL     1      23.882  18.865  30.363  0.00  0.00    +0.000 A 
ATOM     13  C   UNL     1      23.905  19.825  29.348  0.00  0.00    +0.000 A 
ATOM     14  C   UNL     1      25.102  18.434  30.898  0.00  0.00    +0.000 A 
ATOM     15  C   UNL     1      25.108  20.345  28.875  0.00  0.00    +0.000 A 
ATOM     16  C   UNL     1      26.313  18.946  30.434  0.00  0.00    +0.000 A 
ATOM     17  C   UNL     1      26.305  19.899  29.424  0.00  0.00    +0.000 A 
BRANCH  17  18
ATOM     18  O   UNL     1      27.500  20.388  28.984  0.00  0.00    +0.000 OA
ATOM     19  H   UNL     1      28.186  19.720  29.160  0.00  0.00    +0.000 HD
ENDBRANCH  17  18
ENDBRANCH   4  12
BRANCH   7  20
ATOM     20  O   UNL     1      20.602  14.451  30.232  0.00  0.00    +0.000 OA
ATOM     21  H   UNL     1      21.580  14.437  30.349  0.00  0.00    +0.000 HD
ENDBRANCH   7  20
BRANCH  11  22
ATOM     22  O   UNL     1      17.064  15.906  33.038  0.00  0.00    +0.000 OA
ATOM     23  H   UNL     1      17.235  15.628  33.956  0.00  0.00    +0.000 HD
ENDBRANCH  11  22
TORSDOF 4
ENDMDL
MODEL 7
REMARK VINA RESULT:      -6.1     11.778     13.978
REMARK  Name = Genistein.pdbqt.pdb
REMARK  4 active torsions:
REMARK  status: ('A' for Active; 'I' for Inactive)
REMARK    1  A    between atoms: C_4  and  C_12
REMARK    2  A    between atoms: C_7  and  O_20
REMARK    3  A    between atoms: C_11  and  O_22
REMARK    4  A    between atoms: C_17  and  O_18
REMARK                            x       y       z     vdW  Elec       q    Type
REMARK                         _______ _______ _______ _____ _____    ______ ____
ROOT
ATOM      1  O   UNL     1      25.195  -3.048  25.969  0.00  0.00    +0.000 OA
ATOM      2  O   UNL     1      28.253  -2.693  28.803  0.00  0.00    +0.000 OA
ATOM      3  C   UNL     1      27.519  -3.525  26.699  0.00  0.00    +0.000 A 
ATOM      4  C   UNL     1      25.975  -2.169  28.193  0.00  0.00    +0.000 A 
ATOM      5  C   UNL     1      26.448  -3.621  25.762  0.00  0.00    +0.000 A 
ATOM      6  C   UNL     1      27.333  -2.775  27.997  0.00  0.00    +0.000 A 
ATOM      7  C   UNL     1      28.743  -4.133  26.404  0.00  0.00    +0.000 A 
ATOM      8  C   UNL     1      25.265  -2.455  27.149  0.00  0.00    +0.000 A 
ATOM      9  C   UNL     1      26.620  -4.313  24.566  0.00  0.00    +0.000 A 
ATOM     10  C   UNL     1      28.907  -4.824  25.205  0.00  0.00    +0.000 A 
ATOM     11  C   UNL     1      27.850  -4.907  24.301  0.00  0.00    +0.000 A 
ENDROOT
BRANCH   4  12
ATOM     12  C   UNL     1      25.519  -1.396  29.346  0.00  0.00    +0.000 A 
ATOM     13  C   UNL     1      24.800  -1.999  30.382  0.00  0.00    +0.000 A 
ATOM     14  C   UNL     1      25.796  -0.027  29.440  0.00  0.00    +0.000 A 
ATOM     15  C   UNL     1      24.365  -1.262  31.482  0.00  0.00    +0.000 A 
ATOM     16  C   UNL     1      25.367   0.722  30.535  0.00  0.00    +0.000 A 
ATOM     17  C   UNL     1      24.654   0.096  31.548  0.00  0.00    +0.000 A 
BRANCH  17  18
ATOM     18  O   UNL     1      24.243   0.845  32.611  0.00  0.00    +0.000 OA
ATOM     19  H   UNL     1      24.188   0.264  33.391  0.00  0.00    +0.000 HD
ENDBRANCH  17  18
ENDBRANCH   4  12
BRANCH   7  20
ATOM     20  O   UNL     1      29.825  -4.094  27.241  0.00  0.00    +0.000 OA
ATOM     21  H   UNL     1      29.595  -4.562  28.076  0.00  0.00    +0.000 HD
ENDBRANCH   7  20
BRANCH  11  22
ATOM     22  O   UNL     1      27.999  -5.581  23.123  0.00  0.00    +0.000 OA
ATOM     23  H   UNL     1      27.341  -5.238  22.491  0.00  0.00    +0.000 HD
ENDBRANCH  11  22
TORSDOF 4
ENDMDL
MODEL 8
REMARK VINA RESULT:      -5.8     25.064     27.260
REMARK  Name = Genistein.pdbqt.pdb
REMARK  4 active torsions:
REMARK  status: ('A' for Active; 'I' for Inactive)
REMARK    1  A    between atoms: C_4  and  C_12
REMARK    2  A    between atoms: C_7  and  O_20
REMARK    3  A    between atoms: C_11  and  O_22
REMARK    4  A    between atoms: C_17  and  O_18
REMARK                            x       y       z     vdW  Elec       q    Type
REMARK                         _______ _______ _______ _____ _____    ______ ____
ROOT
ATOM      1  O   UNL     1      21.510  14.322  31.003  0.00  0.00    +0.000 OA
ATOM      2  O   UNL     1      22.593  17.354  33.676  0.00  0.00    +0.000 OA
ATOM      3  C   UNL     1      21.665  15.193  33.322  0.00  0.00    +0.000 A 
ATOM      4  C   UNL     1      22.492  16.608  31.380  0.00  0.00    +0.000 A 
ATOM      5  C   UNL     1      21.311  14.187  32.376  0.00  0.00    +0.000 A 
ATOM      6  C   UNL     1      22.289  16.490  32.862  0.00  0.00    +0.000 A 
ATOM      7  C   UNL     1      21.427  14.967  34.681  0.00  0.00    +0.000 A 
ATOM      8  C   UNL     1      22.058  15.514  30.838  0.00  0.00    +0.000 A 
ATOM      9  C   UNL     1      20.735  12.993  32.800  0.00  0.00    +0.000 A 
ATOM     10  C   UNL     1      20.850  13.769  35.099  0.00  0.00    +0.000 A 
ATOM     11  C   UNL     1      20.512  12.797  34.159  0.00  0.00    +0.000 A 
ENDROOT
BRANCH   4  12
ATOM     12  C   UNL     1      23.069  17.742  30.663  0.00  0.00    +0.000 A 
ATOM     13  C   UNL     1      24.450  17.957  30.643  0.00  0.00    +0.000 A 
ATOM     14  C   UNL     1      22.247  18.642  29.975  0.00  0.00    +0.000 A 
ATOM     15  C   UNL     1      25.001  19.038  29.958  0.00  0.00    +0.000 A 
ATOM     16  C   UNL     1      22.785  19.728  29.286  0.00  0.00    +0.000 A 
ATOM     17  C   UNL     1      24.161  19.916  29.284  0.00  0.00    +0.000 A 
BRANCH  17  18
ATOM     18  O   UNL     1      24.669  20.984  28.604  0.00  0.00    +0.000 OA
ATOM     19  H   UNL     1      24.032  21.718  28.669  0.00  0.00    +0.000 HD
ENDBRANCH  17  18
ENDBRANCH   4  12
BRANCH   7  20
ATOM     20  O   UNL     1      21.733  15.874  35.660  0.00  0.00    +0.000 OA
ATOM     21  H   UNL     1      21.067  15.797  36.381  0.00  0.00    +0.000 HD
ENDBRANCH   7  20
BRANCH  11  22
ATOM     22  O   UNL     1      19.946  11.620  34.557  0.00  0.00    +0.000 OA
ATOM     23  H   UNL     1      20.400  11.322  35.365  0.00  0.00    +0.000 HD
ENDBRANCH  11  22
TORSDOF 4
ENDMDL
MODEL 9
REMARK VINA RESULT:      -5.7     13.076     15.312
REMARK  Name = Genistein.pdbqt.pdb
REMARK  4 active torsions:
REMARK  status: ('A' for Active; 'I' for Inactive)
REMARK    1  A    between atoms: C_4  and  C_12
REMARK    2  A    between atoms: C_7  and  O_20
REMARK    3  A    between atoms: C_11  and  O_22
REMARK    4  A    between atoms: C_17  and  O_18
REMARK                            x       y       z     vdW  Elec       q    Type
REMARK                         _______ _______ _______ _____ _____    ______ ____
ROOT
ATOM      1  O   UNL     1      14.786   2.214   4.846  0.00  0.00    +0.000 OA
ATOM      2  O   UNL     1      16.930   4.163   7.865  0.00  0.00    +0.000 OA
ATOM      3  C   UNL     1      16.390   3.970   5.557  0.00  0.00    +0.000 A 
ATOM      4  C   UNL     1      15.359   2.421   7.287  0.00  0.00    +0.000 A 
ATOM      5  C   UNL     1      15.640   3.277   4.561  0.00  0.00    +0.000 A 
ATOM      6  C   UNL     1      16.285   3.567   7.009  0.00  0.00    +0.000 A 
ATOM      7  C   UNL     1      17.222   5.027   5.175  0.00  0.00    +0.000 A 
ATOM      8  C   UNL     1      14.856   2.043   6.155  0.00  0.00    +0.000 A 
ATOM      9  C   UNL     1      15.737   3.649   3.222  0.00  0.00    +0.000 A 
ATOM     10  C   UNL     1      17.313   5.393   3.833  0.00  0.00    +0.000 A 
ATOM     11  C   UNL     1      16.573   4.704   2.874  0.00  0.00    +0.000 A 
ENDROOT
BRANCH   4  12
ATOM     12  C   UNL     1      15.068   1.825   8.589  0.00  0.00    +0.000 A 
ATOM     13  C   UNL     1      16.086   1.583   9.516  0.00  0.00    +0.000 A 
ATOM     14  C   UNL     1      13.757   1.483   8.938  0.00  0.00    +0.000 A 
ATOM     15  C   UNL     1      15.809   1.016  10.758  0.00  0.00    +0.000 A 
ATOM     16  C   UNL     1      13.466   0.914  10.177  0.00  0.00    +0.000 A 
ATOM     17  C   UNL     1      14.497   0.686  11.078  0.00  0.00    +0.000 A 
BRANCH  17  18
ATOM     18  O   UNL     1      14.193   0.129  12.286  0.00  0.00    +0.000 OA
ATOM     19  H   UNL     1      14.954   0.254  12.880  0.00  0.00    +0.000 HD
ENDBRANCH  17  18
ENDBRANCH   4  12
BRANCH   7  20
ATOM     20  O   UNL     1      17.977   5.748   6.059  0.00  0.00    +0.000 OA
ATOM     21  H   UNL     1      17.979   6.691   5.776  0.00  0.00    +0.000 HD
ENDBRANCH   7  20
BRANCH  11  22
ATOM     22  O   UNL     1      16.655   5.054   1.557  0.00  0.00    +0.000 OA
ATOM     23  H   UNL     1      17.524   4.772   1.220  0.00  0.00    +0.000 HD
ENDBRANCH  11  22
TORSDOF 4
ENDMDL
