MODEL 1
REMARK VINA RESULT:      -5.8      0.000      0.000
REMARK  Name = Hyoscyamine.pdbqt.pdb
REMARK  6 active torsions:
REMARK  status: ('A' for Active; 'I' for Inactive)
REMARK    1  A    between atoms: C_2  and  O_3
REMARK    2  A    between atoms: C_2  and  C_13
REMARK    3  A    between atoms: O_3  and  C_4
REMARK    4  A    between atoms: C_13  and  C_14
REMARK    5  A    between atoms: C_13  and  C_20
REMARK    6  A    between atoms: C_20  and  O_21
REMARK                            x       y       z     vdW  Elec       q    Type
REMARK                         _______ _______ _______ _____ _____    ______ ____
ROOT
ATOM      1  O   UNL     1      21.325  21.603   0.751  0.00  0.00    +0.000 OA
ATOM      2  C   UNL     1      21.666  21.745   1.919  0.00  0.00    +0.000 C 
ENDROOT
BRANCH   2   3
ATOM      3  O   UNL     1      21.942  22.922   2.553  0.00  0.00    +0.000 OA
BRANCH   3   4
ATOM      4  C   UNL     1      22.853  23.715   1.855  0.00  0.00    +0.000 C 
ATOM      5  C   UNL     1      24.259  23.355   1.790  0.00  0.00    +0.000 C 
ATOM      6  C   UNL     1      25.406  24.266   1.889  0.00  0.00    +0.000 C 
ATOM      7  N   UNL     1      25.008  25.250   2.997  0.00  0.00    +0.000 NA
ATOM      8  C   UNL     1      25.572  25.103   0.713  0.00  0.00    +0.000 C 
ATOM      9  C   UNL     1      23.982  26.049   2.177  0.00  0.00    +0.000 C 
ATOM     10  C   UNL     1      26.144  26.092   3.403  0.00  0.00    +0.000 C 
ATOM     11  C   UNL     1      24.631  26.295   0.897  0.00  0.00    +0.000 C 
ATOM     12  C   UNL     1      22.824  25.147   2.074  0.00  0.00    +0.000 C 
ENDBRANCH   3   4
ENDBRANCH   2   3
BRANCH   2  13
ATOM     13  C   UNL     1      21.873  20.595   2.848  0.00  0.00    +0.000 C 
BRANCH  13  14
ATOM     14  C   UNL     1      20.786  19.944   3.603  0.00  0.00    +0.000 A 
ATOM     15  C   UNL     1      19.621  20.653   3.915  0.00  0.00    +0.000 A 
ATOM     16  C   UNL     1      18.600  20.063   4.659  0.00  0.00    +0.000 A 
ATOM     17  C   UNL     1      18.737  18.754   5.109  0.00  0.00    +0.000 A 
ATOM     18  C   UNL     1      19.893  18.038   4.817  0.00  0.00    +0.000 A 
ATOM     19  C   UNL     1      20.910  18.634   4.072  0.00  0.00    +0.000 A 
ENDBRANCH  13  14
BRANCH  13  20
ATOM     20  C   UNL     1      23.202  20.072   2.943  0.00  0.00    +0.000 C 
BRANCH  20  21
ATOM     21  O   UNL     1      24.435  19.587   3.031  0.00  0.00    +0.000 OA
ATOM     22  H   UNL     1      24.451  18.647   2.775  0.00  0.00    +0.000 HD
ENDBRANCH  20  21
ENDBRANCH  13  20
ENDBRANCH   2  13
TORSDOF 6
ENDMDL
MODEL 2
REMARK VINA RESULT:      -5.5      1.727      2.060
REMARK  Name = Hyoscyamine.pdbqt.pdb
REMARK  6 active torsions:
REMARK  status: ('A' for Active; 'I' for Inactive)
REMARK    1  A    between atoms: C_2  and  O_3
REMARK    2  A    between atoms: C_2  and  C_13
REMARK    3  A    between atoms: O_3  and  C_4
REMARK    4  A    between atoms: C_13  and  C_14
REMARK    5  A    between atoms: C_13  and  C_20
REMARK    6  A    between atoms: C_20  and  O_21
REMARK                            x       y       z     vdW  Elec       q    Type
REMARK                         _______ _______ _______ _____ _____    ______ ____
ROOT
ATOM      1  O   UNL     1      21.648  22.994   1.526  0.00  0.00    +0.000 OA
ATOM      2  C   UNL     1      21.959  22.566   2.630  0.00  0.00    +0.000 C 
ENDROOT
BRANCH   2   3
ATOM      3  O   UNL     1      22.189  23.299   3.758  0.00  0.00    +0.000 OA
BRANCH   3   4
ATOM      4  C   UNL     1      22.993  24.415   3.526  0.00  0.00    +0.000 C 
ATOM      5  C   UNL     1      24.102  24.732   4.409  0.00  0.00    +0.000 C 
ATOM      6  C   UNL     1      24.499  26.065   4.880  0.00  0.00    +0.000 C 
ATOM      7  N   UNL     1      23.169  26.768   5.181  0.00  0.00    +0.000 NA
ATOM      8  C   UNL     1      25.103  26.879   3.840  0.00  0.00    +0.000 C 
ATOM      9  C   UNL     1      22.751  27.009   3.722  0.00  0.00    +0.000 C 
ATOM     10  C   UNL     1      23.379  28.035   5.896  0.00  0.00    +0.000 C 
ATOM     11  C   UNL     1      23.948  27.515   3.065  0.00  0.00    +0.000 C 
ATOM     12  C   UNL     1      22.345  25.679   3.239  0.00  0.00    +0.000 C 
ENDBRANCH   3   4
ENDBRANCH   2   3
BRANCH   2  13
ATOM     13  C   UNL     1      22.176  21.114   2.903  0.00  0.00    +0.000 C 
BRANCH  13  14
ATOM     14  C   UNL     1      21.164  20.234   3.518  0.00  0.00    +0.000 A 
ATOM     15  C   UNL     1      19.866  20.704   3.746  0.00  0.00    +0.000 A 
ATOM     16  C   UNL     1      18.909  19.896   4.359  0.00  0.00    +0.000 A 
ATOM     17  C   UNL     1      19.244  18.607   4.761  0.00  0.00    +0.000 A 
ATOM     18  C   UNL     1      20.532  18.129   4.552  0.00  0.00    +0.000 A 
ATOM     19  C   UNL     1      21.485  18.941   3.938  0.00  0.00    +0.000 A 
ENDBRANCH  13  14
BRANCH  13  20
ATOM     20  C   UNL     1      23.422  20.555   2.475  0.00  0.00    +0.000 C 
BRANCH  20  21
ATOM     21  O   UNL     1      24.579  20.037   2.077  0.00  0.00    +0.000 OA
ATOM     22  H   UNL     1      25.278  20.222   2.729  0.00  0.00    +0.000 HD
ENDBRANCH  20  21
ENDBRANCH  13  20
ENDBRANCH   2  13
TORSDOF 6
ENDMDL
MODEL 3
REMARK VINA RESULT:      -5.2     28.049     29.869
REMARK  Name = Hyoscyamine.pdbqt.pdb
REMARK  6 active torsions:
REMARK  status: ('A' for Active; 'I' for Inactive)
REMARK    1  A    between atoms: C_2  and  O_3
REMARK    2  A    between atoms: C_2  and  C_13
REMARK    3  A    between atoms: O_3  and  C_4
REMARK    4  A    between atoms: C_13  and  C_14
REMARK    5  A    between atoms: C_13  and  C_20
REMARK    6  A    between atoms: C_20  and  O_21
REMARK                            x       y       z     vdW  Elec       q    Type
REMARK                         _______ _______ _______ _____ _____    ______ ____
ROOT
ATOM      1  O   UNL     1      23.179  19.812  33.078  0.00  0.00    +0.000 OA
ATOM      2  C   UNL     1      23.596  19.841  31.927  0.00  0.00    +0.000 C 
ENDROOT
BRANCH   2   3
ATOM      3  O   UNL     1      24.764  20.398  31.494  0.00  0.00    +0.000 OA
BRANCH   3   4
ATOM      4  C   UNL     1      25.891  19.830  32.089  0.00  0.00    +0.000 C 
ATOM      5  C   UNL     1      26.029  18.389  32.201  0.00  0.00    +0.000 C 
ATOM      6  C   UNL     1      26.552  17.642  33.352  0.00  0.00    +0.000 C 
ATOM      7  N   UNL     1      25.957  18.364  34.569  0.00  0.00    +0.000 NA
ATOM      8  C   UNL     1      27.988  17.786  33.521  0.00  0.00    +0.000 C 
ATOM      9  C   UNL     1      26.857  19.608  34.506  0.00  0.00    +0.000 C 
ATOM     10  C   UNL     1      26.178  17.603  35.807  0.00  0.00    +0.000 C 
ATOM     11  C   UNL     1      28.202  19.090  34.291  0.00  0.00    +0.000 C 
ATOM     12  C   UNL     1      26.341  20.369  33.358  0.00  0.00    +0.000 C 
ENDBRANCH   3   4
ENDBRANCH   2   3
BRANCH   2  13
ATOM     13  C   UNL     1      22.831  19.281  30.774  0.00  0.00    +0.000 C 
BRANCH  13  14
ATOM     14  C   UNL     1      22.260  17.921  30.752  0.00  0.00    +0.000 A 
ATOM     15  C   UNL     1      22.872  16.910  30.003  0.00  0.00    +0.000 A 
ATOM     16  C   UNL     1      22.324  15.630  29.944  0.00  0.00    +0.000 A 
ATOM     17  C   UNL     1      21.148  15.346  30.629  0.00  0.00    +0.000 A 
ATOM     18  C   UNL     1      20.521  16.342  31.371  0.00  0.00    +0.000 A 
ATOM     19  C   UNL     1      21.074  17.620  31.425  0.00  0.00    +0.000 A 
ENDBRANCH  13  14
BRANCH  13  20
ATOM     20  C   UNL     1      22.597  20.156  29.667  0.00  0.00    +0.000 C 
BRANCH  20  21
ATOM     21  O   UNL     1      22.379  20.969  28.638  0.00  0.00    +0.000 OA
ATOM     22  H   UNL     1      22.431  21.899  28.922  0.00  0.00    +0.000 HD
ENDBRANCH  20  21
ENDBRANCH  13  20
ENDBRANCH   2  13
TORSDOF 6
ENDMDL
MODEL 4
REMARK VINA RESULT:      -5.1     18.405     20.322
REMARK  Name = Hyoscyamine.pdbqt.pdb
REMARK  6 active torsions:
REMARK  status: ('A' for Active; 'I' for Inactive)
REMARK    1  A    between atoms: C_2  and  O_3
REMARK    2  A    between atoms: C_2  and  C_13
REMARK    3  A    between atoms: O_3  and  C_4
REMARK    4  A    between atoms: C_13  and  C_14
REMARK    5  A    between atoms: C_13  and  C_20
REMARK    6  A    between atoms: C_20  and  O_21
REMARK                            x       y       z     vdW  Elec       q    Type
REMARK                         _______ _______ _______ _____ _____    ______ ____
ROOT
ATOM      1  O   UNL     1      13.344   4.459   3.908  0.00  0.00    +0.000 OA
ATOM      2  C   UNL     1      14.512   4.787   3.738  0.00  0.00    +0.000 C 
ENDROOT
BRANCH   2   3
ATOM      3  O   UNL     1      15.081   5.984   4.063  0.00  0.00    +0.000 OA
BRANCH   3   4
ATOM      4  C   UNL     1      15.356   6.103   5.426  0.00  0.00    +0.000 C 
ATOM      5  C   UNL     1      16.429   5.341   6.039  0.00  0.00    +0.000 C 
ATOM      6  C   UNL     1      16.401   4.679   7.350  0.00  0.00    +0.000 C 
ATOM      7  N   UNL     1      14.998   4.061   7.426  0.00  0.00    +0.000 NA
ATOM      8  C   UNL     1      16.437   5.614   8.462  0.00  0.00    +0.000 C 
ATOM      9  C   UNL     1      14.230   5.370   7.665  0.00  0.00    +0.000 C 
ATOM     10  C   UNL     1      14.874   3.148   8.573  0.00  0.00    +0.000 C 
ATOM     11  C   UNL     1      14.996   6.077   8.682  0.00  0.00    +0.000 C 
ATOM     12  C   UNL     1      14.247   6.042   6.357  0.00  0.00    +0.000 C 
ENDBRANCH   3   4
ENDBRANCH   2   3
BRANCH   2  13
ATOM     13  C   UNL     1      15.516   3.896   3.084  0.00  0.00    +0.000 C 
BRANCH  13  14
ATOM     14  C   UNL     1      15.582   2.439   3.300  0.00  0.00    +0.000 A 
ATOM     15  C   UNL     1      15.931   1.926   4.554  0.00  0.00    +0.000 A 
ATOM     16  C   UNL     1      16.033   0.551   4.763  0.00  0.00    +0.000 A 
ATOM     17  C   UNL     1      15.796  -0.330   3.713  0.00  0.00    +0.000 A 
ATOM     18  C   UNL     1      15.459   0.163   2.457  0.00  0.00    +0.000 A 
ATOM     19  C   UNL     1      15.358   1.539   2.255  0.00  0.00    +0.000 A 
ENDBRANCH  13  14
BRANCH  13  20
ATOM     20  C   UNL     1      16.411   4.507   2.150  0.00  0.00    +0.000 C 
BRANCH  20  21
ATOM     21  O   UNL     1      17.242   5.075   1.283  0.00  0.00    +0.000 OA
ATOM     22  H   UNL     1      17.208   4.614   0.426  0.00  0.00    +0.000 HD
ENDBRANCH  20  21
ENDBRANCH  13  20
ENDBRANCH   2  13
TORSDOF 6
ENDMDL
MODEL 5
REMARK VINA RESULT:      -5.0     33.453     35.296
REMARK  Name = Hyoscyamine.pdbqt.pdb
REMARK  6 active torsions:
REMARK  status: ('A' for Active; 'I' for Inactive)
REMARK    1  A    between atoms: C_2  and  O_3
REMARK    2  A    between atoms: C_2  and  C_13
REMARK    3  A    between atoms: O_3  and  C_4
REMARK    4  A    between atoms: C_13  and  C_14
REMARK    5  A    between atoms: C_13  and  C_20
REMARK    6  A    between atoms: C_20  and  O_21
REMARK                            x       y       z     vdW  Elec       q    Type
REMARK                         _______ _______ _______ _____ _____    ______ ____
ROOT
ATOM      1  O   UNL     1      45.809   1.513  22.763  0.00  0.00    +0.000 OA
ATOM      2  C   UNL     1      45.156   0.833  21.981  0.00  0.00    +0.000 C 
ENDROOT
BRANCH   2   3
ATOM      3  O   UNL     1      44.575   1.252  20.819  0.00  0.00    +0.000 OA
BRANCH   3   4
ATOM      4  C   UNL     1      44.533   2.641  20.702  0.00  0.00    +0.000 C 
ATOM      5  C   UNL     1      43.568   3.424  21.454  0.00  0.00    +0.000 C 
ATOM      6  C   UNL     1      42.807   4.583  20.970  0.00  0.00    +0.000 C 
ATOM      7  N   UNL     1      42.401   4.194  19.542  0.00  0.00    +0.000 NA
ATOM      8  C   UNL     1      43.625   5.770  20.796  0.00  0.00    +0.000 C 
ATOM      9  C   UNL     1      43.785   4.377  18.899  0.00  0.00    +0.000 C 
ATOM     10  C   UNL     1      41.421   5.139  18.985  0.00  0.00    +0.000 C 
ATOM     11  C   UNL     1      44.278   5.645  19.419  0.00  0.00    +0.000 C 
ATOM     12  C   UNL     1      44.558   3.219  19.373  0.00  0.00    +0.000 C 
ENDBRANCH   3   4
ENDBRANCH   2   3
BRANCH   2  13
ATOM     13  C   UNL     1      44.857  -0.610  22.218  0.00  0.00    +0.000 C 
BRANCH  13  14
ATOM     14  C   UNL     1      43.608  -1.098  22.833  0.00  0.00    +0.000 A 
ATOM     15  C   UNL     1      42.703  -0.196  23.404  0.00  0.00    +0.000 A 
ATOM     16  C   UNL     1      41.536  -0.646  24.021  0.00  0.00    +0.000 A 
ATOM     17  C   UNL     1      41.264  -2.008  24.082  0.00  0.00    +0.000 A 
ATOM     18  C   UNL     1      42.158  -2.919  23.529  0.00  0.00    +0.000 A 
ATOM     19  C   UNL     1      43.323  -2.463  22.914  0.00  0.00    +0.000 A 
ENDBRANCH  13  14
BRANCH  13  20
ATOM     20  C   UNL     1      45.825  -1.556  21.754  0.00  0.00    +0.000 C 
BRANCH  20  21
ATOM     21  O   UNL     1      46.724  -2.434  21.322  0.00  0.00    +0.000 OA
ATOM     22  H   UNL     1      46.615  -3.286  21.780  0.00  0.00    +0.000 HD
ENDBRANCH  20  21
ENDBRANCH  13  20
ENDBRANCH   2  13
TORSDOF 6
ENDMDL
MODEL 6
REMARK VINA RESULT:      -5.0     26.002     27.515
REMARK  Name = Hyoscyamine.pdbqt.pdb
REMARK  6 active torsions:
REMARK  status: ('A' for Active; 'I' for Inactive)
REMARK    1  A    between atoms: C_2  and  O_3
REMARK    2  A    between atoms: C_2  and  C_13
REMARK    3  A    between atoms: O_3  and  C_4
REMARK    4  A    between atoms: C_13  and  C_14
REMARK    5  A    between atoms: C_13  and  C_20
REMARK    6  A    between atoms: C_20  and  O_21
REMARK                            x       y       z     vdW  Elec       q    Type
REMARK                         _______ _______ _______ _____ _____    ______ ____
ROOT
ATOM      1  O   UNL     1      36.424  11.155  19.234  0.00  0.00    +0.000 OA
ATOM      2  C   UNL     1      37.480  10.619  19.548  0.00  0.00    +0.000 C 
ENDROOT
BRANCH   2   3
ATOM      3  O   UNL     1      38.739  11.081  19.295  0.00  0.00    +0.000 OA
BRANCH   3   4
ATOM      4  C   UNL     1      39.095  12.161  20.104  0.00  0.00    +0.000 C 
ATOM      5  C   UNL     1      40.391  12.207  20.759  0.00  0.00    +0.000 C 
ATOM      6  C   UNL     1      40.670  12.665  22.126  0.00  0.00    +0.000 C 
ATOM      7  N   UNL     1      39.509  12.098  22.955  0.00  0.00    +0.000 NA
ATOM      8  C   UNL     1      40.547  14.104  22.281  0.00  0.00    +0.000 C 
ATOM      9  C   UNL     1      38.431  13.075  22.459  0.00  0.00    +0.000 C 
ATOM     10  C   UNL     1      39.752  12.252  24.397  0.00  0.00    +0.000 C 
ATOM     11  C   UNL     1      39.061  14.387  22.508  0.00  0.00    +0.000 C 
ATOM     12  C   UNL     1      38.139  12.624  21.090  0.00  0.00    +0.000 C 
ENDBRANCH   3   4
ENDBRANCH   2   3
BRANCH   2  13
ATOM     13  C   UNL     1      37.543   9.304  20.252  0.00  0.00    +0.000 C 
BRANCH  13  14
ATOM     14  C   UNL     1      38.750   8.793  20.929  0.00  0.00    +0.000 A 
ATOM     15  C   UNL     1      39.784   8.212  20.186  0.00  0.00    +0.000 A 
ATOM     16  C   UNL     1      40.914   7.693  20.816  0.00  0.00    +0.000 A 
ATOM     17  C   UNL     1      41.020   7.739  22.202  0.00  0.00    +0.000 A 
ATOM     18  C   UNL     1      39.997   8.304  22.956  0.00  0.00    +0.000 A 
ATOM     19  C   UNL     1      38.869   8.822  22.320  0.00  0.00    +0.000 A 
ENDBRANCH  13  14
BRANCH  13  20
ATOM     20  C   UNL     1      36.332   8.545  20.313  0.00  0.00    +0.000 C 
BRANCH  20  21
ATOM     21  O   UNL     1      35.207   7.840  20.370  0.00  0.00    +0.000 OA
ATOM     22  H   UNL     1      34.451   8.420  20.572  0.00  0.00    +0.000 HD
ENDBRANCH  20  21
ENDBRANCH  13  20
ENDBRANCH   2  13
TORSDOF 6
ENDMDL
MODEL 7
REMARK VINA RESULT:      -5.0      1.702      2.484
REMARK  Name = Hyoscyamine.pdbqt.pdb
REMARK  6 active torsions:
REMARK  status: ('A' for Active; 'I' for Inactive)
REMARK    1  A    between atoms: C_2  and  O_3
REMARK    2  A    between atoms: C_2  and  C_13
REMARK    3  A    between atoms: O_3  and  C_4
REMARK    4  A    between atoms: C_13  and  C_14
REMARK    5  A    between atoms: C_13  and  C_20
REMARK    6  A    between atoms: C_20  and  O_21
REMARK                            x       y       z     vdW  Elec       q    Type
REMARK                         _______ _______ _______ _____ _____    ______ ____
ROOT
ATOM      1  O   UNL     1      21.383  22.979   1.708  0.00  0.00    +0.000 OA
ATOM      2  C   UNL     1      22.434  22.472   1.339  0.00  0.00    +0.000 C 
ENDROOT
BRANCH   2   3
ATOM      3  O   UNL     1      23.571  23.126   0.961  0.00  0.00    +0.000 OA
BRANCH   3   4
ATOM      4  C   UNL     1      24.148  23.857   2.000  0.00  0.00    +0.000 C 
ATOM      5  C   UNL     1      23.324  24.489   3.014  0.00  0.00    +0.000 C 
ATOM      6  C   UNL     1      23.521  25.820   3.605  0.00  0.00    +0.000 C 
ATOM      7  N   UNL     1      23.930  26.700   2.416  0.00  0.00    +0.000 NA
ATOM      8  C   UNL     1      24.662  25.882   4.502  0.00  0.00    +0.000 C 
ATOM      9  C   UNL     1      25.359  26.156   2.265  0.00  0.00    +0.000 C 
ATOM     10  C   UNL     1      23.933  28.125   2.778  0.00  0.00    +0.000 C 
ATOM     11  C   UNL     1      25.891  26.110   3.620  0.00  0.00    +0.000 C 
ATOM     12  C   UNL     1      25.177  24.824   1.669  0.00  0.00    +0.000 C 
ENDBRANCH   3   4
ENDBRANCH   2   3
BRANCH   2  13
ATOM     13  C   UNL     1      22.619  20.996   1.206  0.00  0.00    +0.000 C 
BRANCH  13  14
ATOM     14  C   UNL     1      21.923  20.004   2.047  0.00  0.00    +0.000 A 
ATOM     15  C   UNL     1      20.639  19.566   1.706  0.00  0.00    +0.000 A 
ATOM     16  C   UNL     1      19.955  18.656   2.511  0.00  0.00    +0.000 A 
ATOM     17  C   UNL     1      20.545  18.179   3.677  0.00  0.00    +0.000 A 
ATOM     18  C   UNL     1      21.817  18.612   4.036  0.00  0.00    +0.000 A 
ATOM     19  C   UNL     1      22.496  19.522   3.227  0.00  0.00    +0.000 A 
ENDBRANCH  13  14
BRANCH  13  20
ATOM     20  C   UNL     1      23.474  20.543   0.152  0.00  0.00    +0.000 C 
BRANCH  20  21
ATOM     21  O   UNL     1      24.268  20.124  -0.827  0.00  0.00    +0.000 OA
ATOM     22  H   UNL     1      25.145  19.886  -0.477  0.00  0.00    +0.000 HD
ENDBRANCH  20  21
ENDBRANCH  13  20
ENDBRANCH   2  13
TORSDOF 6
ENDMDL
MODEL 8
REMARK VINA RESULT:      -4.8     19.342     22.195
REMARK  Name = Hyoscyamine.pdbqt.pdb
REMARK  6 active torsions:
REMARK  status: ('A' for Active; 'I' for Inactive)
REMARK    1  A    between atoms: C_2  and  O_3
REMARK    2  A    between atoms: C_2  and  C_13
REMARK    3  A    between atoms: O_3  and  C_4
REMARK    4  A    between atoms: C_13  and  C_14
REMARK    5  A    between atoms: C_13  and  C_20
REMARK    6  A    between atoms: C_20  and  O_21
REMARK                            x       y       z     vdW  Elec       q    Type
REMARK                         _______ _______ _______ _____ _____    ______ ____
ROOT
ATOM      1  O   UNL     1      30.080  35.725  18.416  0.00  0.00    +0.000 OA
ATOM      2  C   UNL     1      29.885  34.516  18.446  0.00  0.00    +0.000 C 
ENDROOT
BRANCH   2   3
ATOM      3  O   UNL     1      30.829  33.537  18.557  0.00  0.00    +0.000 OA
BRANCH   3   4
ATOM      4  C   UNL     1      31.415  33.487  19.822  0.00  0.00    +0.000 C 
ATOM      5  C   UNL     1      32.825  33.785  20.002  0.00  0.00    +0.000 C 
ATOM      6  C   UNL     1      33.768  33.080  20.880  0.00  0.00    +0.000 C 
ATOM      7  N   UNL     1      33.402  31.599  20.710  0.00  0.00    +0.000 NA
ATOM      8  C   UNL     1      33.538  33.343  22.290  0.00  0.00    +0.000 C 
ATOM      9  C   UNL     1      32.102  31.633  21.529  0.00  0.00    +0.000 C 
ATOM     10  C   UNL     1      34.406  30.723  21.332  0.00  0.00    +0.000 C 
ATOM     11  C   UNL     1      32.434  32.382  22.733  0.00  0.00    +0.000 C 
ATOM     12  C   UNL     1      31.146  32.334  20.657  0.00  0.00    +0.000 C 
ENDBRANCH   3   4
ENDBRANCH   2   3
BRANCH   2  13
ATOM     13  C   UNL     1      28.525  33.913  18.321  0.00  0.00    +0.000 C 
BRANCH  13  14
ATOM     14  C   UNL     1      27.416  34.189  19.254  0.00  0.00    +0.000 A 
ATOM     15  C   UNL     1      26.480  35.187  18.961  0.00  0.00    +0.000 A 
ATOM     16  C   UNL     1      25.448  35.484  19.851  0.00  0.00    +0.000 A 
ATOM     17  C   UNL     1      25.346  34.790  21.052  0.00  0.00    +0.000 A 
ATOM     18  C   UNL     1      26.275  33.803  21.363  0.00  0.00    +0.000 A 
ATOM     19  C   UNL     1      27.304  33.511  20.470  0.00  0.00    +0.000 A 
ENDBRANCH  13  14
BRANCH  13  20
ATOM     20  C   UNL     1      28.292  33.074  17.185  0.00  0.00    +0.000 C 
BRANCH  20  21
ATOM     21  O   UNL     1      28.076  32.295  16.131  0.00  0.00    +0.000 OA
ATOM     22  H   UNL     1      27.237  32.532  15.697  0.00  0.00    +0.000 HD
ENDBRANCH  20  21
ENDBRANCH  13  20
ENDBRANCH   2  13
TORSDOF 6
ENDMDL
MODEL 9
REMARK VINA RESULT:      -4.7     17.118     18.673
REMARK  Name = Hyoscyamine.pdbqt.pdb
REMARK  6 active torsions:
REMARK  status: ('A' for Active; 'I' for Inactive)
REMARK    1  A    between atoms: C_2  and  O_3
REMARK    2  A    between atoms: C_2  and  C_13
REMARK    3  A    between atoms: O_3  and  C_4
REMARK    4  A    between atoms: C_13  and  C_14
REMARK    5  A    between atoms: C_13  and  C_20
REMARK    6  A    between atoms: C_20  and  O_21
REMARK                            x       y       z     vdW  Elec       q    Type
REMARK                         _______ _______ _______ _____ _____    ______ ____
ROOT
ATOM      1  O   UNL     1      16.039   2.941   4.206  0.00  0.00    +0.000 OA
ATOM      2  C   UNL     1      15.593   4.046   4.492  0.00  0.00    +0.000 C 
ENDROOT
BRANCH   2   3
ATOM      3  O   UNL     1      14.429   4.599   4.044  0.00  0.00    +0.000 OA
BRANCH   3   4
ATOM      4  C   UNL     1      14.629   5.548   3.041  0.00  0.00    +0.000 C 
ATOM      5  C   UNL     1      13.935   6.824   3.073  0.00  0.00    +0.000 C 
ATOM      6  C   UNL     1      13.341   7.531   1.931  0.00  0.00    +0.000 C 
ATOM      7  N   UNL     1      12.682   6.420   1.103  0.00  0.00    +0.000 NA
ATOM      8  C   UNL     1      14.333   8.100   1.035  0.00  0.00    +0.000 C 
ATOM      9  C   UNL     1      13.977   5.824   0.527  0.00  0.00    +0.000 C 
ATOM     10  C   UNL     1      11.827   6.974   0.043  0.00  0.00    +0.000 C 
ATOM     11  C   UNL     1      14.760   6.973   0.094  0.00  0.00    +0.000 C 
ATOM     12  C   UNL     1      14.579   5.108   1.661  0.00  0.00    +0.000 C 
ENDBRANCH   3   4
ENDBRANCH   2   3
BRANCH   2  13
ATOM     13  C   UNL     1      16.313   5.004   5.383  0.00  0.00    +0.000 C 
BRANCH  13  14
ATOM     14  C   UNL     1      15.752   5.535   6.639  0.00  0.00    +0.000 A 
ATOM     15  C   UNL     1      14.974   6.698   6.629  0.00  0.00    +0.000 A 
ATOM     16  C   UNL     1      14.468   7.232   7.813  0.00  0.00    +0.000 A 
ATOM     17  C   UNL     1      14.742   6.612   9.027  0.00  0.00    +0.000 A 
ATOM     18  C   UNL     1      15.523   5.461   9.057  0.00  0.00    +0.000 A 
ATOM     19  C   UNL     1      16.027   4.932   7.869  0.00  0.00    +0.000 A 
ENDBRANCH  13  14
BRANCH  13  20
ATOM     20  C   UNL     1      17.647   5.359   5.006  0.00  0.00    +0.000 C 
BRANCH  20  21
ATOM     21  O   UNL     1      18.886   5.689   4.656  0.00  0.00    +0.000 OA
ATOM     22  H   UNL     1      18.979   6.657   4.605  0.00  0.00    +0.000 HD
ENDBRANCH  20  21
ENDBRANCH  13  20
ENDBRANCH   2  13
TORSDOF 6
ENDMDL
