MODEL 1
REMARK VINA RESULT:      -7.7      0.000      0.000
REMARK  Name = 
REMARK  6 active torsions:
REMARK  status: ('A' for Active; 'I' for Inactive)
REMARK    1  A    between atoms: O_3  and  C_16
REMARK    2  A    between atoms: O_4  and  C_17
REMARK    3  A    between atoms: O_4  and  C_22
REMARK    4  A    between atoms: O_5  and  C_19
REMARK    5  A    between atoms: O_5  and  C_23
REMARK    6  A    between atoms: O_6  and  C_21
REMARK                            x       y       z     vdW  Elec       q    Type
REMARK                         _______ _______ _______ _____ _____    ______ ____
ROOT
ATOM      1  O   UNL     1      42.182  -4.383  13.527  0.00  0.00    +0.000 OA
ATOM      2  O   UNL     1      45.519  -2.316  13.953  0.00  0.00    +0.000 OA
ATOM      3  C   UNL     1      44.428  -4.467  14.418  0.00  0.00    +0.000 C 
ATOM      4  C   UNL     1      43.063  -3.775  14.506  0.00  0.00    +0.000 C 
ATOM      5  C   UNL     1      44.351  -4.993  13.026  0.00  0.00    +0.000 A 
ATOM      6  C   UNL     1      45.553  -3.506  14.739  0.00  0.00    +0.000 C 
ATOM      7  C   UNL     1      43.119  -2.279  14.286  0.00  0.00    +0.000 A 
ATOM      8  C   UNL     1      43.031  -4.943  12.604  0.00  0.00    +0.000 A 
ATOM      9  C   UNL     1      44.334  -1.630  14.006  0.00  0.00    +0.000 A 
ATOM     10  C   UNL     1      45.335  -5.533  12.215  0.00  0.00    +0.000 A 
ATOM     11  C   UNL     1      41.932  -1.528  14.359  0.00  0.00    +0.000 A 
ATOM     12  C   UNL     1      42.657  -5.431  11.368  0.00  0.00    +0.000 A 
ATOM     13  C   UNL     1      44.345  -0.251  13.752  0.00  0.00    +0.000 A 
ATOM     14  C   UNL     1      44.970  -6.020  10.951  0.00  0.00    +0.000 A 
ATOM     15  C   UNL     1      43.633  -5.973  10.522  0.00  0.00    +0.000 A 
ATOM     16  C   UNL     1      41.950  -0.151  14.161  0.00  0.00    +0.000 A 
ATOM     17  C   UNL     1      43.153   0.473  13.867  0.00  0.00    +0.000 A 
ENDROOT
BRANCH  12  18
ATOM     18  O   UNL     1      41.350  -5.382  10.971  0.00  0.00    +0.000 OA
ATOM     19  H   UNL     1      41.018  -6.292  11.078  0.00  0.00    +0.000 HD
ENDBRANCH  12  18
BRANCH  13  20
ATOM     20  O   UNL     1      45.451   0.508  13.451  0.00  0.00    +0.000 OA
ATOM     21  C   UNL     1      45.784   0.542  12.065  0.00  0.00    +0.000 C 
ENDBRANCH  13  20
BRANCH  15  22
ATOM     22  O   UNL     1      43.161  -6.425   9.314  0.00  0.00    +0.000 OA
ATOM     23  C   UNL     1      44.041  -7.236   8.545  0.00  0.00    +0.000 C 
ENDBRANCH  15  22
BRANCH  17  24
ATOM     24  O   UNL     1      43.149   1.829  13.675  0.00  0.00    +0.000 OA
ATOM     25  H   UNL     1      42.231   2.105  13.858  0.00  0.00    +0.000 HD
ENDBRANCH  17  24
TORSDOF 4
ENDMDL
MODEL 2
REMARK VINA RESULT:      -6.7      1.686      2.385
REMARK  Name = 
REMARK  6 active torsions:
REMARK  status: ('A' for Active; 'I' for Inactive)
REMARK    1  A    between atoms: O_3  and  C_16
REMARK    2  A    between atoms: O_4  and  C_17
REMARK    3  A    between atoms: O_4  and  C_22
REMARK    4  A    between atoms: O_5  and  C_19
REMARK    5  A    between atoms: O_5  and  C_23
REMARK    6  A    between atoms: O_6  and  C_21
REMARK                            x       y       z     vdW  Elec       q    Type
REMARK                         _______ _______ _______ _____ _____    ______ ____
ROOT
ATOM      1  O   UNL     1      44.056  -4.274  14.196  0.00  0.00    +0.000 OA
ATOM      2  O   UNL     1      46.775  -3.023  11.623  0.00  0.00    +0.000 OA
ATOM      3  C   UNL     1      46.207  -4.796  13.224  0.00  0.00    +0.000 C 
ATOM      4  C   UNL     1      45.420  -3.796  14.078  0.00  0.00    +0.000 C 
ATOM      5  C   UNL     1      45.081  -5.428  12.480  0.00  0.00    +0.000 A 
ATOM      6  C   UNL     1      47.278  -4.101  12.410  0.00  0.00    +0.000 C 
ATOM      7  C   UNL     1      45.423  -2.386  13.529  0.00  0.00    +0.000 A 
ATOM      8  C   UNL     1      43.892  -5.110  13.119  0.00  0.00    +0.000 A 
ATOM      9  C   UNL     1      46.082  -2.074  12.328  0.00  0.00    +0.000 A 
ATOM     10  C   UNL     1      45.092  -6.265  11.377  0.00  0.00    +0.000 A 
ATOM     11  C   UNL     1      44.748  -1.372  14.234  0.00  0.00    +0.000 A 
ATOM     12  C   UNL     1      42.687  -5.619  12.679  0.00  0.00    +0.000 A 
ATOM     13  C   UNL     1      46.020  -0.771  11.816  0.00  0.00    +0.000 A 
ATOM     14  C   UNL     1      43.872  -6.778  10.911  0.00  0.00    +0.000 A 
ATOM     15  C   UNL     1      42.666  -6.460  11.559  0.00  0.00    +0.000 A 
ATOM     16  C   UNL     1      44.732  -0.065  13.754  0.00  0.00    +0.000 A 
ATOM     17  C   UNL     1      45.371   0.223  12.558  0.00  0.00    +0.000 A 
ENDROOT
BRANCH  12  18
ATOM     18  O   UNL     1      41.525  -5.302  13.326  0.00  0.00    +0.000 OA
ATOM     19  H   UNL     1      41.337  -4.379  13.073  0.00  0.00    +0.000 HD
ENDBRANCH  12  18
BRANCH  13  20
ATOM     20  O   UNL     1      46.602  -0.329  10.651  0.00  0.00    +0.000 OA
ATOM     21  C   UNL     1      47.982   0.009  10.773  0.00  0.00    +0.000 C 
ENDBRANCH  13  20
BRANCH  15  22
ATOM     22  O   UNL     1      41.419  -6.907  11.198  0.00  0.00    +0.000 OA
ATOM     23  C   UNL     1      40.848  -6.335  10.027  0.00  0.00    +0.000 C 
ENDBRANCH  15  22
BRANCH  17  24
ATOM     24  O   UNL     1      45.343   1.515  12.104  0.00  0.00    +0.000 OA
ATOM     25  H   UNL     1      45.733   1.473  11.210  0.00  0.00    +0.000 HD
ENDBRANCH  17  24
TORSDOF 4
ENDMDL
MODEL 3
REMARK VINA RESULT:      -6.3     20.037     22.680
REMARK  Name = 
REMARK  6 active torsions:
REMARK  status: ('A' for Active; 'I' for Inactive)
REMARK    1  A    between atoms: O_3  and  C_16
REMARK    2  A    between atoms: O_4  and  C_17
REMARK    3  A    between atoms: O_4  and  C_22
REMARK    4  A    between atoms: O_5  and  C_19
REMARK    5  A    between atoms: O_5  and  C_23
REMARK    6  A    between atoms: O_6  and  C_21
REMARK                            x       y       z     vdW  Elec       q    Type
REMARK                         _______ _______ _______ _____ _____    ______ ____
ROOT
ATOM      1  O   UNL     1      28.907  -2.190  29.120  0.00  0.00    +0.000 OA
ATOM      2  O   UNL     1      27.465  -5.114  26.895  0.00  0.00    +0.000 OA
ATOM      3  C   UNL     1      27.994  -4.427  29.193  0.00  0.00    +0.000 C 
ATOM      4  C   UNL     1      29.145  -3.552  28.684  0.00  0.00    +0.000 C 
ATOM      5  C   UNL     1      26.947  -3.383  29.369  0.00  0.00    +0.000 A 
ATOM      6  C   UNL     1      27.697  -5.558  28.231  0.00  0.00    +0.000 C 
ATOM      7  C   UNL     1      29.323  -3.586  27.181  0.00  0.00    +0.000 A 
ATOM      8  C   UNL     1      27.555  -2.136  29.350  0.00  0.00    +0.000 A 
ATOM      9  C   UNL     1      28.469  -4.347  26.365  0.00  0.00    +0.000 A 
ATOM     10  C   UNL     1      25.586  -3.505  29.594  0.00  0.00    +0.000 A 
ATOM     11  C   UNL     1      30.358  -2.836  26.594  0.00  0.00    +0.000 A 
ATOM     12  C   UNL     1      26.826  -0.983  29.558  0.00  0.00    +0.000 A 
ATOM     13  C   UNL     1      28.623  -4.313  24.972  0.00  0.00    +0.000 A 
ATOM     14  C   UNL     1      24.831  -2.340  29.792  0.00  0.00    +0.000 A 
ATOM     15  C   UNL     1      25.445  -1.076  29.777  0.00  0.00    +0.000 A 
ATOM     16  C   UNL     1      30.547  -2.845  25.215  0.00  0.00    +0.000 A 
ATOM     17  C   UNL     1      29.685  -3.586  24.421  0.00  0.00    +0.000 A 
ENDROOT
BRANCH  12  18
ATOM     18  O   UNL     1      27.441   0.237  29.546  0.00  0.00    +0.000 OA
ATOM     19  H   UNL     1      27.861   0.300  28.668  0.00  0.00    +0.000 HD
ENDBRANCH  12  18
BRANCH  13  20
ATOM     20  O   UNL     1      27.856  -4.992  24.055  0.00  0.00    +0.000 OA
ATOM     21  C   UNL     1      26.662  -4.314  23.669  0.00  0.00    +0.000 C 
ENDBRANCH  13  20
BRANCH  15  22
ATOM     22  O   UNL     1      24.810   0.128  29.966  0.00  0.00    +0.000 OA
ATOM     23  C   UNL     1      24.479   0.473  31.307  0.00  0.00    +0.000 C 
ENDBRANCH  15  22
BRANCH  17  24
ATOM     24  O   UNL     1      29.887  -3.581  23.067  0.00  0.00    +0.000 OA
ATOM     25  H   UNL     1      28.991  -3.612  22.681  0.00  0.00    +0.000 HD
ENDBRANCH  17  24
TORSDOF 4
ENDMDL
MODEL 4
REMARK VINA RESULT:      -6.2     33.321     34.997
REMARK  Name = 
REMARK  6 active torsions:
REMARK  status: ('A' for Active; 'I' for Inactive)
REMARK    1  A    between atoms: O_3  and  C_16
REMARK    2  A    between atoms: O_4  and  C_17
REMARK    3  A    between atoms: O_4  and  C_22
REMARK    4  A    between atoms: O_5  and  C_19
REMARK    5  A    between atoms: O_5  and  C_23
REMARK    6  A    between atoms: O_6  and  C_21
REMARK                            x       y       z     vdW  Elec       q    Type
REMARK                         _______ _______ _______ _____ _____    ______ ____
ROOT
ATOM      1  O   UNL     1      21.820  15.820  30.290  0.00  0.00    +0.000 OA
ATOM      2  O   UNL     1      22.140  18.445  33.222  0.00  0.00    +0.000 OA
ATOM      3  C   UNL     1      20.563  17.316  31.714  0.00  0.00    +0.000 C 
ATOM      4  C   UNL     1      21.643  17.219  30.631  0.00  0.00    +0.000 C 
ATOM      5  C   UNL     1      20.650  15.939  32.276  0.00  0.00    +0.000 A 
ATOM      6  C   UNL     1      20.831  18.472  32.655  0.00  0.00    +0.000 C 
ATOM      7  C   UNL     1      22.972  17.821  31.034  0.00  0.00    +0.000 A 
ATOM      8  C   UNL     1      21.353  15.139  31.388  0.00  0.00    +0.000 A 
ATOM      9  C   UNL     1      23.158  18.385  32.307  0.00  0.00    +0.000 A 
ATOM     10  C   UNL     1      20.108  15.406  33.434  0.00  0.00    +0.000 A 
ATOM     11  C   UNL     1      24.039  17.808  30.117  0.00  0.00    +0.000 A 
ATOM     12  C   UNL     1      21.530  13.792  31.626  0.00  0.00    +0.000 A 
ATOM     13  C   UNL     1      24.417  18.884  32.671  0.00  0.00    +0.000 A 
ATOM     14  C   UNL     1      20.292  14.041  33.695  0.00  0.00    +0.000 A 
ATOM     15  C   UNL     1      21.001  13.228  32.794  0.00  0.00    +0.000 A 
ATOM     16  C   UNL     1      25.273  18.352  30.459  0.00  0.00    +0.000 A 
ATOM     17  C   UNL     1      25.448  18.889  31.725  0.00  0.00    +0.000 A 
ENDROOT
BRANCH  12  18
ATOM     18  O   UNL     1      22.217  13.016  30.735  0.00  0.00    +0.000 OA
ATOM     19  H   UNL     1      23.154  13.255  30.860  0.00  0.00    +0.000 HD
ENDBRANCH  12  18
BRANCH  13  20
ATOM     20  O   UNL     1      24.745  19.447  33.882  0.00  0.00    +0.000 OA
ATOM     21  C   UNL     1      25.100  18.507  34.894  0.00  0.00    +0.000 C 
ENDBRANCH  13  20
BRANCH  15  22
ATOM     22  O   UNL     1      21.236  11.882  32.941  0.00  0.00    +0.000 OA
ATOM     23  C   UNL     1      22.015  11.488  34.065  0.00  0.00    +0.000 C 
ENDBRANCH  15  22
BRANCH  17  24
ATOM     24  O   UNL     1      26.670  19.419  32.041  0.00  0.00    +0.000 OA
ATOM     25  H   UNL     1      26.499  20.002  32.805  0.00  0.00    +0.000 HD
ENDBRANCH  17  24
TORSDOF 4
ENDMDL
MODEL 5
REMARK VINA RESULT:      -6.2     31.714     34.284
REMARK  Name = 
REMARK  6 active torsions:
REMARK  status: ('A' for Active; 'I' for Inactive)
REMARK    1  A    between atoms: O_3  and  C_16
REMARK    2  A    between atoms: O_4  and  C_17
REMARK    3  A    between atoms: O_4  and  C_22
REMARK    4  A    between atoms: O_5  and  C_19
REMARK    5  A    between atoms: O_5  and  C_23
REMARK    6  A    between atoms: O_6  and  C_21
REMARK                            x       y       z     vdW  Elec       q    Type
REMARK                         _______ _______ _______ _____ _____    ______ ____
ROOT
ATOM      1  O   UNL     1      14.364   5.401  26.219  0.00  0.00    +0.000 OA
ATOM      2  O   UNL     1      13.256   6.115  29.940  0.00  0.00    +0.000 OA
ATOM      3  C   UNL     1      12.878   4.678  27.984  0.00  0.00    +0.000 C 
ATOM      4  C   UNL     1      13.252   5.830  27.045  0.00  0.00    +0.000 C 
ATOM      5  C   UNL     1      14.168   3.934  27.991  0.00  0.00    +0.000 A 
ATOM      6  C   UNL     1      12.364   5.196  29.311  0.00  0.00    +0.000 C 
ATOM      7  C   UNL     1      13.612   7.114  27.762  0.00  0.00    +0.000 A 
ATOM      8  C   UNL     1      14.945   4.381  26.932  0.00  0.00    +0.000 A 
ATOM      9  C   UNL     1      13.613   7.187  29.165  0.00  0.00    +0.000 A 
ATOM     10  C   UNL     1      14.608   2.906  28.808  0.00  0.00    +0.000 A 
ATOM     11  C   UNL     1      13.958   8.250  27.007  0.00  0.00    +0.000 A 
ATOM     12  C   UNL     1      16.174   3.815  26.658  0.00  0.00    +0.000 A 
ATOM     13  C   UNL     1      14.005   8.373  29.801  0.00  0.00    +0.000 A 
ATOM     14  C   UNL     1      15.860   2.331  28.550  0.00  0.00    +0.000 A 
ATOM     15  C   UNL     1      16.648   2.780  27.476  0.00  0.00    +0.000 A 
ATOM     16  C   UNL     1      14.295   9.444  27.637  0.00  0.00    +0.000 A 
ATOM     17  C   UNL     1      14.309   9.496  29.023  0.00  0.00    +0.000 A 
ENDROOT
BRANCH  12  18
ATOM     18  O   UNL     1      16.923   4.261  25.606  0.00  0.00    +0.000 OA
ATOM     19  H   UNL     1      17.779   3.803  25.692  0.00  0.00    +0.000 HD
ENDBRANCH  12  18
BRANCH  13  20
ATOM     20  O   UNL     1      14.067   8.582  31.159  0.00  0.00    +0.000 OA
ATOM     21  C   UNL     1      12.810   8.868  31.769  0.00  0.00    +0.000 C 
ENDBRANCH  13  20
BRANCH  15  22
ATOM     22  O   UNL     1      17.882   2.289  27.124  0.00  0.00    +0.000 OA
ATOM     23  C   UNL     1      17.905   1.258  26.144  0.00  0.00    +0.000 C 
ENDBRANCH  15  22
BRANCH  17  24
ATOM     24  O   UNL     1      14.644  10.680  29.623  0.00  0.00    +0.000 OA
ATOM     25  H   UNL     1      14.358  10.579  30.551  0.00  0.00    +0.000 HD
ENDBRANCH  17  24
TORSDOF 4
ENDMDL
MODEL 6
REMARK VINA RESULT:      -5.9     32.727     35.339
REMARK  Name = 
REMARK  6 active torsions:
REMARK  status: ('A' for Active; 'I' for Inactive)
REMARK    1  A    between atoms: O_3  and  C_16
REMARK    2  A    between atoms: O_4  and  C_17
REMARK    3  A    between atoms: O_4  and  C_22
REMARK    4  A    between atoms: O_5  and  C_19
REMARK    5  A    between atoms: O_5  and  C_23
REMARK    6  A    between atoms: O_6  and  C_21
REMARK                            x       y       z     vdW  Elec       q    Type
REMARK                         _______ _______ _______ _____ _____    ______ ____
ROOT
ATOM      1  O   UNL     1      20.885  17.713  32.415  0.00  0.00    +0.000 OA
ATOM      2  O   UNL     1      21.850  14.317  30.647  0.00  0.00    +0.000 OA
ATOM      3  C   UNL     1      21.234  16.665  30.265  0.00  0.00    +0.000 C 
ATOM      4  C   UNL     1      20.387  16.668  31.541  0.00  0.00    +0.000 C 
ATOM      5  C   UNL     1      22.470  17.315  30.784  0.00  0.00    +0.000 A 
ATOM      6  C   UNL     1      21.368  15.267  29.697  0.00  0.00    +0.000 C 
ATOM      7  C   UNL     1      20.381  15.345  32.277  0.00  0.00    +0.000 A 
ATOM      8  C   UNL     1      22.177  17.920  31.998  0.00  0.00    +0.000 A 
ATOM      9  C   UNL     1      21.121  14.248  31.805  0.00  0.00    +0.000 A 
ATOM     10  C   UNL     1      23.729  17.431  30.220  0.00  0.00    +0.000 A 
ATOM     11  C   UNL     1      19.624  15.217  33.456  0.00  0.00    +0.000 A 
ATOM     12  C   UNL     1      23.126  18.656  32.677  0.00  0.00    +0.000 A 
ATOM     13  C   UNL     1      21.141  13.053  32.538  0.00  0.00    +0.000 A 
ATOM     14  C   UNL     1      24.708  18.164  30.907  0.00  0.00    +0.000 A 
ATOM     15  C   UNL     1      24.412  18.781  32.134  0.00  0.00    +0.000 A 
ATOM     16  C   UNL     1      19.599  14.013  34.155  0.00  0.00    +0.000 A 
ATOM     17  C   UNL     1      20.349  12.946  33.688  0.00  0.00    +0.000 A 
ENDROOT
BRANCH  12  18
ATOM     18  O   UNL     1      22.819  19.253  33.867  0.00  0.00    +0.000 OA
ATOM     19  H   UNL     1      21.844  19.258  33.904  0.00  0.00    +0.000 HD
ENDBRANCH  12  18
BRANCH  13  20
ATOM     20  O   UNL     1      21.829  11.910  32.206  0.00  0.00    +0.000 OA
ATOM     21  C   UNL     1      23.113  11.796  32.816  0.00  0.00    +0.000 C 
ENDBRANCH  13  20
BRANCH  15  22
ATOM     22  O   UNL     1      25.285  19.527  32.889  0.00  0.00    +0.000 OA
ATOM     23  C   UNL     1      25.930  20.613  32.234  0.00  0.00    +0.000 C 
ENDBRANCH  15  22
BRANCH  17  24
ATOM     24  O   UNL     1      20.312  11.771  34.391  0.00  0.00    +0.000 OA
ATOM     25  H   UNL     1      19.581  11.884  35.028  0.00  0.00    +0.000 HD
ENDBRANCH  17  24
TORSDOF 4
ENDMDL
MODEL 7
REMARK VINA RESULT:      -5.6     12.929     17.283
REMARK  Name = 
REMARK  6 active torsions:
REMARK  status: ('A' for Active; 'I' for Inactive)
REMARK    1  A    between atoms: O_3  and  C_16
REMARK    2  A    between atoms: O_4  and  C_17
REMARK    3  A    between atoms: O_4  and  C_22
REMARK    4  A    between atoms: O_5  and  C_19
REMARK    5  A    between atoms: O_5  and  C_23
REMARK    6  A    between atoms: O_6  and  C_21
REMARK                            x       y       z     vdW  Elec       q    Type
REMARK                         _______ _______ _______ _____ _____    ______ ____
ROOT
ATOM      1  O   UNL     1      39.920   9.538  21.939  0.00  0.00    +0.000 OA
ATOM      2  O   UNL     1      38.167  10.360  18.499  0.00  0.00    +0.000 OA
ATOM      3  C   UNL     1      37.779   9.923  20.885  0.00  0.00    +0.000 C 
ATOM      4  C   UNL     1      39.013   9.016  20.936  0.00  0.00    +0.000 C 
ATOM      5  C   UNL     1      38.366  11.172  21.447  0.00  0.00    +0.000 A 
ATOM      6  C   UNL     1      37.205   9.991  19.485  0.00  0.00    +0.000 C 
ATOM      7  C   UNL     1      39.733   8.884  19.611  0.00  0.00    +0.000 A 
ATOM      8  C   UNL     1      39.570  10.860  22.061  0.00  0.00    +0.000 A 
ATOM      9  C   UNL     1      39.287   9.572  18.470  0.00  0.00    +0.000 A 
ATOM     10  C   UNL     1      37.866  12.463  21.481  0.00  0.00    +0.000 A 
ATOM     11  C   UNL     1      40.872   8.063  19.526  0.00  0.00    +0.000 A 
ATOM     12  C   UNL     1      40.302  11.822  22.727  0.00  0.00    +0.000 A 
ATOM     13  C   UNL     1      40.008   9.475  17.271  0.00  0.00    +0.000 A 
ATOM     14  C   UNL     1      38.607  13.453  22.142  0.00  0.00    +0.000 A 
ATOM     15  C   UNL     1      39.825  13.139  22.768  0.00  0.00    +0.000 A 
ATOM     16  C   UNL     1      41.557   7.923  18.322  0.00  0.00    +0.000 A 
ATOM     17  C   UNL     1      41.116   8.622  17.210  0.00  0.00    +0.000 A 
ENDROOT
BRANCH  12  18
ATOM     18  O   UNL     1      41.482  11.497  23.334  0.00  0.00    +0.000 OA
ATOM     19  H   UNL     1      42.104  12.202  23.075  0.00  0.00    +0.000 HD
ENDBRANCH  12  18
BRANCH  13  20
ATOM     20  O   UNL     1      39.698  10.100  16.087  0.00  0.00    +0.000 OA
ATOM     21  C   UNL     1      38.444   9.715  15.527  0.00  0.00    +0.000 C 
ENDBRANCH  13  20
BRANCH  15  22
ATOM     22  O   UNL     1      40.629  14.021  23.448  0.00  0.00    +0.000 OA
ATOM     23  C   UNL     1      40.246  14.339  24.781  0.00  0.00    +0.000 C 
ENDBRANCH  15  22
BRANCH  17  24
ATOM     24  O   UNL     1      41.804   8.471  16.035  0.00  0.00    +0.000 OA
ATOM     25  H   UNL     1      41.159   8.077  15.417  0.00  0.00    +0.000 HD
ENDBRANCH  17  24
TORSDOF 4
ENDMDL
MODEL 8
REMARK VINA RESULT:      -5.6     29.843     32.387
REMARK  Name = 
REMARK  6 active torsions:
REMARK  status: ('A' for Active; 'I' for Inactive)
REMARK    1  A    between atoms: O_3  and  C_16
REMARK    2  A    between atoms: O_4  and  C_17
REMARK    3  A    between atoms: O_4  and  C_22
REMARK    4  A    between atoms: O_5  and  C_19
REMARK    5  A    between atoms: O_5  and  C_23
REMARK    6  A    between atoms: O_6  and  C_21
REMARK                            x       y       z     vdW  Elec       q    Type
REMARK                         _______ _______ _______ _____ _____    ______ ____
ROOT
ATOM      1  O   UNL     1      14.265   7.672   8.599  0.00  0.00    +0.000 OA
ATOM      2  O   UNL     1      13.967   5.825   5.122  0.00  0.00    +0.000 OA
ATOM      3  C   UNL     1      12.824   6.277   7.250  0.00  0.00    +0.000 C 
ATOM      4  C   UNL     1      14.172   6.367   7.973  0.00  0.00    +0.000 C 
ATOM      5  C   UNL     1      12.546   7.728   7.060  0.00  0.00    +0.000 A 
ATOM      6  C   UNL     1      12.924   5.417   6.007  0.00  0.00    +0.000 C 
ATOM      7  C   UNL     1      15.368   6.143   7.073  0.00  0.00    +0.000 A 
ATOM      8  C   UNL     1      13.386   8.454   7.891  0.00  0.00    +0.000 A 
ATOM      9  C   UNL     1      15.207   5.902   5.698  0.00  0.00    +0.000 A 
ATOM     10  C   UNL     1      11.596   8.365   6.279  0.00  0.00    +0.000 A 
ATOM     11  C   UNL     1      16.662   6.185   7.624  0.00  0.00    +0.000 A 
ATOM     12  C   UNL     1      13.300   9.829   7.968  0.00  0.00    +0.000 A 
ATOM     13  C   UNL     1      16.336   5.755   4.880  0.00  0.00    +0.000 A 
ATOM     14  C   UNL     1      11.507   9.764   6.338  0.00  0.00    +0.000 A 
ATOM     15  C   UNL     1      12.355  10.501   7.181  0.00  0.00    +0.000 A 
ATOM     16  C   UNL     1      17.781   5.984   6.822  0.00  0.00    +0.000 A 
ATOM     17  C   UNL     1      17.608   5.766   5.464  0.00  0.00    +0.000 A 
ENDROOT
BRANCH  12  18
ATOM     18  O   UNL     1      14.130  10.529   8.799  0.00  0.00    +0.000 OA
ATOM     19  H   UNL     1      15.031  10.323   8.489  0.00  0.00    +0.000 HD
ENDBRANCH  12  18
BRANCH  13  20
ATOM     20  O   UNL     1      16.330   5.530   3.523  0.00  0.00    +0.000 OA
ATOM     21  C   UNL     1      16.013   4.191   3.149  0.00  0.00    +0.000 C 
ENDBRANCH  13  20
BRANCH  15  22
ATOM     22  O   UNL     1      12.354  11.867   7.326  0.00  0.00    +0.000 OA
ATOM     23  C   UNL     1      12.567  12.636   6.147  0.00  0.00    +0.000 C 
ENDBRANCH  15  22
BRANCH  17  24
ATOM     24  O   UNL     1      18.722   5.571   4.692  0.00  0.00    +0.000 OA
ATOM     25  H   UNL     1      18.377   5.347   3.807  0.00  0.00    +0.000 HD
ENDBRANCH  17  24
TORSDOF 4
ENDMDL
MODEL 9
REMARK VINA RESULT:      -5.5     14.013     18.566
REMARK  Name = 
REMARK  6 active torsions:
REMARK  status: ('A' for Active; 'I' for Inactive)
REMARK    1  A    between atoms: O_3  and  C_16
REMARK    2  A    between atoms: O_4  and  C_17
REMARK    3  A    between atoms: O_4  and  C_22
REMARK    4  A    between atoms: O_5  and  C_19
REMARK    5  A    between atoms: O_5  and  C_23
REMARK    6  A    between atoms: O_6  and  C_21
REMARK                            x       y       z     vdW  Elec       q    Type
REMARK                         _______ _______ _______ _____ _____    ______ ____
ROOT
ATOM      1  O   UNL     1      40.051  12.611  22.756  0.00  0.00    +0.000 OA
ATOM      2  O   UNL     1      38.006  11.120  19.725  0.00  0.00    +0.000 OA
ATOM      3  C   UNL     1      38.050  12.890  21.428  0.00  0.00    +0.000 C 
ATOM      4  C   UNL     1      38.803  11.967  22.392  0.00  0.00    +0.000 C 
ATOM      5  C   UNL     1      39.193  13.688  20.903  0.00  0.00    +0.000 A 
ATOM      6  C   UNL     1      37.237  12.095  20.428  0.00  0.00    +0.000 C 
ATOM      7  C   UNL     1      39.082  10.589  21.830  0.00  0.00    +0.000 A 
ATOM      8  C   UNL     1      40.286  13.501  21.737  0.00  0.00    +0.000 A 
ATOM      9  C   UNL     1      38.687  10.242  20.527  0.00  0.00    +0.000 A 
ATOM     10  C   UNL     1      39.262  14.558  19.828  0.00  0.00    +0.000 A 
ATOM     11  C   UNL     1      39.753   9.644  22.627  0.00  0.00    +0.000 A 
ATOM     12  C   UNL     1      41.471  14.176  21.523  0.00  0.00    +0.000 A 
ATOM     13  C   UNL     1      39.009   8.978  20.015  0.00  0.00    +0.000 A 
ATOM     14  C   UNL     1      40.465  15.240  19.592  0.00  0.00    +0.000 A 
ATOM     15  C   UNL     1      41.572  15.054  20.437  0.00  0.00    +0.000 A 
ATOM     16  C   UNL     1      40.025   8.370  22.139  0.00  0.00    +0.000 A 
ATOM     17  C   UNL     1      39.646   8.048  20.845  0.00  0.00    +0.000 A 
ENDROOT
BRANCH  12  18
ATOM     18  O   UNL     1      42.535  13.986  22.359  0.00  0.00    +0.000 OA
ATOM     19  H   UNL     1      42.853  13.085  22.165  0.00  0.00    +0.000 HD
ENDBRANCH  12  18
BRANCH  13  20
ATOM     20  O   UNL     1      38.700   8.510  18.759  0.00  0.00    +0.000 OA
ATOM     21  C   UNL     1      39.595   8.937  17.734  0.00  0.00    +0.000 C 
ENDBRANCH  13  20
BRANCH  15  22
ATOM     22  O   UNL     1      42.793  15.671  20.308  0.00  0.00    +0.000 OA
ATOM     23  C   UNL     1      42.786  17.091  20.221  0.00  0.00    +0.000 C 
ENDBRANCH  15  22
BRANCH  17  24
ATOM     24  O   UNL     1      39.923   6.789  20.383  0.00  0.00    +0.000 OA
ATOM     25  H   UNL     1      39.967   6.233  21.184  0.00  0.00    +0.000 HD
ENDBRANCH  17  24
TORSDOF 4
ENDMDL
