REMARK  Name = 
REMARK  9 active torsions:
REMARK  status: ('A' for Active; 'I' for Inactive)
REMARK    1  A    between atoms: O_1  and  N_7
REMARK    2  A    between atoms: O_1  and  C_20
REMARK    3  A    between atoms: O_2  and  C_14
REMARK    4  A    between atoms: O_3  and  C_18
REMARK    5  A    between atoms: O_4  and  C_25
REMARK    6  A    between atoms: C_8  and  C_10
REMARK    7  A    between atoms: C_17  and  C_18
REMARK    8  A    between atoms: C_17  and  C_20
REMARK    9  A    between atoms: C_18  and  C_25
REMARK                            x       y       z     vdW  Elec       q    Type
REMARK                         _______ _______ _______ _____ _____    ______ ____
ROOT
ATOM      1  N   UNL     1       1.272   1.910  -0.257  0.00  0.00    +0.000 NA
ATOM      2  N   UNL     1      -0.978  -0.797  -0.695  0.00  0.00    +0.000 NA
ATOM      3  C   UNL     1       1.027   0.639  -0.456  0.00  0.00    +0.000 C 
ATOM      4  C   UNL     1      -0.461   0.388  -0.619  0.00  0.00    +0.000 C 
ATOM      5  C   UNL     1      -1.053   1.718  -0.573  0.00  0.00    +0.000 A 
ATOM      6  C   UNL     1       0.031   2.564  -0.338  0.00  0.00    +0.000 A 
ATOM      7  C   UNL     1      -2.349   2.188  -0.691  0.00  0.00    +0.000 A 
ATOM      8  C   UNL     1      -0.166   3.928  -0.214  0.00  0.00    +0.000 A 
ATOM      9  C   UNL     1      -2.550   3.565  -0.567  0.00  0.00    +0.000 A 
ATOM     10  C   UNL     1      -1.467   4.429  -0.329  0.00  0.00    +0.000 A 
ENDROOT
BRANCH   3  12
ATOM     11  N   UNL     1       3.340  -2.099  -1.012  0.00  0.00    +0.000 N 
ATOM     12  C   UNL     1       2.104  -0.323  -0.479  0.00  0.00    +0.000 A 
ATOM     13  C   UNL     1       3.314  -0.298   0.293  0.00  0.00    +0.000 A 
ATOM     14  C   UNL     1       4.058  -1.426  -0.053  0.00  0.00    +0.000 A 
ATOM     15  C   UNL     1       2.173  -1.438  -1.296  0.00  0.00    +0.000 A 
ATOM     16  C   UNL     1       3.843   0.574   1.269  0.00  0.00    +0.000 A 
ATOM     17  C   UNL     1       5.299  -1.726   0.521  0.00  0.00    +0.000 A 
ATOM     18  C   UNL     1       5.082   0.291   1.854  0.00  0.00    +0.000 A 
ATOM     19  C   UNL     1       5.798  -0.844   1.484  0.00  0.00    +0.000 A 
ATOM     20  H   UNL     1       3.657  -2.947  -1.457  0.00  0.00    +0.000 HD
BRANCH  15  21
ATOM     21  O   UNL     1       1.342  -1.864  -2.241  0.00  0.00    +0.000 OA
ATOM     22  H   UNL     1       1.642  -2.714  -2.601  0.00  0.00    +0.000 HD
ENDBRANCH  15  21
ENDBRANCH   3  12
BRANCH   2  23
ATOM     23  O   UNL     1      -2.371  -0.761  -0.793  0.00  0.00    +0.000 OA
BRANCH  23  24
ATOM     24  C   UNL     1      -2.846  -2.097  -0.935  0.00  0.00    +0.000 C 
BRANCH  24  25
ATOM     25  C   UNL     1      -4.364  -2.108  -0.829  0.00  0.00    +0.000 C 
BRANCH  25  26
ATOM     26  C   UNL     1      -4.908  -1.425   0.426  0.00  0.00    +0.000 C 
BRANCH  26  27
ATOM     27  O   UNL     1      -6.337  -1.565   0.419  0.00  0.00    +0.000 OA
ATOM     28  H   UNL     1      -6.613  -1.289   1.316  0.00  0.00    +0.000 HD
ENDBRANCH  26  27
BRANCH  26  29
ATOM     29  C   UNL     1      -4.376  -2.013   1.737  0.00  0.00    +0.000 C 
BRANCH  29  30
ATOM     30  O   UNL     1      -5.066  -1.382   2.821  0.00  0.00    +0.000 OA
ATOM     31  H   UNL     1      -4.678  -1.737   3.641  0.00  0.00    +0.000 HD
ENDBRANCH  29  30
ENDBRANCH  26  29
ENDBRANCH  25  26
ENDBRANCH  24  25
ENDBRANCH  23  24
ENDBRANCH   2  23
TORSDOF 9
