MODEL 1
REMARK VINA RESULT:      -8.2      0.000      0.000
REMARK  Name = 
REMARK  9 active torsions:
REMARK  status: ('A' for Active; 'I' for Inactive)
REMARK    1  A    between atoms: O_1  and  N_7
REMARK    2  A    between atoms: O_1  and  C_20
REMARK    3  A    between atoms: O_2  and  C_14
REMARK    4  A    between atoms: O_3  and  C_18
REMARK    5  A    between atoms: O_4  and  C_25
REMARK    6  A    between atoms: C_8  and  C_10
REMARK    7  A    between atoms: C_17  and  C_18
REMARK    8  A    between atoms: C_17  and  C_20
REMARK    9  A    between atoms: C_18  and  C_25
REMARK                            x       y       z     vdW  Elec       q    Type
REMARK                         _______ _______ _______ _____ _____    ______ ____
ROOT
ATOM      1  N   UNL     1      46.196  -3.561  10.230  0.00  0.00    +0.000 NA
ATOM      2  N   UNL     1      44.334  -1.502  12.437  0.00  0.00    +0.000 NA
ATOM      3  C   UNL     1      45.211  -3.374  11.072  0.00  0.00    +0.000 C 
ATOM      4  C   UNL     1      45.134  -1.923  11.510  0.00  0.00    +0.000 C 
ATOM      5  C   UNL     1      46.172  -1.261  10.731  0.00  0.00    +0.000 A 
ATOM      6  C   UNL     1      46.769  -2.297  10.012  0.00  0.00    +0.000 A 
ATOM      7  C   UNL     1      46.599   0.051  10.635  0.00  0.00    +0.000 A 
ATOM      8  C   UNL     1      47.829  -2.032   9.162  0.00  0.00    +0.000 A 
ATOM      9  C   UNL     1      47.668   0.321   9.777  0.00  0.00    +0.000 A 
ATOM     10  C   UNL     1      48.280  -0.713   9.047  0.00  0.00    +0.000 A 
ENDROOT
BRANCH   3  12
ATOM     11  N   UNL     1      43.591  -6.224  12.623  0.00  0.00    +0.000 N 
ATOM     12  C   UNL     1      44.375  -4.478  11.483  0.00  0.00    +0.000 A 
ATOM     13  C   UNL     1      43.149  -4.917  10.878  0.00  0.00    +0.000 A 
ATOM     14  C   UNL     1      42.692  -6.017  11.605  0.00  0.00    +0.000 A 
ATOM     15  C   UNL     1      44.597  -5.295  12.578  0.00  0.00    +0.000 A 
ATOM     16  C   UNL     1      42.389  -4.492   9.767  0.00  0.00    +0.000 A 
ATOM     17  C   UNL     1      41.518  -6.708  11.283  0.00  0.00    +0.000 A 
ATOM     18  C   UNL     1      41.213  -5.170   9.430  0.00  0.00    +0.000 A 
ATOM     19  C   UNL     1      40.786  -6.263  10.178  0.00  0.00    +0.000 A 
ATOM     20  H   UNL     1      43.493  -6.949  13.318  0.00  0.00    +0.000 HD
BRANCH  15  21
ATOM     21  O   UNL     1      45.551  -5.253  13.501  0.00  0.00    +0.000 OA
ATOM     22  H   UNL     1      46.250  -5.896  13.298  0.00  0.00    +0.000 HD
ENDBRANCH  15  21
ENDBRANCH   3  12
BRANCH   2  23
ATOM     23  O   UNL     1      44.489  -0.136  12.689  0.00  0.00    +0.000 OA
BRANCH  23  24
ATOM     24  C   UNL     1      44.032   0.131  14.012  0.00  0.00    +0.000 C 
BRANCH  24  25
ATOM     25  C   UNL     1      42.927   1.176  13.964  0.00  0.00    +0.000 C 
BRANCH  25  26
ATOM     26  C   UNL     1      41.519   0.592  13.847  0.00  0.00    +0.000 C 
BRANCH  26  27
ATOM     27  O   UNL     1      41.551  -0.436  12.845  0.00  0.00    +0.000 OA
ATOM     28  H   UNL     1      40.630  -0.764  12.803  0.00  0.00    +0.000 HD
ENDBRANCH  26  27
BRANCH  26  29
ATOM     29  C   UNL     1      40.988  -0.023  15.146  0.00  0.00    +0.000 C 
BRANCH  29  30
ATOM     30  O   UNL     1      40.346  -1.261  14.824  0.00  0.00    +0.000 OA
ATOM     31  H   UNL     1      41.056  -1.905  14.652  0.00  0.00    +0.000 HD
ENDBRANCH  29  30
ENDBRANCH  26  29
ENDBRANCH  25  26
ENDBRANCH  24  25
ENDBRANCH  23  24
ENDBRANCH   2  23
TORSDOF 9
ENDMDL
MODEL 2
REMARK VINA RESULT:      -7.3     31.717     33.541
REMARK  Name = 
REMARK  9 active torsions:
REMARK  status: ('A' for Active; 'I' for Inactive)
REMARK    1  A    between atoms: O_1  and  N_7
REMARK    2  A    between atoms: O_1  and  C_20
REMARK    3  A    between atoms: O_2  and  C_14
REMARK    4  A    between atoms: O_3  and  C_18
REMARK    5  A    between atoms: O_4  and  C_25
REMARK    6  A    between atoms: C_8  and  C_10
REMARK    7  A    between atoms: C_17  and  C_18
REMARK    8  A    between atoms: C_17  and  C_20
REMARK    9  A    between atoms: C_18  and  C_25
REMARK                            x       y       z     vdW  Elec       q    Type
REMARK                         _______ _______ _______ _____ _____    ______ ____
ROOT
ATOM      1  N   UNL     1      21.147  19.006   0.318  0.00  0.00    +0.000 NA
ATOM      2  N   UNL     1      23.687  20.833   1.988  0.00  0.00    +0.000 NA
ATOM      3  C   UNL     1      21.722  19.439   1.412  0.00  0.00    +0.000 C 
ATOM      4  C   UNL     1      22.874  20.373   1.091  0.00  0.00    +0.000 C 
ATOM      5  C   UNL     1      22.839  20.496  -0.360  0.00  0.00    +0.000 A 
ATOM      6  C   UNL     1      21.804  19.645  -0.747  0.00  0.00    +0.000 A 
ATOM      7  C   UNL     1      23.590  21.215  -1.273  0.00  0.00    +0.000 A 
ATOM      8  C   UNL     1      21.494  19.494  -2.087  0.00  0.00    +0.000 A 
ATOM      9  C   UNL     1      23.278  21.064  -2.626  0.00  0.00    +0.000 A 
ATOM     10  C   UNL     1      22.238  20.209  -3.031  0.00  0.00    +0.000 A 
ENDROOT
BRANCH   3  12
ATOM     11  N   UNL     1      21.242  18.283   4.816  0.00  0.00    +0.000 N 
ATOM     12  C   UNL     1      21.255  19.006   2.708  0.00  0.00    +0.000 A 
ATOM     13  C   UNL     1      19.896  18.913   3.162  0.00  0.00    +0.000 A 
ATOM     14  C   UNL     1      19.921  18.447   4.476  0.00  0.00    +0.000 A 
ATOM     15  C   UNL     1      22.059  18.636   3.773  0.00  0.00    +0.000 A 
ATOM     16  C   UNL     1      18.640  19.169   2.570  0.00  0.00    +0.000 A 
ATOM     17  C   UNL     1      18.762  18.226   5.228  0.00  0.00    +0.000 A 
ATOM     18  C   UNL     1      17.470  18.954   3.306  0.00  0.00    +0.000 A 
ATOM     19  C   UNL     1      17.532  18.489   4.617  0.00  0.00    +0.000 A 
ATOM     20  H   UNL     1      21.553  17.973   5.725  0.00  0.00    +0.000 HD
BRANCH  15  21
ATOM     21  O   UNL     1      23.382  18.623   3.887  0.00  0.00    +0.000 OA
ATOM     22  H   UNL     1      23.644  18.640   4.822  0.00  0.00    +0.000 HD
ENDBRANCH  15  21
ENDBRANCH   3  12
BRANCH   2  23
ATOM     23  O   UNL     1      24.690  21.632   1.433  0.00  0.00    +0.000 OA
BRANCH  23  24
ATOM     24  C   UNL     1      24.422  22.990   1.773  0.00  0.00    +0.000 C 
BRANCH  24  25
ATOM     25  C   UNL     1      24.358  23.130   3.287  0.00  0.00    +0.000 C 
BRANCH  25  26
ATOM     26  C   UNL     1      23.019  23.648   3.811  0.00  0.00    +0.000 C 
BRANCH  26  27
ATOM     27  O   UNL     1      22.211  22.512   4.153  0.00  0.00    +0.000 OA
ATOM     28  H   UNL     1      22.636  21.762   3.690  0.00  0.00    +0.000 HD
ENDBRANCH  26  27
BRANCH  26  29
ATOM     29  C   UNL     1      23.137  24.542   5.050  0.00  0.00    +0.000 C 
BRANCH  29  30
ATOM     30  O   UNL     1      23.878  23.829   6.045  0.00  0.00    +0.000 OA
ATOM     31  H   UNL     1      24.693  23.515   5.612  0.00  0.00    +0.000 HD
ENDBRANCH  29  30
ENDBRANCH  26  29
ENDBRANCH  25  26
ENDBRANCH  24  25
ENDBRANCH  23  24
ENDBRANCH   2  23
TORSDOF 9
ENDMDL
MODEL 3
REMARK VINA RESULT:      -7.2      1.981      6.660
REMARK  Name = 
REMARK  9 active torsions:
REMARK  status: ('A' for Active; 'I' for Inactive)
REMARK    1  A    between atoms: O_1  and  N_7
REMARK    2  A    between atoms: O_1  and  C_20
REMARK    3  A    between atoms: O_2  and  C_14
REMARK    4  A    between atoms: O_3  and  C_18
REMARK    5  A    between atoms: O_4  and  C_25
REMARK    6  A    between atoms: C_8  and  C_10
REMARK    7  A    between atoms: C_17  and  C_18
REMARK    8  A    between atoms: C_17  and  C_20
REMARK    9  A    between atoms: C_18  and  C_25
REMARK                            x       y       z     vdW  Elec       q    Type
REMARK                         _______ _______ _______ _____ _____    ______ ____
ROOT
ATOM      1  N   UNL     1      44.186   0.509  12.621  0.00  0.00    +0.000 NA
ATOM      2  N   UNL     1      43.869  -3.024  12.605  0.00  0.00    +0.000 NA
ATOM      3  C   UNL     1      44.521  -0.674  12.170  0.00  0.00    +0.000 C 
ATOM      4  C   UNL     1      43.655  -1.759  12.783  0.00  0.00    +0.000 C 
ATOM      5  C   UNL     1      42.696  -1.029  13.600  0.00  0.00    +0.000 A 
ATOM      6  C   UNL     1      43.085   0.305  13.469  0.00  0.00    +0.000 A 
ATOM      7  C   UNL     1      41.627  -1.416  14.388  0.00  0.00    +0.000 A 
ATOM      8  C   UNL     1      42.394   1.299  14.140  0.00  0.00    +0.000 A 
ATOM      9  C   UNL     1      40.928  -0.414  15.066  0.00  0.00    +0.000 A 
ATOM     10  C   UNL     1      41.309   0.933  14.943  0.00  0.00    +0.000 A 
ENDROOT
BRANCH   3  12
ATOM     11  N   UNL     1      46.932  -1.662   9.646  0.00  0.00    +0.000 N 
ATOM     12  C   UNL     1      45.606  -0.821  11.227  0.00  0.00    +0.000 A 
ATOM     13  C   UNL     1      46.667   0.110  10.964  0.00  0.00    +0.000 A 
ATOM     14  C   UNL     1      47.485  -0.450   9.982  0.00  0.00    +0.000 A 
ATOM     15  C   UNL     1      45.790  -1.891  10.369  0.00  0.00    +0.000 A 
ATOM     16  C   UNL     1      47.019   1.375  11.482  0.00  0.00    +0.000 A 
ATOM     17  C   UNL     1      48.630   0.187   9.491  0.00  0.00    +0.000 A 
ATOM     18  C   UNL     1      48.161   2.027  11.003  0.00  0.00    +0.000 A 
ATOM     19  C   UNL     1      48.954   1.439  10.021  0.00  0.00    +0.000 A 
ATOM     20  H   UNL     1      47.312  -2.274   8.940  0.00  0.00    +0.000 HD
BRANCH  15  21
ATOM     21  O   UNL     1      45.043  -2.971  10.170  0.00  0.00    +0.000 OA
ATOM     22  H   UNL     1      44.105  -2.730  10.103  0.00  0.00    +0.000 HD
ENDBRANCH  15  21
ENDBRANCH   3  12
BRANCH   2  23
ATOM     23  O   UNL     1      42.963  -3.818  13.313  0.00  0.00    +0.000 OA
BRANCH  23  24
ATOM     24  C   UNL     1      43.510  -5.129  13.428  0.00  0.00    +0.000 C 
BRANCH  24  25
ATOM     25  C   UNL     1      43.715  -5.715  12.039  0.00  0.00    +0.000 C 
BRANCH  25  26
ATOM     26  C   UNL     1      42.417  -6.074  11.314  0.00  0.00    +0.000 C 
BRANCH  26  27
ATOM     27  O   UNL     1      41.325  -5.795  12.203  0.00  0.00    +0.000 OA
ATOM     28  H   UNL     1      41.340  -4.823  12.310  0.00  0.00    +0.000 HD
ENDBRANCH  26  27
BRANCH  26  29
ATOM     29  C   UNL     1      42.190  -5.292  10.016  0.00  0.00    +0.000 C 
BRANCH  29  30
ATOM     30  O   UNL     1      42.290  -3.895  10.315  0.00  0.00    +0.000 OA
ATOM     31  H   UNL     1      41.526  -3.465   9.889  0.00  0.00    +0.000 HD
ENDBRANCH  29  30
ENDBRANCH  26  29
ENDBRANCH  25  26
ENDBRANCH  24  25
ENDBRANCH  23  24
ENDBRANCH   2  23
TORSDOF 9
ENDMDL
MODEL 4
REMARK VINA RESULT:      -7.1      2.345      6.072
REMARK  Name = 
REMARK  9 active torsions:
REMARK  status: ('A' for Active; 'I' for Inactive)
REMARK    1  A    between atoms: O_1  and  N_7
REMARK    2  A    between atoms: O_1  and  C_20
REMARK    3  A    between atoms: O_2  and  C_14
REMARK    4  A    between atoms: O_3  and  C_18
REMARK    5  A    between atoms: O_4  and  C_25
REMARK    6  A    between atoms: C_8  and  C_10
REMARK    7  A    between atoms: C_17  and  C_18
REMARK    8  A    between atoms: C_17  and  C_20
REMARK    9  A    between atoms: C_18  and  C_25
REMARK                            x       y       z     vdW  Elec       q    Type
REMARK                         _______ _______ _______ _____ _____    ______ ____
ROOT
ATOM      1  N   UNL     1      44.612  -0.326  12.873  0.00  0.00    +0.000 NA
ATOM      2  N   UNL     1      43.245  -3.598  12.939  0.00  0.00    +0.000 NA
ATOM      3  C   UNL     1      44.621  -1.583  12.509  0.00  0.00    +0.000 C 
ATOM      4  C   UNL     1      43.406  -2.318  13.045  0.00  0.00    +0.000 C 
ATOM      5  C   UNL     1      42.630  -1.281  13.711  0.00  0.00    +0.000 A 
ATOM      6  C   UNL     1      43.415  -0.134  13.584  0.00  0.00    +0.000 A 
ATOM      7  C   UNL     1      41.414  -1.278  14.372  0.00  0.00    +0.000 A 
ATOM      8  C   UNL     1      42.988   1.064  14.128  0.00  0.00    +0.000 A 
ATOM      9  C   UNL     1      40.981  -0.068  14.921  0.00  0.00    +0.000 A 
ATOM     10  C   UNL     1      41.762   1.094  14.801  0.00  0.00    +0.000 A 
ENDROOT
BRANCH   3  12
ATOM     11  N   UNL     1      47.171  -2.392  10.059  0.00  0.00    +0.000 N 
ATOM     12  C   UNL     1      45.707  -2.111  11.715  0.00  0.00    +0.000 A 
ATOM     13  C   UNL     1      46.578  -3.204  12.043  0.00  0.00    +0.000 A 
ATOM     14  C   UNL     1      47.472  -3.363  10.985  0.00  0.00    +0.000 A 
ATOM     15  C   UNL     1      46.127  -1.617  10.492  0.00  0.00    +0.000 A 
ATOM     16  C   UNL     1      46.681  -4.087  13.140  0.00  0.00    +0.000 A 
ATOM     17  C   UNL     1      48.462  -4.352  10.965  0.00  0.00    +0.000 A 
ATOM     18  C   UNL     1      47.664  -5.082  13.138  0.00  0.00    +0.000 A 
ATOM     19  C   UNL     1      48.541  -5.212  12.065  0.00  0.00    +0.000 A 
ATOM     20  H   UNL     1      47.679  -2.264   9.197  0.00  0.00    +0.000 HD
BRANCH  15  21
ATOM     21  O   UNL     1      45.698  -0.571   9.795  0.00  0.00    +0.000 OA
ATOM     22  H   UNL     1      44.899  -0.196  10.198  0.00  0.00    +0.000 HD
ENDBRANCH  15  21
ENDBRANCH   3  12
BRANCH   2  23
ATOM     23  O   UNL     1      42.070  -4.036  13.555  0.00  0.00    +0.000 OA
BRANCH  23  24
ATOM     24  C   UNL     1      42.065  -5.461  13.551  0.00  0.00    +0.000 C 
BRANCH  24  25
ATOM     25  C   UNL     1      42.880  -5.966  12.369  0.00  0.00    +0.000 C 
BRANCH  25  26
ATOM     26  C   UNL     1      42.055  -6.689  11.304  0.00  0.00    +0.000 C 
BRANCH  26  27
ATOM     27  O   UNL     1      41.104  -7.528  11.977  0.00  0.00    +0.000 OA
ATOM     28  H   UNL     1      41.651  -8.115  12.536  0.00  0.00    +0.000 HD
ENDBRANCH  26  27
BRANCH  26  29
ATOM     29  C   UNL     1      41.286  -5.751  10.367  0.00  0.00    +0.000 C 
BRANCH  29  30
ATOM     30  O   UNL     1      41.940  -4.478  10.376  0.00  0.00    +0.000 OA
ATOM     31  H   UNL     1      42.484  -4.450  11.184  0.00  0.00    +0.000 HD
ENDBRANCH  29  30
ENDBRANCH  26  29
ENDBRANCH  25  26
ENDBRANCH  24  25
ENDBRANCH  23  24
ENDBRANCH   2  23
TORSDOF 9
ENDMDL
MODEL 5
REMARK VINA RESULT:      -7.1     31.755     33.662
REMARK  Name = 
REMARK  9 active torsions:
REMARK  status: ('A' for Active; 'I' for Inactive)
REMARK    1  A    between atoms: O_1  and  N_7
REMARK    2  A    between atoms: O_1  and  C_20
REMARK    3  A    between atoms: O_2  and  C_14
REMARK    4  A    between atoms: O_3  and  C_18
REMARK    5  A    between atoms: O_4  and  C_25
REMARK    6  A    between atoms: C_8  and  C_10
REMARK    7  A    between atoms: C_17  and  C_18
REMARK    8  A    between atoms: C_17  and  C_20
REMARK    9  A    between atoms: C_18  and  C_25
REMARK                            x       y       z     vdW  Elec       q    Type
REMARK                         _______ _______ _______ _____ _____    ______ ____
ROOT
ATOM      1  N   UNL     1      21.442  18.927   0.484  0.00  0.00    +0.000 NA
ATOM      2  N   UNL     1      23.249  21.196   2.525  0.00  0.00    +0.000 NA
ATOM      3  C   UNL     1      21.717  19.457   1.649  0.00  0.00    +0.000 C 
ATOM      4  C   UNL     1      22.713  20.594   1.512  0.00  0.00    +0.000 C 
ATOM      5  C   UNL     1      22.920  20.713   0.075  0.00  0.00    +0.000 A 
ATOM      6  C   UNL     1      22.151  19.682  -0.466  0.00  0.00    +0.000 A 
ATOM      7  C   UNL     1      23.677  21.564  -0.711  0.00  0.00    +0.000 A 
ATOM      8  C   UNL     1      22.123  19.480  -1.834  0.00  0.00    +0.000 A 
ATOM      9  C   UNL     1      23.650  21.362  -2.093  0.00  0.00    +0.000 A 
ATOM     10  C   UNL     1      22.880  20.327  -2.651  0.00  0.00    +0.000 A 
ENDROOT
BRANCH   3  12
ATOM     11  N   UNL     1      20.868  18.070   4.891  0.00  0.00    +0.000 N 
ATOM     12  C   UNL     1      21.111  18.939   2.854  0.00  0.00    +0.000 A 
ATOM     13  C   UNL     1      19.711  18.829   3.150  0.00  0.00    +0.000 A 
ATOM     14  C   UNL     1      19.592  18.272   4.423  0.00  0.00    +0.000 A 
ATOM     15  C   UNL     1      21.793  18.486   3.970  0.00  0.00    +0.000 A 
ATOM     16  C   UNL     1      18.527  19.140   2.447  0.00  0.00    +0.000 A 
ATOM     17  C   UNL     1      18.357  18.011   5.028  0.00  0.00    +0.000 A 
ATOM     18  C   UNL     1      17.283  18.887   3.035  0.00  0.00    +0.000 A 
ATOM     19  C   UNL     1      17.202  18.329   4.308  0.00  0.00    +0.000 A 
ATOM     20  H   UNL     1      21.077  17.692   5.803  0.00  0.00    +0.000 HD
BRANCH  15  21
ATOM     21  O   UNL     1      23.097  18.451   4.225  0.00  0.00    +0.000 OA
ATOM     22  H   UNL     1      23.385  19.279   4.641  0.00  0.00    +0.000 HD
ENDBRANCH  15  21
ENDBRANCH   3  12
BRANCH   2  23
ATOM     23  O   UNL     1      24.168  22.173   2.135  0.00  0.00    +0.000 OA
BRANCH  23  24
ATOM     24  C   UNL     1      23.746  23.426   2.666  0.00  0.00    +0.000 C 
BRANCH  24  25
ATOM     25  C   UNL     1      23.795  24.481   1.571  0.00  0.00    +0.000 C 
BRANCH  25  26
ATOM     26  C   UNL     1      25.194  25.033   1.297  0.00  0.00    +0.000 C 
BRANCH  26  27
ATOM     27  O   UNL     1      26.011  24.750   2.443  0.00  0.00    +0.000 OA
ATOM     28  H   UNL     1      26.171  25.625   2.850  0.00  0.00    +0.000 HD
ENDBRANCH  26  27
BRANCH  26  29
ATOM     29  C   UNL     1      25.873  24.428   0.064  0.00  0.00    +0.000 C 
BRANCH  29  30
ATOM     30  O   UNL     1      26.592  23.262   0.478  0.00  0.00    +0.000 OA
ATOM     31  H   UNL     1      27.319  23.572   1.048  0.00  0.00    +0.000 HD
ENDBRANCH  29  30
ENDBRANCH  26  29
ENDBRANCH  25  26
ENDBRANCH  24  25
ENDBRANCH  23  24
ENDBRANCH   2  23
TORSDOF 9
ENDMDL
MODEL 6
REMARK VINA RESULT:      -7.1      1.879      5.574
REMARK  Name = 
REMARK  9 active torsions:
REMARK  status: ('A' for Active; 'I' for Inactive)
REMARK    1  A    between atoms: O_1  and  N_7
REMARK    2  A    between atoms: O_1  and  C_20
REMARK    3  A    between atoms: O_2  and  C_14
REMARK    4  A    between atoms: O_3  and  C_18
REMARK    5  A    between atoms: O_4  and  C_25
REMARK    6  A    between atoms: C_8  and  C_10
REMARK    7  A    between atoms: C_17  and  C_18
REMARK    8  A    between atoms: C_17  and  C_20
REMARK    9  A    between atoms: C_18  and  C_25
REMARK                            x       y       z     vdW  Elec       q    Type
REMARK                         _______ _______ _______ _____ _____    ______ ____
ROOT
ATOM      1  N   UNL     1      45.052  -5.684  10.089  0.00  0.00    +0.000 NA
ATOM      2  N   UNL     1      45.327  -3.399  12.787  0.00  0.00    +0.000 NA
ATOM      3  C   UNL     1      45.654  -4.696  10.702  0.00  0.00    +0.000 C 
ATOM      4  C   UNL     1      45.006  -4.409  12.044  0.00  0.00    +0.000 C 
ATOM      5  C   UNL     1      43.981  -5.437  12.171  0.00  0.00    +0.000 A 
ATOM      6  C   UNL     1      44.056  -6.141  10.969  0.00  0.00    +0.000 A 
ATOM      7  C   UNL     1      43.067  -5.752  13.160  0.00  0.00    +0.000 A 
ATOM      8  C   UNL     1      43.197  -7.198  10.728  0.00  0.00    +0.000 A 
ATOM      9  C   UNL     1      42.199  -6.820  12.919  0.00  0.00    +0.000 A 
ATOM     10  C   UNL     1      42.262  -7.537  11.712  0.00  0.00    +0.000 A 
ENDROOT
BRANCH   3  12
ATOM     11  N   UNL     1      48.716  -3.651   9.063  0.00  0.00    +0.000 N 
ATOM     12  C   UNL     1      46.770  -4.019  10.085  0.00  0.00    +0.000 A 
ATOM     13  C   UNL     1      46.931  -2.607   9.881  0.00  0.00    +0.000 A 
ATOM     14  C   UNL     1      48.160  -2.409   9.253  0.00  0.00    +0.000 A 
ATOM     15  C   UNL     1      47.884  -4.632   9.537  0.00  0.00    +0.000 A 
ATOM     16  C   UNL     1      46.149  -1.472  10.186  0.00  0.00    +0.000 A 
ATOM     17  C   UNL     1      48.647  -1.141   8.913  0.00  0.00    +0.000 A 
ATOM     18  C   UNL     1      46.619  -0.196   9.854  0.00  0.00    +0.000 A 
ATOM     19  C   UNL     1      47.851  -0.036   9.227  0.00  0.00    +0.000 A 
ATOM     20  H   UNL     1      49.603  -3.804   8.608  0.00  0.00    +0.000 HD
BRANCH  15  21
ATOM     21  O   UNL     1      48.178  -5.921   9.405  0.00  0.00    +0.000 OA
ATOM     22  H   UNL     1      47.809  -6.272   8.579  0.00  0.00    +0.000 HD
ENDBRANCH  15  21
ENDBRANCH   3  12
BRANCH   2  23
ATOM     23  O   UNL     1      44.554  -3.328  13.948  0.00  0.00    +0.000 OA
BRANCH  23  24
ATOM     24  C   UNL     1      43.735  -2.165  13.873  0.00  0.00    +0.000 C 
BRANCH  24  25
ATOM     25  C   UNL     1      44.570  -0.989  13.387  0.00  0.00    +0.000 C 
BRANCH  25  26
ATOM     26  C   UNL     1      43.763   0.106  12.689  0.00  0.00    +0.000 C 
BRANCH  26  27
ATOM     27  O   UNL     1      42.795  -0.533  11.843  0.00  0.00    +0.000 OA
ATOM     28  H   UNL     1      43.323  -1.134  11.279  0.00  0.00    +0.000 HD
ENDBRANCH  26  27
BRANCH  26  29
ATOM     29  C   UNL     1      43.017   1.039  13.648  0.00  0.00    +0.000 C 
BRANCH  29  30
ATOM     30  O   UNL     1      43.723   2.284  13.697  0.00  0.00    +0.000 OA
ATOM     31  H   UNL     1      44.575   2.103  14.133  0.00  0.00    +0.000 HD
ENDBRANCH  29  30
ENDBRANCH  26  29
ENDBRANCH  25  26
ENDBRANCH  24  25
ENDBRANCH  23  24
ENDBRANCH   2  23
TORSDOF 9
ENDMDL
MODEL 7
REMARK VINA RESULT:      -7.0      1.367      2.268
REMARK  Name = 
REMARK  9 active torsions:
REMARK  status: ('A' for Active; 'I' for Inactive)
REMARK    1  A    between atoms: O_1  and  N_7
REMARK    2  A    between atoms: O_1  and  C_20
REMARK    3  A    between atoms: O_2  and  C_14
REMARK    4  A    between atoms: O_3  and  C_18
REMARK    5  A    between atoms: O_4  and  C_25
REMARK    6  A    between atoms: C_8  and  C_10
REMARK    7  A    between atoms: C_17  and  C_18
REMARK    8  A    between atoms: C_17  and  C_20
REMARK    9  A    between atoms: C_18  and  C_25
REMARK                            x       y       z     vdW  Elec       q    Type
REMARK                         _______ _______ _______ _____ _____    ______ ____
ROOT
ATOM      1  N   UNL     1      46.192  -3.591  10.160  0.00  0.00    +0.000 NA
ATOM      2  N   UNL     1      44.431  -1.529  12.447  0.00  0.00    +0.000 NA
ATOM      3  C   UNL     1      45.235  -3.398  11.033  0.00  0.00    +0.000 C 
ATOM      4  C   UNL     1      45.196  -1.951  11.491  0.00  0.00    +0.000 C 
ATOM      5  C   UNL     1      46.221  -1.297  10.689  0.00  0.00    +0.000 A 
ATOM      6  C   UNL     1      46.779  -2.333   9.940  0.00  0.00    +0.000 A 
ATOM      7  C   UNL     1      46.667   0.010  10.596  0.00  0.00    +0.000 A 
ATOM      8  C   UNL     1      47.818  -2.075   9.063  0.00  0.00    +0.000 A 
ATOM      9  C   UNL     1      47.715   0.272   9.710  0.00  0.00    +0.000 A 
ATOM     10  C   UNL     1      48.287  -0.762   8.950  0.00  0.00    +0.000 A 
ENDROOT
BRANCH   3  12
ATOM     11  N   UNL     1      43.603  -6.227  12.610  0.00  0.00    +0.000 N 
ATOM     12  C   UNL     1      44.393  -4.493  11.455  0.00  0.00    +0.000 A 
ATOM     13  C   UNL     1      43.160  -4.926  10.862  0.00  0.00    +0.000 A 
ATOM     14  C   UNL     1      42.699  -6.017  11.597  0.00  0.00    +0.000 A 
ATOM     15  C   UNL     1      44.617  -5.306  12.553  0.00  0.00    +0.000 A 
ATOM     16  C   UNL     1      42.396  -4.499   9.754  0.00  0.00    +0.000 A 
ATOM     17  C   UNL     1      41.517  -6.701  11.287  0.00  0.00    +0.000 A 
ATOM     18  C   UNL     1      41.212  -5.170   9.428  0.00  0.00    +0.000 A 
ATOM     19  C   UNL     1      40.781  -6.256  10.185  0.00  0.00    +0.000 A 
ATOM     20  H   UNL     1      43.504  -6.947  13.309  0.00  0.00    +0.000 HD
BRANCH  15  21
ATOM     21  O   UNL     1      45.577  -5.267  13.470  0.00  0.00    +0.000 OA
ATOM     22  H   UNL     1      45.708  -4.360  13.790  0.00  0.00    +0.000 HD
ENDBRANCH  15  21
ENDBRANCH   3  12
BRANCH   2  23
ATOM     23  O   UNL     1      44.616  -0.169  12.710  0.00  0.00    +0.000 OA
BRANCH  23  24
ATOM     24  C   UNL     1      43.622   0.247  13.643  0.00  0.00    +0.000 C 
BRANCH  24  25
ATOM     25  C   UNL     1      43.718   1.752  13.846  0.00  0.00    +0.000 C 
BRANCH  25  26
ATOM     26  C   UNL     1      45.005   2.210  14.531  0.00  0.00    +0.000 C 
BRANCH  26  27
ATOM     27  O   UNL     1      45.685   1.042  15.017  0.00  0.00    +0.000 OA
ATOM     28  H   UNL     1      45.000   0.551  15.513  0.00  0.00    +0.000 HD
ENDBRANCH  26  27
BRANCH  26  29
ATOM     29  C   UNL     1      45.964   2.975  13.613  0.00  0.00    +0.000 C 
BRANCH  29  30
ATOM     30  O   UNL     1      45.772   4.376  13.835  0.00  0.00    +0.000 OA
ATOM     31  H   UNL     1      45.176   4.689  13.131  0.00  0.00    +0.000 HD
ENDBRANCH  29  30
ENDBRANCH  26  29
ENDBRANCH  25  26
ENDBRANCH  24  25
ENDBRANCH  23  24
ENDBRANCH   2  23
TORSDOF 9
ENDMDL
MODEL 8
REMARK VINA RESULT:      -6.8     32.272     34.551
REMARK  Name = 
REMARK  9 active torsions:
REMARK  status: ('A' for Active; 'I' for Inactive)
REMARK    1  A    between atoms: O_1  and  N_7
REMARK    2  A    between atoms: O_1  and  C_20
REMARK    3  A    between atoms: O_2  and  C_14
REMARK    4  A    between atoms: O_3  and  C_18
REMARK    5  A    between atoms: O_4  and  C_25
REMARK    6  A    between atoms: C_8  and  C_10
REMARK    7  A    between atoms: C_17  and  C_18
REMARK    8  A    between atoms: C_17  and  C_20
REMARK    9  A    between atoms: C_18  and  C_25
REMARK                            x       y       z     vdW  Elec       q    Type
REMARK                         _______ _______ _______ _____ _____    ______ ____
ROOT
ATOM      1  N   UNL     1      22.128  22.730   4.101  0.00  0.00    +0.000 NA
ATOM      2  N   UNL     1      21.239  22.004   0.745  0.00  0.00    +0.000 NA
ATOM      3  C   UNL     1      21.711  21.903   3.175  0.00  0.00    +0.000 C 
ATOM      4  C   UNL     1      21.727  22.561   1.808  0.00  0.00    +0.000 C 
ATOM      5  C   UNL     1      22.300  23.877   2.053  0.00  0.00    +0.000 A 
ATOM      6  C   UNL     1      22.494  23.911   3.434  0.00  0.00    +0.000 A 
ATOM      7  C   UNL     1      22.613  24.947   1.233  0.00  0.00    +0.000 A 
ATOM      8  C   UNL     1      23.018  25.042   4.035  0.00  0.00    +0.000 A 
ATOM      9  C   UNL     1      23.143  26.090   1.838  0.00  0.00    +0.000 A 
ATOM     10  C   UNL     1      23.343  26.138   3.228  0.00  0.00    +0.000 A 
ENDROOT
BRANCH   3  12
ATOM     11  N   UNL     1      21.327  18.365   3.875  0.00  0.00    +0.000 N 
ATOM     12  C   UNL     1      21.292  20.565   3.519  0.00  0.00    +0.000 A 
ATOM     13  C   UNL     1      20.001  20.147   3.988  0.00  0.00    +0.000 A 
ATOM     14  C   UNL     1      20.052  18.767   4.188  0.00  0.00    +0.000 A 
ATOM     15  C   UNL     1      22.093  19.436   3.492  0.00  0.00    +0.000 A 
ATOM     16  C   UNL     1      18.783  20.812   4.248  0.00  0.00    +0.000 A 
ATOM     17  C   UNL     1      18.955  18.021   4.636  0.00  0.00    +0.000 A 
ATOM     18  C   UNL     1      17.676  20.084   4.696  0.00  0.00    +0.000 A 
ATOM     19  C   UNL     1      17.763  18.708   4.886  0.00  0.00    +0.000 A 
ATOM     20  H   UNL     1      21.649  17.412   3.950  0.00  0.00    +0.000 HD
BRANCH  15  21
ATOM     21  O   UNL     1      23.383  19.304   3.203  0.00  0.00    +0.000 OA
ATOM     22  H   UNL     1      23.726  18.465   3.549  0.00  0.00    +0.000 HD
ENDBRANCH  15  21
ENDBRANCH   3  12
BRANCH   2  23
ATOM     23  O   UNL     1      21.331  22.832  -0.376  0.00  0.00    +0.000 OA
BRANCH  23  24
ATOM     24  C   UNL     1      21.751  22.042  -1.485  0.00  0.00    +0.000 C 
BRANCH  24  25
ATOM     25  C   UNL     1      23.257  21.836  -1.418  0.00  0.00    +0.000 C 
BRANCH  25  26
ATOM     26  C   UNL     1      23.678  20.443  -0.950  0.00  0.00    +0.000 C 
BRANCH  26  27
ATOM     27  O   UNL     1      24.070  20.540   0.427  0.00  0.00    +0.000 OA
ATOM     28  H   UNL     1      23.438  19.963   0.902  0.00  0.00    +0.000 HD
ENDBRANCH  26  27
BRANCH  26  29
ATOM     29  C   UNL     1      22.572  19.387  -1.060  0.00  0.00    +0.000 C 
BRANCH  29  30
ATOM     30  O   UNL     1      22.206  18.987   0.265  0.00  0.00    +0.000 OA
ATOM     31  H   UNL     1      22.292  18.017   0.296  0.00  0.00    +0.000 HD
ENDBRANCH  29  30
ENDBRANCH  26  29
ENDBRANCH  25  26
ENDBRANCH  24  25
ENDBRANCH  23  24
ENDBRANCH   2  23
TORSDOF 9
ENDMDL
MODEL 9
REMARK VINA RESULT:      -6.8      2.675      5.343
REMARK  Name = 
REMARK  9 active torsions:
REMARK  status: ('A' for Active; 'I' for Inactive)
REMARK    1  A    between atoms: O_1  and  N_7
REMARK    2  A    between atoms: O_1  and  C_20
REMARK    3  A    between atoms: O_2  and  C_14
REMARK    4  A    between atoms: O_3  and  C_18
REMARK    5  A    between atoms: O_4  and  C_25
REMARK    6  A    between atoms: C_8  and  C_10
REMARK    7  A    between atoms: C_17  and  C_18
REMARK    8  A    between atoms: C_17  and  C_20
REMARK    9  A    between atoms: C_18  and  C_25
REMARK                            x       y       z     vdW  Elec       q    Type
REMARK                         _______ _______ _______ _____ _____    ______ ____
ROOT
ATOM      1  N   UNL     1      45.928   0.428  10.934  0.00  0.00    +0.000 NA
ATOM      2  N   UNL     1      45.853  -2.122  13.398  0.00  0.00    +0.000 NA
ATOM      3  C   UNL     1      45.539  -0.039  12.094  0.00  0.00    +0.000 C 
ATOM      4  C   UNL     1      46.173  -1.388  12.381  0.00  0.00    +0.000 C 
ATOM      5  C   UNL     1      47.066  -1.609  11.251  0.00  0.00    +0.000 A 
ATOM      6  C   UNL     1      46.852  -0.502  10.429  0.00  0.00    +0.000 A 
ATOM      7  C   UNL     1      47.948  -2.621  10.919  0.00  0.00    +0.000 A 
ATOM      8  C   UNL     1      47.534  -0.385   9.230  0.00  0.00    +0.000 A 
ATOM      9  C   UNL     1      48.638  -2.505   9.710  0.00  0.00    +0.000 A 
ATOM     10  C   UNL     1      48.432  -1.396   8.870  0.00  0.00    +0.000 A 
ENDROOT
BRANCH   3  12
ATOM     11  N   UNL     1      43.637   2.371  14.025  0.00  0.00    +0.000 N 
ATOM     12  C   UNL     1      44.607   0.703  12.910  0.00  0.00    +0.000 A 
ATOM     13  C   UNL     1      43.397   0.220  13.513  0.00  0.00    +0.000 A 
ATOM     14  C   UNL     1      42.822   1.281  14.212  0.00  0.00    +0.000 A 
ATOM     15  C   UNL     1      44.704   2.047  13.227  0.00  0.00    +0.000 A 
ATOM     16  C   UNL     1      42.740  -1.029  13.542  0.00  0.00    +0.000 A 
ATOM     17  C   UNL     1      41.628   1.161  14.933  0.00  0.00    +0.000 A 
ATOM     18  C   UNL     1      41.546  -1.169  14.257  0.00  0.00    +0.000 A 
ATOM     19  C   UNL     1      41.000  -0.088  14.943  0.00  0.00    +0.000 A 
ATOM     20  H   UNL     1      43.447   3.285  14.406  0.00  0.00    +0.000 HD
BRANCH  15  21
ATOM     21  O   UNL     1      45.597   2.956  12.852  0.00  0.00    +0.000 OA
ATOM     22  H   UNL     1      46.004   2.706  12.007  0.00  0.00    +0.000 HD
ENDBRANCH  15  21
ENDBRANCH   3  12
BRANCH   2  23
ATOM     23  O   UNL     1      46.543  -3.337  13.413  0.00  0.00    +0.000 OA
BRANCH  23  24
ATOM     24  C   UNL     1      45.612  -4.378  13.696  0.00  0.00    +0.000 C 
BRANCH  24  25
ATOM     25  C   UNL     1      44.679  -3.933  14.812  0.00  0.00    +0.000 C 
BRANCH  25  26
ATOM     26  C   UNL     1      43.409  -4.776  14.939  0.00  0.00    +0.000 C 
BRANCH  26  27
ATOM     27  O   UNL     1      42.545  -4.131  15.887  0.00  0.00    +0.000 OA
ATOM     28  H   UNL     1      41.695  -4.608  15.806  0.00  0.00    +0.000 HD
ENDBRANCH  26  27
BRANCH  26  29
ATOM     29  C   UNL     1      42.638  -4.944  13.625  0.00  0.00    +0.000 C 
BRANCH  29  30
ATOM     30  O   UNL     1      42.652  -6.332  13.275  0.00  0.00    +0.000 OA
ATOM     31  H   UNL     1      43.537  -6.517  12.912  0.00  0.00    +0.000 HD
ENDBRANCH  29  30
ENDBRANCH  26  29
ENDBRANCH  25  26
ENDBRANCH  24  25
ENDBRANCH  23  24
ENDBRANCH   2  23
TORSDOF 9
ENDMDL
