MODEL 1
REMARK VINA RESULT:      -6.6      0.000      0.000
REMARK  Name = IPA3.pdbqt.pdb
REMARK  5 active torsions:
REMARK  status: ('A' for Active; 'I' for Inactive)
REMARK    1  A    between atoms: S_1  and  S_2
REMARK    2  A    between atoms: S_1  and  C_15
REMARK    3  A    between atoms: S_2  and  C_3
REMARK    4  A    between atoms: C_10  and  O_13
REMARK    5  A    between atoms: C_22  and  O_25
REMARK                            x       y       z     vdW  Elec       q    Type
REMARK                         _______ _______ _______ _____ _____    ______ ____
ROOT
ATOM      1  S   UNL     1      12.426   4.106  28.294  0.00  0.00    +0.000 S 
ENDROOT
BRANCH   1   2
ATOM      2  C   UNL     1      13.999   4.367  27.462  0.00  0.00    +0.000 A 
ATOM      3  C   UNL     1      14.334   5.626  26.908  0.00  0.00    +0.000 A 
ATOM      4  C   UNL     1      15.595   5.788  26.288  0.00  0.00    +0.000 A 
ATOM      5  C   UNL     1      13.482   6.744  26.948  0.00  0.00    +0.000 A 
ATOM      6  C   UNL     1      16.487   4.722  26.209  0.00  0.00    +0.000 A 
ATOM      7  C   UNL     1      15.969   7.021  25.753  0.00  0.00    +0.000 A 
ATOM      8  C   UNL     1      16.149   3.483  26.739  0.00  0.00    +0.000 A 
ATOM      9  C   UNL     1      14.917   3.310  27.361  0.00  0.00    +0.000 A 
ATOM     10  C   UNL     1      15.106   8.111  25.816  0.00  0.00    +0.000 A 
ATOM     11  C   UNL     1      13.860   7.973  26.414  0.00  0.00    +0.000 A 
BRANCH   9  12
ATOM     12  O   UNL     1      14.660   2.064  27.868  0.00  0.00    +0.000 OA
ATOM     13  H   UNL     1      14.209   1.548  27.175  0.00  0.00    +0.000 HD
ENDBRANCH   9  12
ENDBRANCH   1   2
BRANCH   1  14
ATOM     14  S   UNL     1      12.880   4.661  30.226  0.00  0.00    +0.000 S 
BRANCH  14  15
ATOM     15  C   UNL     1      12.078   6.266  30.342  0.00  0.00    +0.000 A 
ATOM     16  C   UNL     1      12.833   7.463  30.342  0.00  0.00    +0.000 A 
ATOM     17  C   UNL     1      12.154   8.702  30.406  0.00  0.00    +0.000 A 
ATOM     18  C   UNL     1      14.238   7.497  30.268  0.00  0.00    +0.000 A 
ATOM     19  C   UNL     1      10.765   8.743  30.487  0.00  0.00    +0.000 A 
ATOM     20  C   UNL     1      12.864   9.903  30.385  0.00  0.00    +0.000 A 
ATOM     21  C   UNL     1      10.025   7.567  30.502  0.00  0.00    +0.000 A 
ATOM     22  C   UNL     1      10.678   6.341  30.429  0.00  0.00    +0.000 A 
ATOM     23  C   UNL     1      14.254   9.902  30.301  0.00  0.00    +0.000 A 
ATOM     24  C   UNL     1      14.943   8.697  30.245  0.00  0.00    +0.000 A 
BRANCH  22  25
ATOM     25  O   UNL     1       9.883   5.226  30.440  0.00  0.00    +0.000 OA
ATOM     26  H   UNL     1       9.807   4.926  31.365  0.00  0.00    +0.000 HD
ENDBRANCH  22  25
ENDBRANCH  14  15
ENDBRANCH   1  14
TORSDOF 5
ENDMDL
MODEL 2
REMARK VINA RESULT:      -6.5     34.822     36.896
REMARK  Name = IPA3.pdbqt.pdb
REMARK  5 active torsions:
REMARK  status: ('A' for Active; 'I' for Inactive)
REMARK    1  A    between atoms: S_1  and  S_2
REMARK    2  A    between atoms: S_1  and  C_15
REMARK    3  A    between atoms: S_2  and  C_3
REMARK    4  A    between atoms: C_10  and  O_13
REMARK    5  A    between atoms: C_22  and  O_25
REMARK                            x       y       z     vdW  Elec       q    Type
REMARK                         _______ _______ _______ _____ _____    ______ ____
ROOT
ATOM      1  S   UNL     1      46.629  -5.596  11.670  0.00  0.00    +0.000 S 
ENDROOT
BRANCH   1   2
ATOM      2  C   UNL     1      44.921  -5.588  12.234  0.00  0.00    +0.000 A 
ATOM      3  C   UNL     1      43.853  -5.833  11.338  0.00  0.00    +0.000 A 
ATOM      4  C   UNL     1      42.529  -5.844  11.836  0.00  0.00    +0.000 A 
ATOM      5  C   UNL     1      44.032  -6.083   9.966  0.00  0.00    +0.000 A 
ATOM      6  C   UNL     1      42.278  -5.599  13.184  0.00  0.00    +0.000 A 
ATOM      7  C   UNL     1      41.454  -6.105  10.987  0.00  0.00    +0.000 A 
ATOM      8  C   UNL     1      43.327  -5.343  14.059  0.00  0.00    +0.000 A 
ATOM      9  C   UNL     1      44.635  -5.339  13.587  0.00  0.00    +0.000 A 
ATOM     10  C   UNL     1      41.665  -6.357   9.635  0.00  0.00    +0.000 A 
ATOM     11  C   UNL     1      42.955  -6.346   9.122  0.00  0.00    +0.000 A 
BRANCH   9  12
ATOM     12  O   UNL     1      45.616  -5.089  14.509  0.00  0.00    +0.000 OA
ATOM     13  H   UNL     1      45.701  -5.879  15.074  0.00  0.00    +0.000 HD
ENDBRANCH   9  12
ENDBRANCH   1   2
BRANCH   1  14
ATOM     14  S   UNL     1      46.800  -3.720  10.835  0.00  0.00    +0.000 S 
BRANCH  14  15
ATOM     15  C   UNL     1      46.638  -2.662  12.280  0.00  0.00    +0.000 A 
ATOM     16  C   UNL     1      45.419  -2.006  12.573  0.00  0.00    +0.000 A 
ATOM     17  C   UNL     1      45.333  -1.207  13.737  0.00  0.00    +0.000 A 
ATOM     18  C   UNL     1      44.267  -2.111  11.772  0.00  0.00    +0.000 A 
ATOM     19  C   UNL     1      46.435  -1.054  14.572  0.00  0.00    +0.000 A 
ATOM     20  C   UNL     1      44.141  -0.563  14.070  0.00  0.00    +0.000 A 
ATOM     21  C   UNL     1      47.637  -1.687  14.276  0.00  0.00    +0.000 A 
ATOM     22  C   UNL     1      47.734  -2.484  13.141  0.00  0.00    +0.000 A 
ATOM     23  C   UNL     1      43.015  -0.695  13.261  0.00  0.00    +0.000 A 
ATOM     24  C   UNL     1      43.078  -1.469  12.108  0.00  0.00    +0.000 A 
BRANCH  22  25
ATOM     25  O   UNL     1      48.946  -3.083  12.919  0.00  0.00    +0.000 OA
ATOM     26  H   UNL     1      48.787  -3.883  12.384  0.00  0.00    +0.000 HD
ENDBRANCH  22  25
ENDBRANCH  14  15
ENDBRANCH   1  14
TORSDOF 5
ENDMDL
MODEL 3
REMARK VINA RESULT:      -6.3     34.889     37.085
REMARK  Name = IPA3.pdbqt.pdb
REMARK  5 active torsions:
REMARK  status: ('A' for Active; 'I' for Inactive)
REMARK    1  A    between atoms: S_1  and  S_2
REMARK    2  A    between atoms: S_1  and  C_15
REMARK    3  A    between atoms: S_2  and  C_3
REMARK    4  A    between atoms: C_10  and  O_13
REMARK    5  A    between atoms: C_22  and  O_25
REMARK                            x       y       z     vdW  Elec       q    Type
REMARK                         _______ _______ _______ _____ _____    ______ ____
ROOT
ATOM      1  S   UNL     1      43.938  -1.822  12.477  0.00  0.00    +0.000 S 
ENDROOT
BRANCH   1   2
ATOM      2  C   UNL     1      45.158  -0.575  12.041  0.00  0.00    +0.000 A 
ATOM      3  C   UNL     1      45.283   0.620  12.790  0.00  0.00    +0.000 A 
ATOM      4  C   UNL     1      46.278   1.557  12.423  0.00  0.00    +0.000 A 
ATOM      5  C   UNL     1      44.476   0.930  13.898  0.00  0.00    +0.000 A 
ATOM      6  C   UNL     1      47.110   1.315  11.333  0.00  0.00    +0.000 A 
ATOM      7  C   UNL     1      46.446   2.734  13.152  0.00  0.00    +0.000 A 
ATOM      8  C   UNL     1      46.974   0.149  10.590  0.00  0.00    +0.000 A 
ATOM      9  C   UNL     1      46.008  -0.787  10.944  0.00  0.00    +0.000 A 
ATOM     10  C   UNL     1      45.636   3.008  14.250  0.00  0.00    +0.000 A 
ATOM     11  C   UNL     1      44.649   2.107  14.624  0.00  0.00    +0.000 A 
BRANCH   9  12
ATOM     12  O   UNL     1      45.941  -1.916  10.171  0.00  0.00    +0.000 OA
ATOM     13  H   UNL     1      45.077  -1.916   9.721  0.00  0.00    +0.000 HD
ENDBRANCH   9  12
ENDBRANCH   1   2
BRANCH   1  14
ATOM     14  S   UNL     1      45.075  -3.159  13.556  0.00  0.00    +0.000 S 
BRANCH  14  15
ATOM     15  C   UNL     1      45.106  -4.582  12.457  0.00  0.00    +0.000 A 
ATOM     16  C   UNL     1      43.980  -5.430  12.326  0.00  0.00    +0.000 A 
ATOM     17  C   UNL     1      44.044  -6.520  11.427  0.00  0.00    +0.000 A 
ATOM     18  C   UNL     1      42.780  -5.244  13.037  0.00  0.00    +0.000 A 
ATOM     19  C   UNL     1      45.202  -6.765  10.695  0.00  0.00    +0.000 A 
ATOM     20  C   UNL     1      42.947  -7.363  11.255  0.00  0.00    +0.000 A 
ATOM     21  C   UNL     1      46.313  -5.941  10.836  0.00  0.00    +0.000 A 
ATOM     22  C   UNL     1      46.261  -4.860  11.708  0.00  0.00    +0.000 A 
ATOM     23  C   UNL     1      41.769  -7.147  11.967  0.00  0.00    +0.000 A 
ATOM     24  C   UNL     1      41.686  -6.087  12.861  0.00  0.00    +0.000 A 
BRANCH  22  25
ATOM     25  O   UNL     1      47.390  -4.087  11.787  0.00  0.00    +0.000 OA
ATOM     26  H   UNL     1      47.905  -4.393  12.557  0.00  0.00    +0.000 HD
ENDBRANCH  22  25
ENDBRANCH  14  15
ENDBRANCH   1  14
TORSDOF 5
ENDMDL
MODEL 4
REMARK VINA RESULT:      -6.2     30.792     33.083
REMARK  Name = IPA3.pdbqt.pdb
REMARK  5 active torsions:
REMARK  status: ('A' for Active; 'I' for Inactive)
REMARK    1  A    between atoms: S_1  and  S_2
REMARK    2  A    between atoms: S_1  and  C_15
REMARK    3  A    between atoms: S_2  and  C_3
REMARK    4  A    between atoms: C_10  and  O_13
REMARK    5  A    between atoms: C_22  and  O_25
REMARK                            x       y       z     vdW  Elec       q    Type
REMARK                         _______ _______ _______ _____ _____    ______ ____
ROOT
ATOM      1  S   UNL     1      22.629  23.756   1.731  0.00  0.00    +0.000 S 
ENDROOT
BRANCH   1   2
ATOM      2  C   UNL     1      22.268  22.000   1.587  0.00  0.00    +0.000 A 
ATOM      3  C   UNL     1      22.413  21.322   0.352  0.00  0.00    +0.000 A 
ATOM      4  C   UNL     1      22.143  19.934   0.298  0.00  0.00    +0.000 A 
ATOM      5  C   UNL     1      22.827  21.950  -0.835  0.00  0.00    +0.000 A 
ATOM      6  C   UNL     1      21.725  19.249   1.436  0.00  0.00    +0.000 A 
ATOM      7  C   UNL     1      22.298  19.228  -0.895  0.00  0.00    +0.000 A 
ATOM      8  C   UNL     1      21.568  19.920   2.642  0.00  0.00    +0.000 A 
ATOM      9  C   UNL     1      21.839  21.282   2.715  0.00  0.00    +0.000 A 
ATOM     10  C   UNL     1      22.718  19.878  -2.052  0.00  0.00    +0.000 A 
ATOM     11  C   UNL     1      22.982  21.241  -2.024  0.00  0.00    +0.000 A 
BRANCH   9  12
ATOM     12  O   UNL     1      21.671  21.872   3.940  0.00  0.00    +0.000 OA
ATOM     13  H   UNL     1      22.295  21.453   4.559  0.00  0.00    +0.000 HD
ENDBRANCH   9  12
ENDBRANCH   1   2
BRANCH   1  14
ATOM     14  S   UNL     1      24.480  23.727   2.638  0.00  0.00    +0.000 S 
BRANCH  14  15
ATOM     15  C   UNL     1      24.309  25.038   3.856  0.00  0.00    +0.000 A 
ATOM     16  C   UNL     1      24.777  26.348   3.592  0.00  0.00    +0.000 A 
ATOM     17  C   UNL     1      24.593  27.352   4.572  0.00  0.00    +0.000 A 
ATOM     18  C   UNL     1      25.411  26.720   2.393  0.00  0.00    +0.000 A 
ATOM     19  C   UNL     1      23.978  27.052   5.784  0.00  0.00    +0.000 A 
ATOM     20  C   UNL     1      25.021  28.658   4.338  0.00  0.00    +0.000 A 
ATOM     21  C   UNL     1      23.533  25.762   6.048  0.00  0.00    +0.000 A 
ATOM     22  C   UNL     1      23.697  24.767   5.091  0.00  0.00    +0.000 A 
ATOM     23  C   UNL     1      25.637  28.997   3.136  0.00  0.00    +0.000 A 
ATOM     24  C   UNL     1      25.834  28.026   2.162  0.00  0.00    +0.000 A 
BRANCH  22  25
ATOM     25  O   UNL     1      23.225  23.524   5.419  0.00  0.00    +0.000 OA
ATOM     26  H   UNL     1      23.994  22.960   5.623  0.00  0.00    +0.000 HD
ENDBRANCH  22  25
ENDBRANCH  14  15
ENDBRANCH   1  14
TORSDOF 5
ENDMDL
MODEL 5
REMARK VINA RESULT:      -6.1     35.684     39.610
REMARK  Name = IPA3.pdbqt.pdb
REMARK  5 active torsions:
REMARK  status: ('A' for Active; 'I' for Inactive)
REMARK    1  A    between atoms: S_1  and  S_2
REMARK    2  A    between atoms: S_1  and  C_15
REMARK    3  A    between atoms: S_2  and  C_3
REMARK    4  A    between atoms: C_10  and  O_13
REMARK    5  A    between atoms: C_22  and  O_25
REMARK                            x       y       z     vdW  Elec       q    Type
REMARK                         _______ _______ _______ _____ _____    ______ ____
ROOT
ATOM      1  S   UNL     1      46.761  -6.020  11.433  0.00  0.00    +0.000 S 
ENDROOT
BRANCH   1   2
ATOM      2  C   UNL     1      45.373  -5.220  12.253  0.00  0.00    +0.000 A 
ATOM      3  C   UNL     1      44.077  -5.789  12.219  0.00  0.00    +0.000 A 
ATOM      4  C   UNL     1      43.025  -5.136  12.903  0.00  0.00    +0.000 A 
ATOM      5  C   UNL     1      43.770  -6.986  11.548  0.00  0.00    +0.000 A 
ATOM      6  C   UNL     1      43.257  -3.944  13.585  0.00  0.00    +0.000 A 
ATOM      7  C   UNL     1      41.740  -5.679  12.912  0.00  0.00    +0.000 A 
ATOM      8  C   UNL     1      44.526  -3.380  13.603  0.00  0.00    +0.000 A 
ATOM      9  C   UNL     1      45.573  -4.015  12.944  0.00  0.00    +0.000 A 
ATOM     10  C   UNL     1      41.471  -6.870  12.245  0.00  0.00    +0.000 A 
ATOM     11  C   UNL     1      42.486  -7.525  11.561  0.00  0.00    +0.000 A 
BRANCH   9  12
ATOM     12  O   UNL     1      46.798  -3.404  13.014  0.00  0.00    +0.000 OA
ATOM     13  H   UNL     1      47.140  -3.529  13.918  0.00  0.00    +0.000 HD
ENDBRANCH   9  12
ENDBRANCH   1   2
BRANCH   1  14
ATOM     14  S   UNL     1      46.362  -5.616   9.452  0.00  0.00    +0.000 S 
BRANCH  14  15
ATOM     15  C   UNL     1      46.297  -7.269   8.749  0.00  0.00    +0.000 A 
ATOM     16  C   UNL     1      47.415  -8.136   8.811  0.00  0.00    +0.000 A 
ATOM     17  C   UNL     1      47.304  -9.437   8.268  0.00  0.00    +0.000 A 
ATOM     18  C   UNL     1      48.642  -7.780   9.400  0.00  0.00    +0.000 A 
ATOM     19  C   UNL     1      46.120  -9.853   7.666  0.00  0.00    +0.000 A 
ATOM     20  C   UNL     1      48.377 -10.326   8.332  0.00  0.00    +0.000 A 
ATOM     21  C   UNL     1      45.028  -8.996   7.592  0.00  0.00    +0.000 A 
ATOM     22  C   UNL     1      45.118  -7.718   8.130  0.00  0.00    +0.000 A 
ATOM     23  C   UNL     1      49.576  -9.947   8.930  0.00  0.00    +0.000 A 
ATOM     24  C   UNL     1      49.710  -8.671   9.463  0.00  0.00    +0.000 A 
BRANCH  22  25
ATOM     25  O   UNL     1      43.999  -6.934   8.028  0.00  0.00    +0.000 OA
ATOM     26  H   UNL     1      44.030  -6.279   8.750  0.00  0.00    +0.000 HD
ENDBRANCH  22  25
ENDBRANCH  14  15
ENDBRANCH   1  14
TORSDOF 5
ENDMDL
MODEL 6
REMARK VINA RESULT:      -6.1     35.188     37.754
REMARK  Name = IPA3.pdbqt.pdb
REMARK  5 active torsions:
REMARK  status: ('A' for Active; 'I' for Inactive)
REMARK    1  A    between atoms: S_1  and  S_2
REMARK    2  A    between atoms: S_1  and  C_15
REMARK    3  A    between atoms: S_2  and  C_3
REMARK    4  A    between atoms: C_10  and  O_13
REMARK    5  A    between atoms: C_22  and  O_25
REMARK                            x       y       z     vdW  Elec       q    Type
REMARK                         _______ _______ _______ _____ _____    ______ ____
ROOT
ATOM      1  S   UNL     1      44.344  -2.440  13.945  0.00  0.00    +0.000 S 
ENDROOT
BRANCH   1   2
ATOM      2  C   UNL     1      45.458  -1.978  12.610  0.00  0.00    +0.000 A 
ATOM      3  C   UNL     1      46.752  -1.470  12.880  0.00  0.00    +0.000 A 
ATOM      4  C   UNL     1      47.601  -1.149  11.794  0.00  0.00    +0.000 A 
ATOM      5  C   UNL     1      47.256  -1.276  14.178  0.00  0.00    +0.000 A 
ATOM      6  C   UNL     1      47.164  -1.312  10.482  0.00  0.00    +0.000 A 
ATOM      7  C   UNL     1      48.890  -0.668  12.021  0.00  0.00    +0.000 A 
ATOM      8  C   UNL     1      45.889  -1.795  10.221  0.00  0.00    +0.000 A 
ATOM      9  C   UNL     1      45.046  -2.127  11.276  0.00  0.00    +0.000 A 
ATOM     10  C   UNL     1      49.363  -0.495  13.319  0.00  0.00    +0.000 A 
ATOM     11  C   UNL     1      48.545  -0.798  14.399  0.00  0.00    +0.000 A 
BRANCH   9  12
ATOM     12  O   UNL     1      43.807  -2.606  10.941  0.00  0.00    +0.000 OA
ATOM     13  H   UNL     1      43.188  -2.347  11.647  0.00  0.00    +0.000 HD
ENDBRANCH   9  12
ENDBRANCH   1   2
BRANCH   1  14
ATOM     14  S   UNL     1      45.198  -4.192  14.613  0.00  0.00    +0.000 S 
BRANCH  14  15
ATOM     15  C   UNL     1      45.275  -5.159  13.099  0.00  0.00    +0.000 A 
ATOM     16  C   UNL     1      44.113  -5.748  12.546  0.00  0.00    +0.000 A 
ATOM     17  C   UNL     1      44.221  -6.476  11.338  0.00  0.00    +0.000 A 
ATOM     18  C   UNL     1      42.836  -5.641  13.127  0.00  0.00    +0.000 A 
ATOM     19  C   UNL     1      45.454  -6.626  10.712  0.00  0.00    +0.000 A 
ATOM     20  C   UNL     1      43.093  -7.051  10.753  0.00  0.00    +0.000 A 
ATOM     21  C   UNL     1      46.598  -6.060  11.263  0.00  0.00    +0.000 A 
ATOM     22  C   UNL     1      46.506  -5.333  12.445  0.00  0.00    +0.000 A 
ATOM     23  C   UNL     1      41.841  -6.918  11.348  0.00  0.00    +0.000 A 
ATOM     24  C   UNL     1      41.712  -6.214  12.539  0.00  0.00    +0.000 A 
BRANCH  22  25
ATOM     25  O   UNL     1      47.673  -4.798  12.923  0.00  0.00    +0.000 OA
ATOM     26  H   UNL     1      48.221  -4.551  12.155  0.00  0.00    +0.000 HD
ENDBRANCH  22  25
ENDBRANCH  14  15
ENDBRANCH   1  14
TORSDOF 5
ENDMDL
MODEL 7
REMARK VINA RESULT:      -6.0     13.709     16.871
REMARK  Name = IPA3.pdbqt.pdb
REMARK  5 active torsions:
REMARK  status: ('A' for Active; 'I' for Inactive)
REMARK    1  A    between atoms: S_1  and  S_2
REMARK    2  A    between atoms: S_1  and  C_15
REMARK    3  A    between atoms: S_2  and  C_3
REMARK    4  A    between atoms: C_10  and  O_13
REMARK    5  A    between atoms: C_22  and  O_25
REMARK                            x       y       z     vdW  Elec       q    Type
REMARK                         _______ _______ _______ _____ _____    ______ ____
ROOT
ATOM      1  S   UNL     1      28.042  -2.761  31.504  0.00  0.00    +0.000 S 
ENDROOT
BRANCH   1   2
ATOM      2  C   UNL     1      27.051  -1.385  30.904  0.00  0.00    +0.000 A 
ATOM      3  C   UNL     1      25.906  -0.944  31.612  0.00  0.00    +0.000 A 
ATOM      4  C   UNL     1      25.176   0.160  31.113  0.00  0.00    +0.000 A 
ATOM      5  C   UNL     1      25.454  -1.537  32.804  0.00  0.00    +0.000 A 
ATOM      6  C   UNL     1      25.566   0.792  29.935  0.00  0.00    +0.000 A 
ATOM      7  C   UNL     1      24.058   0.637  31.797  0.00  0.00    +0.000 A 
ATOM      8  C   UNL     1      26.679   0.348  29.234  0.00  0.00    +0.000 A 
ATOM      9  C   UNL     1      27.414  -0.730  29.716  0.00  0.00    +0.000 A 
ATOM     10  C   UNL     1      23.640   0.033  32.979  0.00  0.00    +0.000 A 
ATOM     11  C   UNL     1      24.337  -1.056  33.484  0.00  0.00    +0.000 A 
BRANCH   9  12
ATOM     12  O   UNL     1      28.504  -1.105  28.976  0.00  0.00    +0.000 OA
ATOM     13  H   UNL     1      28.446  -0.656  28.113  0.00  0.00    +0.000 HD
ENDBRANCH   9  12
ENDBRANCH   1   2
BRANCH   1  14
ATOM     14  S   UNL     1      26.934  -4.379  30.872  0.00  0.00    +0.000 S 
BRANCH  14  15
ATOM     15  C   UNL     1      27.440  -4.518  29.152  0.00  0.00    +0.000 A 
ATOM     16  C   UNL     1      26.652  -3.969  28.112  0.00  0.00    +0.000 A 
ATOM     17  C   UNL     1      27.107  -4.080  26.777  0.00  0.00    +0.000 A 
ATOM     18  C   UNL     1      25.434  -3.300  28.329  0.00  0.00    +0.000 A 
ATOM     19  C   UNL     1      28.301  -4.733  26.489  0.00  0.00    +0.000 A 
ATOM     20  C   UNL     1      26.368  -3.532  25.728  0.00  0.00    +0.000 A 
ATOM     21  C   UNL     1      29.066  -5.285  27.510  0.00  0.00    +0.000 A 
ATOM     22  C   UNL     1      28.638  -5.175  28.828  0.00  0.00    +0.000 A 
ATOM     23  C   UNL     1      25.170  -2.867  25.977  0.00  0.00    +0.000 A 
ATOM     24  C   UNL     1      24.700  -2.753  27.280  0.00  0.00    +0.000 A 
BRANCH  22  25
ATOM     25  O   UNL     1      29.448  -5.735  29.780  0.00  0.00    +0.000 OA
ATOM     26  H   UNL     1      29.953  -5.014  30.200  0.00  0.00    +0.000 HD
ENDBRANCH  22  25
ENDBRANCH  14  15
ENDBRANCH   1  14
TORSDOF 5
ENDMDL
MODEL 8
REMARK VINA RESULT:      -6.0     30.315     32.949
REMARK  Name = IPA3.pdbqt.pdb
REMARK  5 active torsions:
REMARK  status: ('A' for Active; 'I' for Inactive)
REMARK    1  A    between atoms: S_1  and  S_2
REMARK    2  A    between atoms: S_1  and  C_15
REMARK    3  A    between atoms: S_2  and  C_3
REMARK    4  A    between atoms: C_10  and  O_13
REMARK    5  A    between atoms: C_22  and  O_25
REMARK                            x       y       z     vdW  Elec       q    Type
REMARK                         _______ _______ _______ _____ _____    ______ ____
ROOT
ATOM      1  S   UNL     1      23.098  24.113   1.464  0.00  0.00    +0.000 S 
ENDROOT
BRANCH   1   2
ATOM      2  C   UNL     1      22.949  22.411   0.903  0.00  0.00    +0.000 A 
ATOM      3  C   UNL     1      22.202  21.460   1.640  0.00  0.00    +0.000 A 
ATOM      4  C   UNL     1      22.092  20.140   1.142  0.00  0.00    +0.000 A 
ATOM      5  C   UNL     1      21.543  21.755   2.846  0.00  0.00    +0.000 A 
ATOM      6  C   UNL     1      22.724  19.777  -0.045  0.00  0.00    +0.000 A 
ATOM      7  C   UNL     1      21.345  19.184   1.828  0.00  0.00    +0.000 A 
ATOM      8  C   UNL     1      23.470  20.708  -0.758  0.00  0.00    +0.000 A 
ATOM      9  C   UNL     1      23.579  22.012  -0.287  0.00  0.00    +0.000 A 
ATOM     10  C   UNL     1      20.697  19.510   3.016  0.00  0.00    +0.000 A 
ATOM     11  C   UNL     1      20.796  20.797   3.527  0.00  0.00    +0.000 A 
BRANCH   9  12
ATOM     12  O   UNL     1      24.322  22.875  -1.049  0.00  0.00    +0.000 OA
ATOM     13  H   UNL     1      25.084  23.161  -0.514  0.00  0.00    +0.000 HD
ENDBRANCH   9  12
ENDBRANCH   1   2
BRANCH   1  14
ATOM     14  S   UNL     1      24.776  24.014   2.654  0.00  0.00    +0.000 S 
BRANCH  14  15
ATOM     15  C   UNL     1      24.371  25.190   3.953  0.00  0.00    +0.000 A 
ATOM     16  C   UNL     1      24.747  26.551   3.852  0.00  0.00    +0.000 A 
ATOM     17  C   UNL     1      24.380  27.442   4.887  0.00  0.00    +0.000 A 
ATOM     18  C   UNL     1      25.461  27.081   2.762  0.00  0.00    +0.000 A 
ATOM     19  C   UNL     1      23.676  26.985   5.997  0.00  0.00    +0.000 A 
ATOM     20  C   UNL     1      24.713  28.794   4.810  0.00  0.00    +0.000 A 
ATOM     21  C   UNL     1      23.321  25.645   6.103  0.00  0.00    +0.000 A 
ATOM     22  C   UNL     1      23.666  24.759   5.089  0.00  0.00    +0.000 A 
ATOM     23  C   UNL     1      25.413  29.290   3.713  0.00  0.00    +0.000 A 
ATOM     24  C   UNL     1      25.790  28.432   2.688  0.00  0.00    +0.000 A 
BRANCH  22  25
ATOM     25  O   UNL     1      23.274  23.457   5.259  0.00  0.00    +0.000 OA
ATOM     26  H   UNL     1      24.075  22.927   5.429  0.00  0.00    +0.000 HD
ENDBRANCH  22  25
ENDBRANCH  14  15
ENDBRANCH   1  14
TORSDOF 5
ENDMDL
MODEL 9
REMARK VINA RESULT:      -5.9     12.915     15.306
REMARK  Name = IPA3.pdbqt.pdb
REMARK  5 active torsions:
REMARK  status: ('A' for Active; 'I' for Inactive)
REMARK    1  A    between atoms: S_1  and  S_2
REMARK    2  A    between atoms: S_1  and  C_15
REMARK    3  A    between atoms: S_2  and  C_3
REMARK    4  A    between atoms: C_10  and  O_13
REMARK    5  A    between atoms: C_22  and  O_25
REMARK                            x       y       z     vdW  Elec       q    Type
REMARK                         _______ _______ _______ _____ _____    ______ ____
ROOT
ATOM      1  S   UNL     1      20.585  20.303  33.246  0.00  0.00    +0.000 S 
ENDROOT
BRANCH   1   2
ATOM      2  C   UNL     1      21.576  20.035  31.769  0.00  0.00    +0.000 A 
ATOM      3  C   UNL     1      22.829  19.378  31.838  0.00  0.00    +0.000 A 
ATOM      4  C   UNL     1      23.557  19.166  30.644  0.00  0.00    +0.000 A 
ATOM      5  C   UNL     1      23.394  18.906  33.035  0.00  0.00    +0.000 A 
ATOM      6  C   UNL     1      23.058  19.612  29.422  0.00  0.00    +0.000 A 
ATOM      7  C   UNL     1      24.783  18.502  30.670  0.00  0.00    +0.000 A 
ATOM      8  C   UNL     1      21.836  20.270  29.360  0.00  0.00    +0.000 A 
ATOM      9  C   UNL     1      21.103  20.477  30.523  0.00  0.00    +0.000 A 
ATOM     10  C   UNL     1      25.312  18.039  31.871  0.00  0.00    +0.000 A 
ATOM     11  C   UNL     1      24.618  18.242  33.056  0.00  0.00    +0.000 A 
BRANCH   9  12
ATOM     12  O   UNL     1      19.904  21.124  30.382  0.00  0.00    +0.000 OA
ATOM     13  H   UNL     1      20.090  22.076  30.287  0.00  0.00    +0.000 HD
ENDBRANCH   9  12
ENDBRANCH   1   2
BRANCH   1  14
ATOM     14  S   UNL     1      19.185  18.799  33.087  0.00  0.00    +0.000 S 
BRANCH  14  15
ATOM     15  C   UNL     1      20.164  17.347  33.497  0.00  0.00    +0.000 A 
ATOM     16  C   UNL     1      20.688  16.508  32.484  0.00  0.00    +0.000 A 
ATOM     17  C   UNL     1      21.475  15.393  32.856  0.00  0.00    +0.000 A 
ATOM     18  C   UNL     1      20.480  16.726  31.109  0.00  0.00    +0.000 A 
ATOM     19  C   UNL     1      21.716  15.115  34.198  0.00  0.00    +0.000 A 
ATOM     20  C   UNL     1      22.026  14.558  31.885  0.00  0.00    +0.000 A 
ATOM     21  C   UNL     1      21.188  15.931  35.193  0.00  0.00    +0.000 A 
ATOM     22  C   UNL     1      20.421  17.036  34.842  0.00  0.00    +0.000 A 
ATOM     23  C   UNL     1      21.810  14.807  30.532  0.00  0.00    +0.000 A 
ATOM     24  C   UNL     1      21.034  15.891  30.143  0.00  0.00    +0.000 A 
BRANCH  22  25
ATOM     25  O   UNL     1      19.943  17.798  35.875  0.00  0.00    +0.000 OA
ATOM     26  H   UNL     1      19.449  18.544  35.488  0.00  0.00    +0.000 HD
ENDBRANCH  22  25
ENDBRANCH  14  15
ENDBRANCH   1  14
TORSDOF 5
ENDMDL
