MODEL 1
REMARK VINA RESULT:      -8.5      0.000      0.000
REMARK  Name = 
REMARK  8 active torsions:
REMARK  status: ('A' for Active; 'I' for Inactive)
REMARK    1  A    between atoms: O_1  and  C_21
REMARK    2  A    between atoms: O_1  and  C_38
REMARK    3  A    between atoms: O_4  and  C_26
REMARK    4  A    between atoms: N_7  and  C_11
REMARK    5  A    between atoms: C_26  and  C_33
REMARK    6  A    between atoms: C_29  and  C_37
REMARK    7  A    between atoms: C_33  and  C_42
REMARK    8  A    between atoms: C_37  and  C_43
REMARK                            x       y       z     vdW  Elec       q    Type
REMARK                         _______ _______ _______ _____ _____    ______ ____
ROOT
ATOM      1  O   UNL     1      43.416 -14.237   3.652  0.00  0.00    +0.000 OA
ATOM      2  O   UNL     1      47.021 -12.458   4.911  0.00  0.00    +0.000 OA
ATOM      3  O   UNL     1      41.298 -14.527   4.342  0.00  0.00    +0.000 OA
ATOM      4  N   UNL     1      45.906 -10.861   6.125  0.00  0.00    +0.000 N 
ATOM      5  N   UNL     1      44.189  -8.324   7.991  0.00  0.00    +0.000 NA
ATOM      6  C   UNL     1      44.730 -10.251   6.512  0.00  0.00    +0.000 A 
ATOM      7  C   UNL     1      46.443  -9.125   7.564  0.00  0.00    +0.000 A 
ATOM      8  C   UNL     1      47.068 -10.217   6.745  0.00  0.00    +0.000 C 
ATOM      9  C   UNL     1      43.505 -11.817   5.151  0.00  0.00    +0.000 A 
ATOM     10  C   UNL     1      42.186 -12.291   4.596  0.00  0.00    +0.000 C 
ATOM     11  C   UNL     1      45.062  -9.155   7.416  0.00  0.00    +0.000 A 
ATOM     12  C   UNL     1      44.650 -12.418   4.769  0.00  0.00    +0.000 A 
ATOM     13  C   UNL     1      47.016  -8.160   8.380  0.00  0.00    +0.000 A 
ATOM     14  C   UNL     1      43.547 -10.680   6.063  0.00  0.00    +0.000 A 
ATOM     15  C   UNL     1      45.975 -11.928   5.269  0.00  0.00    +0.000 A 
ATOM     16  C   UNL     1      46.130  -7.236   9.007  0.00  0.00    +0.000 A 
ATOM     17  C   UNL     1      44.684 -13.572   3.831  0.00  0.00    +0.000 C 
ATOM     18  C   UNL     1      44.723  -7.374   8.774  0.00  0.00    +0.000 A 
ATOM     19  C   UNL     1      42.272 -13.785   4.208  0.00  0.00    +0.000 C 
ATOM     20  C   UNL     1      45.650  -5.310  10.420  0.00  0.00    +0.000 A 
ATOM     21  C   UNL     1      46.567  -6.189   9.847  0.00  0.00    +0.000 A 
ATOM     22  C   UNL     1      43.844  -6.488   9.385  0.00  0.00    +0.000 A 
ATOM     23  C   UNL     1      44.289  -5.458  10.214  0.00  0.00    +0.000 A 
ENDROOT
BRANCH  10  24
ATOM     24  O   UNL     1      41.180 -12.145   5.609  0.00  0.00    +0.000 OA
ATOM     25  H   UNL     1      41.551 -12.546   6.420  0.00  0.00    +0.000 HD
ENDBRANCH  10  24
BRANCH  10  26
ATOM     26  C   UNL     1      41.784 -11.450   3.365  0.00  0.00    +0.000 C 
ATOM     27  C   UNL     1      40.302 -11.088   3.303  0.00  0.00    +0.000 C 
ENDBRANCH  10  26
BRANCH  13  28
ATOM     28  C   UNL     1      48.516  -8.106   8.540  0.00  0.00    +0.000 C 
ATOM     29  C   UNL     1      49.043  -9.245   9.400  0.00  0.00    +0.000 C 
ENDBRANCH  13  28
BRANCH  20  30
ATOM     30  O   UNL     1      46.110  -4.312  11.280  0.00  0.00    +0.000 OA
BRANCH  30  38
ATOM     31  O   UNL     1      47.820  -3.328  10.067  0.00  0.00    +0.000 OA
ATOM     32  N   UNL     1      45.985  -2.082  10.686  0.00  0.00    +0.000 N 
ATOM     33  C   UNL     1      45.045   0.532  11.603  0.00  0.00    +0.000 C 
ATOM     34  C   UNL     1      44.605  -0.800  12.261  0.00  0.00    +0.000 C 
ATOM     35  C   UNL     1      46.433   0.317  10.948  0.00  0.00    +0.000 C 
ATOM     36  C   UNL     1      44.671  -1.980  11.296  0.00  0.00    +0.000 C 
ATOM     37  C   UNL     1      46.455  -0.887  10.012  0.00  0.00    +0.000 C 
ATOM     38  C   UNL     1      46.731  -3.250  10.628  0.00  0.00    +0.000 C 
BRANCH  33  39
ATOM     39  N   UNL     1      45.062   1.664  12.583  0.00  0.00    +0.000 NA
ATOM     40  C   UNL     1      44.782   1.210  13.962  0.00  0.00    +0.000 C 
ATOM     41  C   UNL     1      46.336   2.412  12.551  0.00  0.00    +0.000 C 
ATOM     42  C   UNL     1      44.764   2.357  14.974  0.00  0.00    +0.000 C 
ATOM     43  C   UNL     1      46.360   3.590  13.528  0.00  0.00    +0.000 C 
ATOM     44  C   UNL     1      46.065   3.141  14.949  0.00  0.00    +0.000 C 
ENDBRANCH  33  39
ENDBRANCH  30  38
ENDBRANCH  20  30
TORSDOF 6
ENDMDL
MODEL 2
REMARK VINA RESULT:      -7.4      1.860      2.421
REMARK  Name = 
REMARK  8 active torsions:
REMARK  status: ('A' for Active; 'I' for Inactive)
REMARK    1  A    between atoms: O_1  and  C_21
REMARK    2  A    between atoms: O_1  and  C_38
REMARK    3  A    between atoms: O_4  and  C_26
REMARK    4  A    between atoms: N_7  and  C_11
REMARK    5  A    between atoms: C_26  and  C_33
REMARK    6  A    between atoms: C_29  and  C_37
REMARK    7  A    between atoms: C_33  and  C_42
REMARK    8  A    between atoms: C_37  and  C_43
REMARK                            x       y       z     vdW  Elec       q    Type
REMARK                         _______ _______ _______ _____ _____    ______ ____
ROOT
ATOM      1  O   UNL     1      41.216 -14.329   2.432  0.00  0.00    +0.000 OA
ATOM      2  O   UNL     1      45.084 -14.147   4.091  0.00  0.00    +0.000 OA
ATOM      3  O   UNL     1      39.105 -13.718   2.897  0.00  0.00    +0.000 OA
ATOM      4  N   UNL     1      44.598 -12.210   5.223  0.00  0.00    +0.000 N 
ATOM      5  N   UNL     1      43.881  -9.156   6.963  0.00  0.00    +0.000 NA
ATOM      6  C   UNL     1      43.739 -11.166   5.502  0.00  0.00    +0.000 A 
ATOM      7  C   UNL     1      45.645 -10.814   6.748  0.00  0.00    +0.000 A 
ATOM      8  C   UNL     1      45.851 -12.082   5.972  0.00  0.00    +0.000 C 
ATOM      9  C   UNL     1      42.128 -12.126   3.988  0.00  0.00    +0.000 A 
ATOM     10  C   UNL     1      40.794 -12.033   3.291  0.00  0.00    +0.000 C 
ATOM     11  C   UNL     1      44.393 -10.282   6.460  0.00  0.00    +0.000 A 
ATOM     12  C   UNL     1      42.962 -13.148   3.711  0.00  0.00    +0.000 A 
ATOM     13  C   UNL     1      46.474 -10.149   7.641  0.00  0.00    +0.000 A 
ATOM     14  C   UNL     1      42.536 -11.086   4.926  0.00  0.00    +0.000 A 
ATOM     15  C   UNL     1      44.313 -13.230   4.353  0.00  0.00    +0.000 A 
ATOM     16  C   UNL     1      45.981  -8.932   8.196  0.00  0.00    +0.000 A 
ATOM     17  C   UNL     1      42.619 -14.235   2.754  0.00  0.00    +0.000 C 
ATOM     18  C   UNL     1      44.671  -8.490   7.818  0.00  0.00    +0.000 A 
ATOM     19  C   UNL     1      40.305 -13.440   2.879  0.00  0.00    +0.000 C 
ATOM     20  C   UNL     1      46.184  -6.949   9.597  0.00  0.00    +0.000 A 
ATOM     21  C   UNL     1      46.718  -8.136   9.100  0.00  0.00    +0.000 A 
ATOM     22  C   UNL     1      44.172  -7.311   8.357  0.00  0.00    +0.000 A 
ATOM     23  C   UNL     1      44.909  -6.535   9.251  0.00  0.00    +0.000 A 
ENDROOT
BRANCH  10  24
ATOM     24  O   UNL     1      39.838 -11.469   4.200  0.00  0.00    +0.000 OA
ATOM     25  H   UNL     1      39.928 -11.970   5.035  0.00  0.00    +0.000 HD
ENDBRANCH  10  24
BRANCH  10  26
ATOM     26  C   UNL     1      40.897 -11.125   2.046  0.00  0.00    +0.000 C 
ATOM     27  C   UNL     1      39.559 -10.602   1.532  0.00  0.00    +0.000 C 
ENDBRANCH  10  26
BRANCH  13  28
ATOM     28  C   UNL     1      47.841 -10.707   7.953  0.00  0.00    +0.000 C 
ATOM     29  C   UNL     1      47.794 -11.761   9.049  0.00  0.00    +0.000 C 
ENDBRANCH  13  28
BRANCH  20  30
ATOM     30  O   UNL     1      46.920  -6.208  10.522  0.00  0.00    +0.000 OA
BRANCH  30  38
ATOM     31  O   UNL     1      48.983  -5.742   9.577  0.00  0.00    +0.000 OA
ATOM     32  N   UNL     1      47.428  -4.062   9.831  0.00  0.00    +0.000 N 
ATOM     33  C   UNL     1      47.013  -1.238  10.475  0.00  0.00    +0.000 C 
ATOM     34  C   UNL     1      46.170  -2.378  11.100  0.00  0.00    +0.000 C 
ATOM     35  C   UNL     1      48.393  -1.818  10.071  0.00  0.00    +0.000 C 
ATOM     36  C   UNL     1      46.099  -3.613  10.207  0.00  0.00    +0.000 C 
ATOM     37  C   UNL     1      48.270  -3.064   9.200  0.00  0.00    +0.000 C 
ATOM     38  C   UNL     1      47.871  -5.372   9.944  0.00  0.00    +0.000 C 
BRANCH  33  39
ATOM     39  N   UNL     1      47.151  -0.069  11.400  0.00  0.00    +0.000 NA
ATOM     40  C   UNL     1      47.996  -0.384  12.571  0.00  0.00    +0.000 C 
ATOM     41  C   UNL     1      47.673   1.130  10.711  0.00  0.00    +0.000 C 
ATOM     42  C   UNL     1      48.123   0.791  13.545  0.00  0.00    +0.000 C 
ATOM     43  C   UNL     1      47.794   2.342  11.637  0.00  0.00    +0.000 C 
ATOM     44  C   UNL     1      48.653   2.033  12.851  0.00  0.00    +0.000 C 
ENDBRANCH  33  39
ENDBRANCH  30  38
ENDBRANCH  20  30
TORSDOF 6
ENDMDL
MODEL 3
REMARK VINA RESULT:      -7.2     21.741     25.431
REMARK  Name = 
REMARK  8 active torsions:
REMARK  status: ('A' for Active; 'I' for Inactive)
REMARK    1  A    between atoms: O_1  and  C_21
REMARK    2  A    between atoms: O_1  and  C_38
REMARK    3  A    between atoms: O_4  and  C_26
REMARK    4  A    between atoms: N_7  and  C_11
REMARK    5  A    between atoms: C_26  and  C_33
REMARK    6  A    between atoms: C_29  and  C_37
REMARK    7  A    between atoms: C_33  and  C_42
REMARK    8  A    between atoms: C_37  and  C_43
REMARK                            x       y       z     vdW  Elec       q    Type
REMARK                         _______ _______ _______ _____ _____    ______ ____
ROOT
ATOM      1  O   UNL     1      26.336  -3.097  29.904  0.00  0.00    +0.000 OA
ATOM      2  O   UNL     1      23.678  -3.309  26.642  0.00  0.00    +0.000 OA
ATOM      3  O   UNL     1      28.061  -4.221  30.805  0.00  0.00    +0.000 OA
ATOM      4  N   UNL     1      25.220  -4.413  25.350  0.00  0.00    +0.000 N 
ATOM      5  N   UNL     1      27.628  -6.094  23.291  0.00  0.00    +0.000 NA
ATOM      6  C   UNL     1      26.496  -4.903  25.160  0.00  0.00    +0.000 A 
ATOM      7  C   UNL     1      25.303  -5.392  23.251  0.00  0.00    +0.000 A 
ATOM      8  C   UNL     1      24.371  -4.675  24.184  0.00  0.00    +0.000 C 
ATOM      9  C   UNL     1      27.099  -4.101  27.351  0.00  0.00    +0.000 A 
ATOM     10  C   UNL     1      28.155  -3.901  28.409  0.00  0.00    +0.000 C 
ATOM     11  C   UNL     1      26.555  -5.519  23.839  0.00  0.00    +0.000 A 
ATOM     12  C   UNL     1      25.855  -3.619  27.543  0.00  0.00    +0.000 A 
ATOM     13  C   UNL     1      25.098  -5.901  21.975  0.00  0.00    +0.000 A 
ATOM     14  C   UNL     1      27.437  -4.772  26.101  0.00  0.00    +0.000 A 
ATOM     15  C   UNL     1      24.807  -3.761  26.482  0.00  0.00    +0.000 A 
ATOM     16  C   UNL     1      26.217  -6.512  21.338  0.00  0.00    +0.000 A 
ATOM     17  C   UNL     1      25.445  -2.910  28.785  0.00  0.00    +0.000 C 
ATOM     18  C   UNL     1      27.457  -6.581  22.052  0.00  0.00    +0.000 A 
ATOM     19  C   UNL     1      27.500  -3.774  29.803  0.00  0.00    +0.000 C 
ATOM     20  C   UNL     1      27.300  -7.628  19.462  0.00  0.00    +0.000 A 
ATOM     21  C   UNL     1      26.167  -7.054  20.035  0.00  0.00    +0.000 A 
ATOM     22  C   UNL     1      28.554  -7.182  21.449  0.00  0.00    +0.000 A 
ATOM     23  C   UNL     1      28.492  -7.716  20.162  0.00  0.00    +0.000 A 
ENDROOT
BRANCH  10  24
ATOM     24  O   UNL     1      29.020  -5.045  28.418  0.00  0.00    +0.000 OA
ATOM     25  H   UNL     1      28.540  -5.746  28.903  0.00  0.00    +0.000 HD
ENDBRANCH  10  24
BRANCH  10  26
ATOM     26  C   UNL     1      28.994  -2.641  28.104  0.00  0.00    +0.000 C 
ATOM     27  C   UNL     1      30.061  -2.836  27.030  0.00  0.00    +0.000 C 
ENDBRANCH  10  26
BRANCH  13  28
ATOM     28  C   UNL     1      23.747  -5.758  21.319  0.00  0.00    +0.000 C 
ATOM     29  C   UNL     1      23.580  -4.409  20.635  0.00  0.00    +0.000 C 
ENDBRANCH  13  28
BRANCH  20  30
ATOM     30  O   UNL     1      27.206  -8.194  18.190  0.00  0.00    +0.000 OA
BRANCH  30  38
ATOM     31  O   UNL     1      28.935  -7.271  16.955  0.00  0.00    +0.000 OA
ATOM     32  N   UNL     1      26.751  -6.743  16.450  0.00  0.00    +0.000 N 
ATOM     33  C   UNL     1      24.919  -4.631  15.585  0.00  0.00    +0.000 C 
ATOM     34  C   UNL     1      24.620  -5.568  16.782  0.00  0.00    +0.000 C 
ATOM     35  C   UNL     1      26.457  -4.538  15.412  0.00  0.00    +0.000 C 
ATOM     36  C   UNL     1      25.324  -6.917  16.662  0.00  0.00    +0.000 C 
ATOM     37  C   UNL     1      27.118  -5.910  15.321  0.00  0.00    +0.000 C 
ATOM     38  C   UNL     1      27.734  -7.395  17.179  0.00  0.00    +0.000 C 
BRANCH  33  39
ATOM     39  N   UNL     1      24.297  -3.281  15.759  0.00  0.00    +0.000 NA
ATOM     40  C   UNL     1      23.793  -3.075  17.134  0.00  0.00    +0.000 C 
ATOM     41  C   UNL     1      25.221  -2.187  15.394  0.00  0.00    +0.000 C 
ATOM     42  C   UNL     1      23.124  -1.711  17.324  0.00  0.00    +0.000 C 
ATOM     43  C   UNL     1      24.590  -0.801  15.541  0.00  0.00    +0.000 C 
ATOM     44  C   UNL     1      24.060  -0.576  16.946  0.00  0.00    +0.000 C 
ENDBRANCH  33  39
ENDBRANCH  30  38
ENDBRANCH  20  30
TORSDOF 6
ENDMDL
MODEL 4
REMARK VINA RESULT:      -6.6     35.025     39.073
REMARK  Name = 
REMARK  8 active torsions:
REMARK  status: ('A' for Active; 'I' for Inactive)
REMARK    1  A    between atoms: O_1  and  C_21
REMARK    2  A    between atoms: O_1  and  C_38
REMARK    3  A    between atoms: O_4  and  C_26
REMARK    4  A    between atoms: N_7  and  C_11
REMARK    5  A    between atoms: C_26  and  C_33
REMARK    6  A    between atoms: C_29  and  C_37
REMARK    7  A    between atoms: C_33  and  C_42
REMARK    8  A    between atoms: C_37  and  C_43
REMARK                            x       y       z     vdW  Elec       q    Type
REMARK                         _______ _______ _______ _____ _____    ______ ____
ROOT
ATOM      1  O   UNL     1      16.144  -2.546  24.255  0.00  0.00    +0.000 OA
ATOM      2  O   UNL     1      15.848  -1.132  28.212  0.00  0.00    +0.000 OA
ATOM      3  O   UNL     1      15.328  -2.126  22.203  0.00  0.00    +0.000 OA
ATOM      4  N   UNL     1      15.368   0.998  27.504  0.00  0.00    +0.000 N 
ATOM      5  N   UNL     1      14.665   4.346  26.426  0.00  0.00    +0.000 NA
ATOM      6  C   UNL     1      15.232   1.923  26.489  0.00  0.00    +0.000 A 
ATOM      7  C   UNL     1      14.794   3.029  28.463  0.00  0.00    +0.000 A 
ATOM      8  C   UNL     1      15.108   1.603  28.813  0.00  0.00    +0.000 C 
ATOM      9  C   UNL     1      15.783   0.207  24.890  0.00  0.00    +0.000 A 
ATOM     10  C   UNL     1      16.050  -0.189  23.460  0.00  0.00    +0.000 C 
ATOM     11  C   UNL     1      14.872   3.205  27.087  0.00  0.00    +0.000 A 
ATOM     12  C   UNL     1      15.918  -0.702  25.876  0.00  0.00    +0.000 A 
ATOM     13  C   UNL     1      14.469   4.112  29.267  0.00  0.00    +0.000 A 
ATOM     14  C   UNL     1      15.424   1.584  25.211  0.00  0.00    +0.000 A 
ATOM     15  C   UNL     1      15.708  -0.315  27.308  0.00  0.00    +0.000 A 
ATOM     16  C   UNL     1      14.252   5.359  28.613  0.00  0.00    +0.000 A 
ATOM     17  C   UNL     1      16.296  -2.119  25.624  0.00  0.00    +0.000 C 
ATOM     18  C   UNL     1      14.362   5.410  27.185  0.00  0.00    +0.000 A 
ATOM     19  C   UNL     1      15.788  -1.700  23.264  0.00  0.00    +0.000 C 
ATOM     20  C   UNL     1      13.748   7.743  28.602  0.00  0.00    +0.000 A 
ATOM     21  C   UNL     1      13.935   6.552  29.299  0.00  0.00    +0.000 A 
ATOM     22  C   UNL     1      14.145   6.616  26.530  0.00  0.00    +0.000 A 
ATOM     23  C   UNL     1      13.831   7.787  27.220  0.00  0.00    +0.000 A 
ENDROOT
BRANCH  10  24
ATOM     24  O   UNL     1      15.157   0.539  22.606  0.00  0.00    +0.000 OA
ATOM     25  H   UNL     1      14.256   0.226  22.823  0.00  0.00    +0.000 HD
ENDBRANCH  10  24
BRANCH  10  26
ATOM     26  C   UNL     1      17.505   0.148  23.068  0.00  0.00    +0.000 C 
ATOM     27  C   UNL     1      18.040  -0.645  21.880  0.00  0.00    +0.000 C 
ENDBRANCH  10  26
BRANCH  13  28
ATOM     28  C   UNL     1      14.394   3.939  30.765  0.00  0.00    +0.000 C 
ATOM     29  C   UNL     1      13.010   3.505  31.224  0.00  0.00    +0.000 C 
ENDBRANCH  13  28
BRANCH  20  30
ATOM     30  O   UNL     1      13.393   8.895  29.305  0.00  0.00    +0.000 OA
BRANCH  30  38
ATOM     31  O   UNL     1      11.262   8.077  29.698  0.00  0.00    +0.000 OA
ATOM     32  N   UNL     1      12.243   9.506  31.214  0.00  0.00    +0.000 N 
ATOM     33  C   UNL     1      11.803  11.726  33.069  0.00  0.00    +0.000 C 
ATOM     34  C   UNL     1      12.967  11.700  32.046  0.00  0.00    +0.000 C 
ATOM     35  C   UNL     1      10.653  10.844  32.520  0.00  0.00    +0.000 C 
ATOM     36  C   UNL     1      13.385  10.282  31.668  0.00  0.00    +0.000 C 
ATOM     37  C   UNL     1      11.124   9.445  32.134  0.00  0.00    +0.000 C 
ATOM     38  C   UNL     1      12.220   8.764  30.042  0.00  0.00    +0.000 C 
BRANCH  33  39
ATOM     39  N   UNL     1      11.343  13.120  33.362  0.00  0.00    +0.000 NA
ATOM     40  C   UNL     1      10.413  13.168  34.510  0.00  0.00    +0.000 C 
ATOM     41  C   UNL     1      12.472  14.045  33.591  0.00  0.00    +0.000 C 
ATOM     42  C   UNL     1       9.907  14.582  34.806  0.00  0.00    +0.000 C 
ATOM     43  C   UNL     1      12.019  15.481  33.866  0.00  0.00    +0.000 C 
ATOM     44  C   UNL     1      11.056  15.547  35.038  0.00  0.00    +0.000 C 
ENDBRANCH  33  39
ENDBRANCH  30  38
ENDBRANCH  20  30
TORSDOF 6
ENDMDL
MODEL 5
REMARK VINA RESULT:      -6.4     39.968     46.550
REMARK  Name = 
REMARK  8 active torsions:
REMARK  status: ('A' for Active; 'I' for Inactive)
REMARK    1  A    between atoms: O_1  and  C_21
REMARK    2  A    between atoms: O_1  and  C_38
REMARK    3  A    between atoms: O_4  and  C_26
REMARK    4  A    between atoms: N_7  and  C_11
REMARK    5  A    between atoms: C_26  and  C_33
REMARK    6  A    between atoms: C_29  and  C_37
REMARK    7  A    between atoms: C_33  and  C_42
REMARK    8  A    between atoms: C_37  and  C_43
REMARK                            x       y       z     vdW  Elec       q    Type
REMARK                         _______ _______ _______ _____ _____    ______ ____
ROOT
ATOM      1  O   UNL     1       8.717  22.058  30.961  0.00  0.00    +0.000 OA
ATOM      2  O   UNL     1      12.837  22.243  31.821  0.00  0.00    +0.000 OA
ATOM      3  O   UNL     1       7.143  20.576  30.349  0.00  0.00    +0.000 OA
ATOM      4  N   UNL     1      12.869  20.064  32.543  0.00  0.00    +0.000 N 
ATOM      5  N   UNL     1      12.938  16.678  33.723  0.00  0.00    +0.000 NA
ATOM      6  C   UNL     1      12.208  18.895  32.859  0.00  0.00    +0.000 A 
ATOM      7  C   UNL     1      14.446  18.528  33.268  0.00  0.00    +0.000 A 
ATOM      8  C   UNL     1      14.312  19.937  32.768  0.00  0.00    +0.000 C 
ATOM      9  C   UNL     1      10.127  19.938  32.236  0.00  0.00    +0.000 A 
ATOM     10  C   UNL     1       8.625  19.859  32.122  0.00  0.00    +0.000 C 
ATOM     11  C   UNL     1      13.195  17.924  33.318  0.00  0.00    +0.000 A 
ATOM     12  C   UNL     1      10.766  21.083  31.926  0.00  0.00    +0.000 A 
ATOM     13  C   UNL     1      15.563  17.806  33.663  0.00  0.00    +0.000 A 
ATOM     14  C   UNL     1      10.882  18.790  32.727  0.00  0.00    +0.000 A 
ATOM     15  C   UNL     1      12.251  21.198  32.083  0.00  0.00    +0.000 A 
ATOM     16  C   UNL     1      15.342  16.474  34.120  0.00  0.00    +0.000 A 
ATOM     17  C   UNL     1      10.059  22.297  31.435  0.00  0.00    +0.000 C 
ATOM     18  C   UNL     1      14.003  15.966  34.122  0.00  0.00    +0.000 A 
ATOM     19  C   UNL     1       8.116  20.853  31.053  0.00  0.00    +0.000 C 
ATOM     20  C   UNL     1      16.094  14.337  35.019  0.00  0.00    +0.000 A 
ATOM     21  C   UNL     1      16.378  15.627  34.572  0.00  0.00    +0.000 A 
ATOM     22  C   UNL     1      13.771  14.667  34.555  0.00  0.00    +0.000 A 
ATOM     23  C   UNL     1      14.803  13.839  34.998  0.00  0.00    +0.000 A 
ENDROOT
BRANCH  10  24
ATOM     24  O   UNL     1       8.263  18.532  31.714  0.00  0.00    +0.000 OA
ATOM     25  H   UNL     1       7.570  18.636  31.032  0.00  0.00    +0.000 HD
ENDBRANCH  10  24
BRANCH  10  26
ATOM     26  C   UNL     1       7.963  20.163  33.483  0.00  0.00    +0.000 C 
ATOM     27  C   UNL     1       6.606  19.497  33.689  0.00  0.00    +0.000 C 
ENDBRANCH  10  26
BRANCH  13  28
ATOM     28  C   UNL     1      16.926  18.453  33.627  0.00  0.00    +0.000 C 
ATOM     29  C   UNL     1      17.739  18.014  32.419  0.00  0.00    +0.000 C 
ENDBRANCH  13  28
BRANCH  20  30
ATOM     30  O   UNL     1      17.144  13.510  35.418  0.00  0.00    +0.000 OA
BRANCH  30  38
ATOM     31  O   UNL     1      18.095  14.825  37.072  0.00  0.00    +0.000 OA
ATOM     32  N   UNL     1      19.381  14.081  35.312  0.00  0.00    +0.000 N 
ATOM     33  C   UNL     1      21.538  14.751  33.451  0.00  0.00    +0.000 C 
ATOM     34  C   UNL     1      20.202  14.110  32.998  0.00  0.00    +0.000 C 
ATOM     35  C   UNL     1      21.282  15.534  34.764  0.00  0.00    +0.000 C 
ATOM     36  C   UNL     1      19.538  13.292  34.103  0.00  0.00    +0.000 C 
ATOM     37  C   UNL     1      20.596  14.683  35.827  0.00  0.00    +0.000 C 
ATOM     38  C   UNL     1      18.196  14.190  36.026  0.00  0.00    +0.000 C 
BRANCH  33  39
ATOM     39  N   UNL     1      22.132  15.622  32.389  0.00  0.00    +0.000 NA
ATOM     40  C   UNL     1      21.782  15.158  31.030  0.00  0.00    +0.000 C 
ATOM     41  C   UNL     1      21.748  17.040  32.550  0.00  0.00    +0.000 C 
ATOM     42  C   UNL     1      22.406  16.019  29.929  0.00  0.00    +0.000 C 
ATOM     43  C   UNL     1      22.370  17.949  31.487  0.00  0.00    +0.000 C 
ATOM     44  C   UNL     1      22.027  17.482  30.084  0.00  0.00    +0.000 C 
ENDBRANCH  33  39
ENDBRANCH  30  38
ENDBRANCH  20  30
TORSDOF 6
ENDMDL
MODEL 6
REMARK VINA RESULT:      -6.3     30.549     36.493
REMARK  Name = 
REMARK  8 active torsions:
REMARK  status: ('A' for Active; 'I' for Inactive)
REMARK    1  A    between atoms: O_1  and  C_21
REMARK    2  A    between atoms: O_1  and  C_38
REMARK    3  A    between atoms: O_4  and  C_26
REMARK    4  A    between atoms: N_7  and  C_11
REMARK    5  A    between atoms: C_26  and  C_33
REMARK    6  A    between atoms: C_29  and  C_37
REMARK    7  A    between atoms: C_33  and  C_42
REMARK    8  A    between atoms: C_37  and  C_43
REMARK                            x       y       z     vdW  Elec       q    Type
REMARK                         _______ _______ _______ _____ _____    ______ ____
ROOT
ATOM      1  O   UNL     1      37.653   8.987  32.028  0.00  0.00    +0.000 OA
ATOM      2  O   UNL     1      34.942   6.620  34.219  0.00  0.00    +0.000 OA
ATOM      3  O   UNL     1      37.841  11.055  31.171  0.00  0.00    +0.000 OA
ATOM      4  N   UNL     1      34.055   8.459  35.267  0.00  0.00    +0.000 N 
ATOM      5  N   UNL     1      32.683  11.310  36.957  0.00  0.00    +0.000 NA
ATOM      6  C   UNL     1      34.067   9.814  35.528  0.00  0.00    +0.000 A 
ATOM      7  C   UNL     1      32.328   8.915  36.745  0.00  0.00    +0.000 A 
ATOM      8  C   UNL     1      32.976   7.786  35.997  0.00  0.00    +0.000 C 
ATOM      9  C   UNL     1      35.958  10.051  34.054  0.00  0.00    +0.000 A 
ATOM     10  C   UNL     1      37.017  10.933  33.442  0.00  0.00    +0.000 C 
ATOM     11  C   UNL     1      32.983  10.107  36.460  0.00  0.00    +0.000 A 
ATOM     12  C   UNL     1      35.952   8.728  33.795  0.00  0.00    +0.000 A 
ATOM     13  C   UNL     1      31.251   8.926  37.620  0.00  0.00    +0.000 A 
ATOM     14  C   UNL     1      34.971  10.621  34.965  0.00  0.00    +0.000 A 
ATOM     15  C   UNL     1      34.942   7.827  34.435  0.00  0.00    +0.000 A 
ATOM     16  C   UNL     1      30.897  10.183  38.192  0.00  0.00    +0.000 A 
ATOM     17  C   UNL     1      36.938   8.077  32.890  0.00  0.00    +0.000 C 
ATOM     18  C   UNL     1      31.652  11.341  37.816  0.00  0.00    +0.000 A 
ATOM     19  C   UNL     1      37.515  10.328  32.110  0.00  0.00    +0.000 C 
ATOM     20  C   UNL     1      29.552  11.602  39.646  0.00  0.00    +0.000 A 
ATOM     21  C   UNL     1      29.840  10.347  39.113  0.00  0.00    +0.000 A 
ATOM     22  C   UNL     1      31.315  12.576  38.357  0.00  0.00    +0.000 A 
ATOM     23  C   UNL     1      30.266  12.725  39.264  0.00  0.00    +0.000 A 
ENDROOT
BRANCH  10  24
ATOM     24  O   UNL     1      36.442  12.219  33.167  0.00  0.00    +0.000 OA
ATOM     25  H   UNL     1      37.115  12.880  33.427  0.00  0.00    +0.000 HD
ENDBRANCH  10  24
BRANCH  10  26
ATOM     26  C   UNL     1      38.201  11.112  34.415  0.00  0.00    +0.000 C 
ATOM     27  C   UNL     1      38.715  12.544  34.530  0.00  0.00    +0.000 C 
ENDBRANCH  10  26
BRANCH  13  28
ATOM     28  C   UNL     1      30.538   7.637  37.949  0.00  0.00    +0.000 C 
ATOM     29  C   UNL     1      29.445   7.313  36.943  0.00  0.00    +0.000 C 
ENDBRANCH  13  28
BRANCH  20  30
ATOM     30  O   UNL     1      28.473  11.738  40.520  0.00  0.00    +0.000 OA
BRANCH  30  38
ATOM     31  O   UNL     1      27.846   9.563  41.013  0.00  0.00    +0.000 OA
ATOM     32  N   UNL     1      26.411  10.938  39.850  0.00  0.00    +0.000 N 
ATOM     33  C   UNL     1      24.429  11.092  37.702  0.00  0.00    +0.000 C 
ATOM     34  C   UNL     1      25.591  12.106  37.851  0.00  0.00    +0.000 C 
ATOM     35  C   UNL     1      24.862   9.755  38.358  0.00  0.00    +0.000 C 
ATOM     36  C   UNL     1      26.075  12.237  39.292  0.00  0.00    +0.000 C 
ATOM     37  C   UNL     1      25.360   9.941  39.788  0.00  0.00    +0.000 C 
ATOM     38  C   UNL     1      27.599  10.654  40.507  0.00  0.00    +0.000 C 
BRANCH  33  39
ATOM     39  N   UNL     1      24.025  10.905  36.273  0.00  0.00    +0.000 NA
ATOM     40  C   UNL     1      22.646  11.374  36.020  0.00  0.00    +0.000 C 
ATOM     41  C   UNL     1      24.960  11.564  35.337  0.00  0.00    +0.000 C 
ATOM     42  C   UNL     1      22.203  11.164  34.570  0.00  0.00    +0.000 C 
ATOM     43  C   UNL     1      24.575  11.359  33.870  0.00  0.00    +0.000 C 
ATOM     44  C   UNL     1      23.158  11.830  33.594  0.00  0.00    +0.000 C 
ENDBRANCH  33  39
ENDBRANCH  30  38
ENDBRANCH  20  30
TORSDOF 6
ENDMDL
MODEL 7
REMARK VINA RESULT:      -6.2     36.167     38.395
REMARK  Name = 
REMARK  8 active torsions:
REMARK  status: ('A' for Active; 'I' for Inactive)
REMARK    1  A    between atoms: O_1  and  C_21
REMARK    2  A    between atoms: O_1  and  C_38
REMARK    3  A    between atoms: O_4  and  C_26
REMARK    4  A    between atoms: N_7  and  C_11
REMARK    5  A    between atoms: C_26  and  C_33
REMARK    6  A    between atoms: C_29  and  C_37
REMARK    7  A    between atoms: C_33  and  C_42
REMARK    8  A    between atoms: C_37  and  C_43
REMARK                            x       y       z     vdW  Elec       q    Type
REMARK                         _______ _______ _______ _____ _____    ______ ____
ROOT
ATOM      1  O   UNL     1      20.350  19.823 -10.289  0.00  0.00    +0.000 OA
ATOM      2  O   UNL     1      22.044  22.877  -7.933  0.00  0.00    +0.000 OA
ATOM      3  O   UNL     1      20.184  17.583 -10.359  0.00  0.00    +0.000 OA
ATOM      4  N   UNL     1      21.889  21.607  -6.027  0.00  0.00    +0.000 N 
ATOM      5  N   UNL     1      21.614  19.664  -3.025  0.00  0.00    +0.000 NA
ATOM      6  C   UNL     1      21.467  20.466  -5.377  0.00  0.00    +0.000 A 
ATOM      7  C   UNL     1      22.518  21.781  -3.803  0.00  0.00    +0.000 A 
ATOM      8  C   UNL     1      22.577  22.519  -5.109  0.00  0.00    +0.000 C 
ATOM      9  C   UNL     1      20.553  19.656  -7.454  0.00  0.00    +0.000 A 
ATOM     10  C   UNL     1      19.780  18.598  -8.200  0.00  0.00    +0.000 C 
ATOM     11  C   UNL     1      21.858  20.570  -3.975  0.00  0.00    +0.000 A 
ATOM     12  C   UNL     1      20.962  20.768  -8.095  0.00  0.00    +0.000 A 
ATOM     13  C   UNL     1      22.990  22.122  -2.543  0.00  0.00    +0.000 A 
ATOM     14  C   UNL     1      20.816  19.497  -6.028  0.00  0.00    +0.000 A 
ATOM     15  C   UNL     1      21.685  21.854  -7.360  0.00  0.00    +0.000 A 
ATOM     16  C   UNL     1      22.743  21.196  -1.489  0.00  0.00    +0.000 A 
ATOM     17  C   UNL     1      20.715  21.003  -9.544  0.00  0.00    +0.000 C 
ATOM     18  C   UNL     1      22.051  19.979  -1.796  0.00  0.00    +0.000 A 
ATOM     19  C   UNL     1      20.146  18.625  -9.701  0.00  0.00    +0.000 C 
ATOM     20  C   UNL     1      22.861  20.475   0.835  0.00  0.00    +0.000 A 
ATOM     21  C   UNL     1      23.145  21.415  -0.153  0.00  0.00    +0.000 A 
ATOM     22  C   UNL     1      21.810  19.061  -0.782  0.00  0.00    +0.000 A 
ATOM     23  C   UNL     1      22.214  19.289   0.534  0.00  0.00    +0.000 A 
ENDROOT
BRANCH  10  24
ATOM     24  O   UNL     1      20.132  17.311  -7.672  0.00  0.00    +0.000 OA
ATOM     25  H   UNL     1      19.398  17.047  -7.083  0.00  0.00    +0.000 HD
ENDBRANCH  10  24
BRANCH  10  26
ATOM     26  C   UNL     1      18.261  18.812  -8.024  0.00  0.00    +0.000 C 
ATOM     27  C   UNL     1      17.416  17.559  -8.234  0.00  0.00    +0.000 C 
ENDBRANCH  10  26
BRANCH  13  28
ATOM     28  C   UNL     1      23.697  23.440  -2.339  0.00  0.00    +0.000 C 
ATOM     29  C   UNL     1      25.203  23.318  -2.521  0.00  0.00    +0.000 C 
ENDBRANCH  13  28
BRANCH  20  30
ATOM     30  O   UNL     1      23.310  20.701   2.137  0.00  0.00    +0.000 OA
BRANCH  30  38
ATOM     31  O   UNL     1      21.422  21.616   3.120  0.00  0.00    +0.000 OA
ATOM     32  N   UNL     1      23.394  22.806   3.086  0.00  0.00    +0.000 N 
ATOM     33  C   UNL     1      24.606  25.454   2.799  0.00  0.00    +0.000 C 
ATOM     34  C   UNL     1      25.122  24.204   2.043  0.00  0.00    +0.000 C 
ATOM     35  C   UNL     1      23.105  25.244   3.120  0.00  0.00    +0.000 C 
ATOM     36  C   UNL     1      24.810  22.903   2.777  0.00  0.00    +0.000 C 
ATOM     37  C   UNL     1      22.839  23.920   3.831  0.00  0.00    +0.000 C 
ATOM     38  C   UNL     1      22.608  21.697   2.809  0.00  0.00    +0.000 C 
BRANCH  33  39
ATOM     39  N   UNL     1      24.839  26.714   2.026  0.00  0.00    +0.000 NA
ATOM     40  C   UNL     1      24.591  27.921   2.843  0.00  0.00    +0.000 C 
ATOM     41  C   UNL     1      26.196  26.772   1.445  0.00  0.00    +0.000 C 
ATOM     42  C   UNL     1      24.793  29.221   2.062  0.00  0.00    +0.000 C 
ATOM     43  C   UNL     1      26.441  28.043   0.628  0.00  0.00    +0.000 C 
ATOM     44  C   UNL     1      26.183  29.293   1.452  0.00  0.00    +0.000 C 
ENDBRANCH  33  39
ENDBRANCH  30  38
ENDBRANCH  20  30
TORSDOF 6
ENDMDL
MODEL 8
REMARK VINA RESULT:      -6.2     24.470     28.115
REMARK  Name = 
REMARK  8 active torsions:
REMARK  status: ('A' for Active; 'I' for Inactive)
REMARK    1  A    between atoms: O_1  and  C_21
REMARK    2  A    between atoms: O_1  and  C_38
REMARK    3  A    between atoms: O_4  and  C_26
REMARK    4  A    between atoms: N_7  and  C_11
REMARK    5  A    between atoms: C_26  and  C_33
REMARK    6  A    between atoms: C_29  and  C_37
REMARK    7  A    between atoms: C_33  and  C_42
REMARK    8  A    between atoms: C_37  and  C_43
REMARK                            x       y       z     vdW  Elec       q    Type
REMARK                         _______ _______ _______ _____ _____    ______ ____
ROOT
ATOM      1  O   UNL     1      46.993  18.322  -3.251  0.00  0.00    +0.000 OA
ATOM      2  O   UNL     1      43.503  19.675  -5.185  0.00  0.00    +0.000 OA
ATOM      3  O   UNL     1      47.712  16.619  -1.974  0.00  0.00    +0.000 OA
ATOM      4  N   UNL     1      42.725  17.533  -5.460  0.00  0.00    +0.000 N 
ATOM      5  N   UNL     1      41.509  14.194  -5.948  0.00  0.00    +0.000 NA
ATOM      6  C   UNL     1      42.906  16.169  -5.361  0.00  0.00    +0.000 A 
ATOM      7  C   UNL     1      40.814  16.501  -6.269  0.00  0.00    +0.000 A 
ATOM      8  C   UNL     1      41.414  17.856  -6.029  0.00  0.00    +0.000 C 
ATOM      9  C   UNL     1      45.091  16.556  -4.423  0.00  0.00    +0.000 A 
ATOM     10  C   UNL     1      46.392  15.998  -3.904  0.00  0.00    +0.000 C 
ATOM     11  C   UNL     1      41.706  15.513  -5.870  0.00  0.00    +0.000 A 
ATOM     12  C   UNL     1      44.922  17.890  -4.517  0.00  0.00    +0.000 A 
ATOM     13  C   UNL     1      39.586  16.130  -6.799  0.00  0.00    +0.000 A 
ATOM     14  C   UNL     1      44.035  15.653  -4.867  0.00  0.00    +0.000 A 
ATOM     15  C   UNL     1      43.657  18.463  -5.079  0.00  0.00    +0.000 A 
ATOM     16  C   UNL     1      39.329  14.734  -6.918  0.00  0.00    +0.000 A 
ATOM     17  C   UNL     1      45.961  18.869  -4.098  0.00  0.00    +0.000 C 
ATOM     18  C   UNL     1      40.333  13.814  -6.470  0.00  0.00    +0.000 A 
ATOM     19  C   UNL     1      47.067  17.008  -2.949  0.00  0.00    +0.000 C 
ATOM     20  C   UNL     1      37.950  12.829  -7.558  0.00  0.00    +0.000 A 
ATOM     21  C   UNL     1      38.135  14.207  -7.457  0.00  0.00    +0.000 A 
ATOM     22  C   UNL     1      40.095  12.449  -6.571  0.00  0.00    +0.000 A 
ATOM     23  C   UNL     1      38.910  11.941  -7.103  0.00  0.00    +0.000 A 
ENDROOT
BRANCH  10  24
ATOM     24  O   UNL     1      46.118  14.796  -3.170  0.00  0.00    +0.000 OA
ATOM     25  H   UNL     1      46.239  15.020  -2.225  0.00  0.00    +0.000 HD
ENDBRANCH  10  24
BRANCH  10  26
ATOM     26  C   UNL     1      47.342  15.664  -5.074  0.00  0.00    +0.000 C 
ATOM     27  C   UNL     1      47.607  14.174  -5.270  0.00  0.00    +0.000 C 
ENDBRANCH  10  26
BRANCH  13  28
ATOM     28  C   UNL     1      38.612  17.192  -7.247  0.00  0.00    +0.000 C 
ATOM     29  C   UNL     1      38.844  17.611  -8.692  0.00  0.00    +0.000 C 
ENDBRANCH  13  28
BRANCH  20  30
ATOM     30  O   UNL     1      36.741  12.340  -8.055  0.00  0.00    +0.000 OA
BRANCH  30  38
ATOM     31  O   UNL     1      37.217  10.478  -9.348  0.00  0.00    +0.000 OA
ATOM     32  N   UNL     1      36.179  10.228  -7.307  0.00  0.00    +0.000 N 
ATOM     33  C   UNL     1      34.163   8.743  -5.794  0.00  0.00    +0.000 C 
ATOM     34  C   UNL     1      34.265  10.289  -5.770  0.00  0.00    +0.000 C 
ATOM     35  C   UNL     1      34.756   8.236  -7.133  0.00  0.00    +0.000 C 
ATOM     36  C   UNL     1      35.677  10.788  -6.064  0.00  0.00    +0.000 C 
ATOM     37  C   UNL     1      36.157   8.780  -7.394  0.00  0.00    +0.000 C 
ATOM     38  C   UNL     1      36.755  10.975  -8.324  0.00  0.00    +0.000 C 
BRANCH  33  39
ATOM     39  N   UNL     1      32.756   8.269  -5.594  0.00  0.00    +0.000 NA
ATOM     40  C   UNL     1      31.766   9.315  -5.928  0.00  0.00    +0.000 C 
ATOM     41  C   UNL     1      32.466   7.039  -6.360  0.00  0.00    +0.000 C 
ATOM     42  C   UNL     1      30.322   8.860  -5.701  0.00  0.00    +0.000 C 
ATOM     43  C   UNL     1      31.040   6.528  -6.145  0.00  0.00    +0.000 C 
ATOM     44  C   UNL     1      30.010   7.592  -6.476  0.00  0.00    +0.000 C 
ENDBRANCH  33  39
ENDBRANCH  30  38
ENDBRANCH  20  30
TORSDOF 6
ENDMDL
MODEL 9
REMARK VINA RESULT:      -6.1     40.645     46.921
REMARK  Name = 
REMARK  8 active torsions:
REMARK  status: ('A' for Active; 'I' for Inactive)
REMARK    1  A    between atoms: O_1  and  C_21
REMARK    2  A    between atoms: O_1  and  C_38
REMARK    3  A    between atoms: O_4  and  C_26
REMARK    4  A    between atoms: N_7  and  C_11
REMARK    5  A    between atoms: C_26  and  C_33
REMARK    6  A    between atoms: C_29  and  C_37
REMARK    7  A    between atoms: C_33  and  C_42
REMARK    8  A    between atoms: C_37  and  C_43
REMARK                            x       y       z     vdW  Elec       q    Type
REMARK                         _______ _______ _______ _____ _____    ______ ____
ROOT
ATOM      1  O   UNL     1       9.408  24.316  31.208  0.00  0.00    +0.000 OA
ATOM      2  O   UNL     1      13.184  24.547  33.061  0.00  0.00    +0.000 OA
ATOM      3  O   UNL     1       8.275  23.042  29.744  0.00  0.00    +0.000 OA
ATOM      4  N   UNL     1      13.471  22.273  32.949  0.00  0.00    +0.000 N 
ATOM      5  N   UNL     1      13.924  18.717  32.832  0.00  0.00    +0.000 NA
ATOM      6  C   UNL     1      12.985  21.015  32.658  0.00  0.00    +0.000 A 
ATOM      7  C   UNL     1      15.131  20.734  33.447  0.00  0.00    +0.000 A 
ATOM      8  C   UNL     1      14.842  22.207  33.462  0.00  0.00    +0.000 C 
ATOM      9  C   UNL     1      10.908  22.013  31.954  0.00  0.00    +0.000 A 
ATOM     10  C   UNL     1       9.495  21.841  31.454  0.00  0.00    +0.000 C 
ATOM     11  C   UNL     1      14.025  20.041  32.971  0.00  0.00    +0.000 A 
ATOM     12  C   UNL     1      11.376  23.245  32.237  0.00  0.00    +0.000 A 
ATOM     13  C   UNL     1      16.264  20.026  33.822  0.00  0.00    +0.000 A 
ATOM     14  C   UNL     1      11.750  20.843  32.176  0.00  0.00    +0.000 A 
ATOM     15  C   UNL     1      12.758  23.431  32.784  0.00  0.00    +0.000 A 
ATOM     16  C   UNL     1      16.205  18.606  33.708  0.00  0.00    +0.000 A 
ATOM     17  C   UNL     1      10.568  24.480  32.050  0.00  0.00    +0.000 C 
ATOM     18  C   UNL     1      15.004  18.011  33.202  0.00  0.00    +0.000 A 
ATOM     19  C   UNL     1       9.028  23.117  30.716  0.00  0.00    +0.000 C 
ATOM     20  C   UNL     1      17.145  16.371  33.948  0.00  0.00    +0.000 A 
ATOM     21  C   UNL     1      17.270  17.753  34.071  0.00  0.00    +0.000 A 
ATOM     22  C   UNL     1      14.933  16.629  33.076  0.00  0.00    +0.000 A 
ATOM     23  C   UNL     1      15.993  15.797  33.436  0.00  0.00    +0.000 A 
ENDROOT
BRANCH  10  24
ATOM     24  O   UNL     1       9.464  20.747  30.527  0.00  0.00    +0.000 OA
ATOM     25  H   UNL     1       8.864  21.018  29.804  0.00  0.00    +0.000 HD
ENDBRANCH  10  24
BRANCH  10  26
ATOM     26  C   UNL     1       8.541  21.532  32.627  0.00  0.00    +0.000 C 
ATOM     27  C   UNL     1       8.308  20.045  32.879  0.00  0.00    +0.000 C 
ENDBRANCH  10  26
BRANCH  13  28
ATOM     28  C   UNL     1      17.469  20.764  34.354  0.00  0.00    +0.000 C 
ATOM     29  C   UNL     1      18.335  21.327  33.238  0.00  0.00    +0.000 C 
ENDBRANCH  13  28
BRANCH  20  30
ATOM     30  O   UNL     1      18.231  15.558  34.274  0.00  0.00    +0.000 OA
BRANCH  30  38
ATOM     31  O   UNL     1      19.068  16.645  36.140  0.00  0.00    +0.000 OA
ATOM     32  N   UNL     1      20.412  16.321  34.298  0.00  0.00    +0.000 N 
ATOM     33  C   UNL     1      22.506  17.472  32.609  0.00  0.00    +0.000 C 
ATOM     34  C   UNL     1      21.228  16.810  32.035  0.00  0.00    +0.000 C 
ATOM     35  C   UNL     1      22.185  17.997  34.032  0.00  0.00    +0.000 C 
ATOM     36  C   UNL     1      20.635  15.765  32.975  0.00  0.00    +0.000 C 
ATOM     37  C   UNL     1      21.572  16.924  34.926  0.00  0.00    +0.000 C 
ATOM     38  C   UNL     1      19.222  16.209  35.002  0.00  0.00    +0.000 C 
BRANCH  33  39
ATOM     39  N   UNL     1      23.026  18.558  31.719  0.00  0.00    +0.000 NA
ATOM     40  C   UNL     1      24.418  18.305  31.292  0.00  0.00    +0.000 C 
ATOM     41  C   UNL     1      22.167  18.769  30.535  0.00  0.00    +0.000 C 
ATOM     42  C   UNL     1      24.979  19.420  30.405  0.00  0.00    +0.000 C 
ATOM     43  C   UNL     1      22.671  19.895  29.629  0.00  0.00    +0.000 C 
ATOM     44  C   UNL     1      24.104  19.655  29.186  0.00  0.00    +0.000 C 
ENDBRANCH  33  39
ENDBRANCH  30  38
ENDBRANCH  20  30
TORSDOF 6
ENDMDL
