MODEL 1
REMARK VINA RESULT:      -7.9      0.000      0.000
REMARK  Name = 
REMARK  8 active torsions:
REMARK  status: ('A' for Active; 'I' for Inactive)
REMARK    1  A    between atoms: O_1  and  C_21
REMARK    2  A    between atoms: O_1  and  C_38
REMARK    3  A    between atoms: O_4  and  C_26
REMARK    4  A    between atoms: N_7  and  C_11
REMARK    5  A    between atoms: C_26  and  C_33
REMARK    6  A    between atoms: C_29  and  C_37
REMARK    7  A    between atoms: C_33  and  C_42
REMARK    8  A    between atoms: C_37  and  C_43
REMARK                            x       y       z     vdW  Elec       q    Type
REMARK                         _______ _______ _______ _____ _____    ______ ____
ROOT
ATOM      1  O   UNL     1      28.549  -1.803  29.462  0.00  0.00    +0.000 OA
ATOM      2  O   UNL     1      29.962  -4.315  26.389  0.00  0.00    +0.000 OA
ATOM      3  O   UNL     1      26.994  -0.222  29.825  0.00  0.00    +0.000 OA
ATOM      4  N   UNL     1      27.903  -4.377  25.378  0.00  0.00    +0.000 N 
ATOM      5  N   UNL     1      24.683  -4.532  23.805  0.00  0.00    +0.000 NA
ATOM      6  C   UNL     1      26.559  -4.066  25.373  0.00  0.00    +0.000 A 
ATOM      7  C   UNL     1      26.975  -5.256  23.445  0.00  0.00    +0.000 A 
ATOM      8  C   UNL     1      28.276  -5.140  24.184  0.00  0.00    +0.000 C 
ATOM      9  C   UNL     1      26.843  -2.935  27.482  0.00  0.00    +0.000 A 
ATOM     10  C   UNL     1      26.231  -2.190  28.642  0.00  0.00    +0.000 C 
ATOM     11  C   UNL     1      25.968  -4.618  24.159  0.00  0.00    +0.000 A 
ATOM     12  C   UNL     1      28.157  -3.236  27.494  0.00  0.00    +0.000 A 
ATOM     13  C   UNL     1      26.665  -5.873  22.241  0.00  0.00    +0.000 A 
ATOM     14  C   UNL     1      26.004  -3.371  26.371  0.00  0.00    +0.000 A 
ATOM     15  C   UNL     1      28.772  -4.022  26.377  0.00  0.00    +0.000 A 
ATOM     16  C   UNL     1      25.303  -5.824  21.823  0.00  0.00    +0.000 A 
ATOM     17  C   UNL     1      29.068  -2.838  28.600  0.00  0.00    +0.000 C 
ATOM     18  C   UNL     1      24.359  -5.133  22.650  0.00  0.00    +0.000 A 
ATOM     19  C   UNL     1      27.297  -1.313  29.338  0.00  0.00    +0.000 C 
ATOM     20  C   UNL     1      23.487  -6.350  20.286  0.00  0.00    +0.000 A 
ATOM     21  C   UNL     1      24.834  -6.423  20.633  0.00  0.00    +0.000 A 
ATOM     22  C   UNL     1      23.029  -5.068  22.252  0.00  0.00    +0.000 A 
ATOM     23  C   UNL     1      22.579  -5.663  21.074  0.00  0.00    +0.000 A 
ENDROOT
BRANCH  10  24
ATOM     24  O   UNL     1      25.196  -1.332  28.143  0.00  0.00    +0.000 OA
ATOM     25  H   UNL     1      25.096  -0.614  28.800  0.00  0.00    +0.000 HD
ENDBRANCH  10  24
BRANCH  10  26
ATOM     26  C   UNL     1      25.618  -3.178  29.657  0.00  0.00    +0.000 C 
ATOM     27  C   UNL     1      24.734  -2.529  30.718  0.00  0.00    +0.000 C 
ENDBRANCH  10  26
BRANCH  13  28
ATOM     28  C   UNL     1      27.745  -6.581  21.461  0.00  0.00    +0.000 C 
ATOM     29  C   UNL     1      27.812  -8.065  21.789  0.00  0.00    +0.000 C 
ENDBRANCH  13  28
BRANCH  20  30
ATOM     30  O   UNL     1      23.063  -6.915  19.083  0.00  0.00    +0.000 OA
BRANCH  30  38
ATOM     31  O   UNL     1      24.439  -8.766  18.871  0.00  0.00    +0.000 OA
ATOM     32  N   UNL     1      24.507  -7.095  17.288  0.00  0.00    +0.000 N 
ATOM     33  C   UNL     1      26.220  -5.536  15.500  0.00  0.00    +0.000 C 
ATOM     34  C   UNL     1      25.150  -4.891  16.416  0.00  0.00    +0.000 C 
ATOM     35  C   UNL     1      26.665  -6.876  16.139  0.00  0.00    +0.000 C 
ATOM     36  C   UNL     1      24.004  -5.845  16.743  0.00  0.00    +0.000 C 
ATOM     37  C   UNL     1      25.486  -7.785  16.469  0.00  0.00    +0.000 C 
ATOM     38  C   UNL     1      24.035  -7.686  18.450  0.00  0.00    +0.000 C 
BRANCH  33  39
ATOM     39  N   UNL     1      27.381  -4.620  15.261  0.00  0.00    +0.000 NA
ATOM     40  C   UNL     1      28.572  -5.020  16.040  0.00  0.00    +0.000 C 
ATOM     41  C   UNL     1      27.728  -4.520  13.829  0.00  0.00    +0.000 C 
ATOM     42  C   UNL     1      29.761  -4.079  15.834  0.00  0.00    +0.000 C 
ATOM     43  C   UNL     1      28.896  -3.567  13.565  0.00  0.00    +0.000 C 
ATOM     44  C   UNL     1      30.126  -3.959  14.364  0.00  0.00    +0.000 C 
ENDBRANCH  33  39
ENDBRANCH  30  38
ENDBRANCH  20  30
TORSDOF 6
ENDMDL
MODEL 2
REMARK VINA RESULT:      -6.7     27.343     30.455
REMARK  Name = 
REMARK  8 active torsions:
REMARK  status: ('A' for Active; 'I' for Inactive)
REMARK    1  A    between atoms: O_1  and  C_21
REMARK    2  A    between atoms: O_1  and  C_38
REMARK    3  A    between atoms: O_4  and  C_26
REMARK    4  A    between atoms: N_7  and  C_11
REMARK    5  A    between atoms: C_26  and  C_33
REMARK    6  A    between atoms: C_29  and  C_37
REMARK    7  A    between atoms: C_33  and  C_42
REMARK    8  A    between atoms: C_37  and  C_43
REMARK                            x       y       z     vdW  Elec       q    Type
REMARK                         _______ _______ _______ _____ _____    ______ ____
ROOT
ATOM      1  O   UNL     1      47.320  25.831  17.634  0.00  0.00    +0.000 OA
ATOM      2  O   UNL     1      46.637  22.542  15.092  0.00  0.00    +0.000 OA
ATOM      3  O   UNL     1      46.422  26.847  19.426  0.00  0.00    +0.000 OA
ATOM      4  N   UNL     1      45.583  21.366  16.758  0.00  0.00    +0.000 N 
ATOM      5  N   UNL     1      43.975  19.487  19.356  0.00  0.00    +0.000 NA
ATOM      6  C   UNL     1      45.195  21.239  18.076  0.00  0.00    +0.000 A 
ATOM      7  C   UNL     1      44.464  19.348  16.980  0.00  0.00    +0.000 A 
ATOM      8  C   UNL     1      45.162  20.207  15.965  0.00  0.00    +0.000 C 
ATOM      9  C   UNL     1      46.205  23.375  18.549  0.00  0.00    +0.000 A 
ATOM     10  C   UNL     1      46.574  24.436  19.555  0.00  0.00    +0.000 C 
ATOM     11  C   UNL     1      44.491  19.969  18.223  0.00  0.00    +0.000 A 
ATOM     12  C   UNL     1      46.587  23.506  17.263  0.00  0.00    +0.000 A 
ATOM     13  C   UNL     1      43.848  18.111  16.854  0.00  0.00    +0.000 A 
ATOM     14  C   UNL     1      45.476  22.186  18.976  0.00  0.00    +0.000 A 
ATOM     15  C   UNL     1      46.276  22.438  16.259  0.00  0.00    +0.000 A 
ATOM     16  C   UNL     1      43.293  17.544  18.037  0.00  0.00    +0.000 A 
ATOM     17  C   UNL     1      47.346  24.683  16.760  0.00  0.00    +0.000 C 
ATOM     18  C   UNL     1      43.386  18.285  19.260  0.00  0.00    +0.000 A 
ATOM     19  C   UNL     1      46.744  25.803  18.855  0.00  0.00    +0.000 C 
ATOM     20  C   UNL     1      42.143  15.779  19.262  0.00  0.00    +0.000 A 
ATOM     21  C   UNL     1      42.655  16.284  18.069  0.00  0.00    +0.000 A 
ATOM     22  C   UNL     1      42.842  17.751  20.420  0.00  0.00    +0.000 A 
ATOM     23  C   UNL     1      42.212  16.506  20.438  0.00  0.00    +0.000 A 
ENDROOT
BRANCH  10  24
ATOM     24  O   UNL     1      45.514  24.548  20.515  0.00  0.00    +0.000 OA
ATOM     25  H   UNL     1      44.970  25.311  20.233  0.00  0.00    +0.000 HD
ENDBRANCH  10  24
BRANCH  10  26
ATOM     26  C   UNL     1      47.877  24.054  20.290  0.00  0.00    +0.000 C 
ATOM     27  C   UNL     1      47.776  24.081  21.812  0.00  0.00    +0.000 C 
ENDBRANCH  10  26
BRANCH  13  28
ATOM     28  C   UNL     1      43.823  17.419  15.513  0.00  0.00    +0.000 C 
ATOM     29  C   UNL     1      45.090  16.617  15.257  0.00  0.00    +0.000 C 
ENDBRANCH  13  28
BRANCH  20  30
ATOM     30  O   UNL     1      41.480  14.551  19.252  0.00  0.00    +0.000 OA
BRANCH  30  38
ATOM     31  O   UNL     1      39.239  15.122  19.374  0.00  0.00    +0.000 OA
ATOM     32  N   UNL     1      40.221  13.939  21.090  0.00  0.00    +0.000 N 
ATOM     33  C   UNL     1      40.347  13.552  23.987  0.00  0.00    +0.000 C 
ATOM     34  C   UNL     1      41.609  13.688  23.099  0.00  0.00    +0.000 C 
ATOM     35  C   UNL     1      39.175  14.283  23.284  0.00  0.00    +0.000 C 
ATOM     36  C   UNL     1      41.364  13.247  21.659  0.00  0.00    +0.000 C 
ATOM     37  C   UNL     1      38.985  13.827  21.841  0.00  0.00    +0.000 C 
ATOM     38  C   UNL     1      40.229  14.582  19.860  0.00  0.00    +0.000 C 
BRANCH  33  39
ATOM     39  N   UNL     1      40.575  14.072  25.372  0.00  0.00    +0.000 NA
ATOM     40  C   UNL     1      42.014  14.224  25.678  0.00  0.00    +0.000 C 
ATOM     41  C   UNL     1      39.873  15.349  25.613  0.00  0.00    +0.000 C 
ATOM     42  C   UNL     1      42.270  14.726  27.101  0.00  0.00    +0.000 C 
ATOM     43  C   UNL     1      40.075  15.880  27.034  0.00  0.00    +0.000 C 
ATOM     44  C   UNL     1      41.548  16.036  27.367  0.00  0.00    +0.000 C 
ENDBRANCH  33  39
ENDBRANCH  30  38
ENDBRANCH  20  30
TORSDOF 6
ENDMDL
MODEL 3
REMARK VINA RESULT:      -6.5     23.247     27.119
REMARK  Name = 
REMARK  8 active torsions:
REMARK  status: ('A' for Active; 'I' for Inactive)
REMARK    1  A    between atoms: O_1  and  C_21
REMARK    2  A    between atoms: O_1  and  C_38
REMARK    3  A    between atoms: O_4  and  C_26
REMARK    4  A    between atoms: N_7  and  C_11
REMARK    5  A    between atoms: C_26  and  C_33
REMARK    6  A    between atoms: C_29  and  C_37
REMARK    7  A    between atoms: C_33  and  C_42
REMARK    8  A    between atoms: C_37  and  C_43
REMARK                            x       y       z     vdW  Elec       q    Type
REMARK                         _______ _______ _______ _____ _____    ______ ____
ROOT
ATOM      1  O   UNL     1      34.735  11.054  38.696  0.00  0.00    +0.000 OA
ATOM      2  O   UNL     1      35.481  15.169  39.209  0.00  0.00    +0.000 OA
ATOM      3  O   UNL     1      33.024   9.635  38.366  0.00  0.00    +0.000 OA
ATOM      4  N   UNL     1      33.646  15.743  37.956  0.00  0.00    +0.000 N 
ATOM      5  N   UNL     1      30.812  16.669  35.961  0.00  0.00    +0.000 NA
ATOM      6  C   UNL     1      32.588  15.388  37.144  0.00  0.00    +0.000 A 
ATOM      7  C   UNL     1      32.533  17.682  37.345  0.00  0.00    +0.000 A 
ATOM      8  C   UNL     1      33.701  17.194  38.152  0.00  0.00    +0.000 C 
ATOM      9  C   UNL     1      33.228  13.076  37.371  0.00  0.00    +0.000 A 
ATOM     10  C   UNL     1      33.008  11.631  36.999  0.00  0.00    +0.000 C 
ATOM     11  C   UNL     1      31.884  16.605  36.754  0.00  0.00    +0.000 A 
ATOM     12  C   UNL     1      34.263  13.416  38.165  0.00  0.00    +0.000 A 
ATOM     13  C   UNL     1      32.054  18.966  37.123  0.00  0.00    +0.000 A 
ATOM     14  C   UNL     1      32.350  14.109  36.834  0.00  0.00    +0.000 A 
ATOM     15  C   UNL     1      34.530  14.850  38.503  0.00  0.00    +0.000 A 
ATOM     16  C   UNL     1      30.920  19.092  36.270  0.00  0.00    +0.000 A 
ATOM     17  C   UNL     1      35.207  12.417  38.735  0.00  0.00    +0.000 C 
ATOM     18  C   UNL     1      30.341  17.902  35.722  0.00  0.00    +0.000 A 
ATOM     19  C   UNL     1      33.578  10.702  38.095  0.00  0.00    +0.000 C 
ATOM     20  C   UNL     1      29.232  20.391  35.085  0.00  0.00    +0.000 A 
ATOM     21  C   UNL     1      30.335  20.333  35.935  0.00  0.00    +0.000 A 
ATOM     22  C   UNL     1      29.229  18.007  34.896  0.00  0.00    +0.000 A 
ATOM     23  C   UNL     1      28.659  19.239  34.574  0.00  0.00    +0.000 A 
ENDROOT
BRANCH  10  24
ATOM     24  O   UNL     1      31.597  11.393  36.893  0.00  0.00    +0.000 OA
ATOM     25  H   UNL     1      31.304  11.095  37.778  0.00  0.00    +0.000 HD
ENDBRANCH  10  24
BRANCH  10  26
ATOM     26  C   UNL     1      33.673  11.315  35.643  0.00  0.00    +0.000 C 
ATOM     27  C   UNL     1      33.507  12.404  34.587  0.00  0.00    +0.000 C 
ENDBRANCH  10  26
BRANCH  13  28
ATOM     28  C   UNL     1      32.757  20.147  37.748  0.00  0.00    +0.000 C 
ATOM     29  C   UNL     1      33.887  20.670  36.875  0.00  0.00    +0.000 C 
ENDBRANCH  13  28
BRANCH  20  30
ATOM     30  O   UNL     1      28.651  21.629  34.808  0.00  0.00    +0.000 OA
BRANCH  30  38
ATOM     31  O   UNL     1      27.138  21.860  36.547  0.00  0.00    +0.000 OA
ATOM     32  N   UNL     1      26.392  21.836  34.368  0.00  0.00    +0.000 N 
ATOM     33  C   UNL     1      24.272  20.952  32.555  0.00  0.00    +0.000 C 
ATOM     34  C   UNL     1      25.779  20.764  32.246  0.00  0.00    +0.000 C 
ATOM     35  C   UNL     1      24.095  21.016  34.093  0.00  0.00    +0.000 C 
ATOM     36  C   UNL     1      26.655  21.804  32.940  0.00  0.00    +0.000 C 
ATOM     37  C   UNL     1      25.008  22.050  34.744  0.00  0.00    +0.000 C 
ATOM     38  C   UNL     1      27.376  21.784  35.345  0.00  0.00    +0.000 C 
BRANCH  33  39
ATOM     39  N   UNL     1      23.434  19.874  31.942  0.00  0.00    +0.000 NA
ATOM     40  C   UNL     1      23.127  20.149  30.523  0.00  0.00    +0.000 C 
ATOM     41  C   UNL     1      24.056  18.540  32.073  0.00  0.00    +0.000 C 
ATOM     42  C   UNL     1      22.244  19.072  29.886  0.00  0.00    +0.000 C 
ATOM     43  C   UNL     1      23.198  17.422  31.475  0.00  0.00    +0.000 C 
ATOM     44  C   UNL     1      22.867  17.693  30.018  0.00  0.00    +0.000 C 
ENDBRANCH  33  39
ENDBRANCH  30  38
ENDBRANCH  20  30
TORSDOF 6
ENDMDL
MODEL 4
REMARK VINA RESULT:      -6.4     23.815     28.030
REMARK  Name = 
REMARK  8 active torsions:
REMARK  status: ('A' for Active; 'I' for Inactive)
REMARK    1  A    between atoms: O_1  and  C_21
REMARK    2  A    between atoms: O_1  and  C_38
REMARK    3  A    between atoms: O_4  and  C_26
REMARK    4  A    between atoms: N_7  and  C_11
REMARK    5  A    between atoms: C_26  and  C_33
REMARK    6  A    between atoms: C_29  and  C_37
REMARK    7  A    between atoms: C_33  and  C_42
REMARK    8  A    between atoms: C_37  and  C_43
REMARK                            x       y       z     vdW  Elec       q    Type
REMARK                         _______ _______ _______ _____ _____    ______ ____
ROOT
ATOM      1  O   UNL     1      12.439  17.565  34.600  0.00  0.00    +0.000 OA
ATOM      2  O   UNL     1      15.714  15.066  33.717  0.00  0.00    +0.000 OA
ATOM      3  O   UNL     1      11.997  19.642  35.335  0.00  0.00    +0.000 OA
ATOM      4  N   UNL     1      17.042  16.858  33.174  0.00  0.00    +0.000 N 
ATOM      5  N   UNL     1      19.123  19.637  32.272  0.00  0.00    +0.000 NA
ATOM      6  C   UNL     1      17.201  18.212  32.956  0.00  0.00    +0.000 A 
ATOM      7  C   UNL     1      19.249  17.229  32.571  0.00  0.00    +0.000 A 
ATOM      8  C   UNL     1      18.297  16.134  32.956  0.00  0.00    +0.000 C 
ATOM      9  C   UNL     1      14.876  18.542  33.498  0.00  0.00    +0.000 A 
ATOM     10  C   UNL     1      13.698  19.476  33.622  0.00  0.00    +0.000 C 
ATOM     11  C   UNL     1      18.588  18.451  32.574  0.00  0.00    +0.000 A 
ATOM     12  C   UNL     1      14.713  17.222  33.712  0.00  0.00    +0.000 A 
ATOM     13  C   UNL     1      20.594  17.187  32.233  0.00  0.00    +0.000 A 
ATOM     14  C   UNL     1      16.179  19.062  33.100  0.00  0.00    +0.000 A 
ATOM     15  C   UNL     1      15.859  16.272  33.542  0.00  0.00    +0.000 A 
ATOM     16  C   UNL     1      21.211  18.424  31.887  0.00  0.00    +0.000 A 
ATOM     17  C   UNL     1      13.410  16.620  34.105  0.00  0.00    +0.000 C 
ATOM     18  C   UNL     1      20.420  19.618  31.929  0.00  0.00    +0.000 A 
ATOM     19  C   UNL     1      12.657  18.897  34.608  0.00  0.00    +0.000 C 
ATOM     20  C   UNL     1      23.106  19.773  31.162  0.00  0.00    +0.000 A 
ATOM     21  C   UNL     1      22.565  18.535  31.502  0.00  0.00    +0.000 A 
ATOM     22  C   UNL     1      21.009  20.833  31.604  0.00  0.00    +0.000 A 
ATOM     23  C   UNL     1      22.348  20.930  31.226  0.00  0.00    +0.000 A 
ENDROOT
BRANCH  10  24
ATOM     24  O   UNL     1      14.158  20.733  34.137  0.00  0.00    +0.000 OA
ATOM     25  H   UNL     1      13.422  21.365  34.013  0.00  0.00    +0.000 HD
ENDBRANCH  10  24
BRANCH  10  26
ATOM     26  C   UNL     1      13.045  19.708  32.243  0.00  0.00    +0.000 C 
ATOM     27  C   UNL     1      12.687  21.162  31.949  0.00  0.00    +0.000 C 
ENDBRANCH  10  26
BRANCH  13  28
ATOM     28  C   UNL     1      21.321  15.864  32.213  0.00  0.00    +0.000 C 
ATOM     29  C   UNL     1      21.315  15.227  30.831  0.00  0.00    +0.000 C 
ENDBRANCH  13  28
BRANCH  20  30
ATOM     30  O   UNL     1      24.459  19.856  30.828  0.00  0.00    +0.000 OA
BRANCH  30  38
ATOM     31  O   UNL     1      25.185  22.054  30.898  0.00  0.00    +0.000 OA
ATOM     32  N   UNL     1      25.697  20.618  32.624  0.00  0.00    +0.000 N 
ATOM     33  C   UNL     1      27.728  19.817  34.572  0.00  0.00    +0.000 C 
ATOM     34  C   UNL     1      26.950  18.801  33.699  0.00  0.00    +0.000 C 
ATOM     35  C   UNL     1      27.764  21.174  33.824  0.00  0.00    +0.000 C 
ATOM     36  C   UNL     1      25.582  19.322  33.270  0.00  0.00    +0.000 C 
ATOM     37  C   UNL     1      26.377  21.641  33.394  0.00  0.00    +0.000 C 
ATOM     38  C   UNL     1      25.116  20.938  31.406  0.00  0.00    +0.000 C 
BRANCH  33  39
ATOM     39  N   UNL     1      29.103  19.332  34.911  0.00  0.00    +0.000 NA
ATOM     40  C   UNL     1      29.771  20.203  35.901  0.00  0.00    +0.000 C 
ATOM     41  C   UNL     1      29.100  17.934  35.391  0.00  0.00    +0.000 C 
ATOM     42  C   UNL     1      31.190  19.740  36.238  0.00  0.00    +0.000 C 
ATOM     43  C   UNL     1      30.502  17.414  35.716  0.00  0.00    +0.000 C 
ATOM     44  C   UNL     1      31.205  18.302  36.728  0.00  0.00    +0.000 C 
ENDBRANCH  33  39
ENDBRANCH  30  38
ENDBRANCH  20  30
TORSDOF 6
ENDMDL
MODEL 5
REMARK VINA RESULT:      -6.3     31.150     35.480
REMARK  Name = 
REMARK  8 active torsions:
REMARK  status: ('A' for Active; 'I' for Inactive)
REMARK    1  A    between atoms: O_1  and  C_21
REMARK    2  A    between atoms: O_1  and  C_38
REMARK    3  A    between atoms: O_4  and  C_26
REMARK    4  A    between atoms: N_7  and  C_11
REMARK    5  A    between atoms: C_26  and  C_33
REMARK    6  A    between atoms: C_29  and  C_37
REMARK    7  A    between atoms: C_33  and  C_42
REMARK    8  A    between atoms: C_37  and  C_43
REMARK                            x       y       z     vdW  Elec       q    Type
REMARK                         _______ _______ _______ _____ _____    ______ ____
ROOT
ATOM      1  O   UNL     1      50.882  13.405   2.543  0.00  0.00    +0.000 OA
ATOM      2  O   UNL     1      50.104  14.643  -1.408  0.00  0.00    +0.000 OA
ATOM      3  O   UNL     1      50.005  12.106   4.153  0.00  0.00    +0.000 OA
ATOM      4  N   UNL     1      48.990  12.694  -1.887  0.00  0.00    +0.000 N 
ATOM      5  N   UNL     1      47.289   9.638  -2.680  0.00  0.00    +0.000 NA
ATOM      6  C   UNL     1      48.585  11.424  -1.530  0.00  0.00    +0.000 A 
ATOM      7  C   UNL     1      47.796  11.801  -3.662  0.00  0.00    +0.000 A 
ATOM      8  C   UNL     1      48.535  13.037  -3.238  0.00  0.00    +0.000 C 
ATOM      9  C   UNL     1      49.668  11.711   0.603  0.00  0.00    +0.000 A 
ATOM     10  C   UNL     1      50.066  11.134   1.938  0.00  0.00    +0.000 C 
ATOM     11  C   UNL     1      47.834  10.856  -2.644  0.00  0.00    +0.000 A 
ATOM     12  C   UNL     1      50.068  12.951   0.261  0.00  0.00    +0.000 A 
ATOM     13  C   UNL     1      47.136  11.498  -4.845  0.00  0.00    +0.000 A 
ATOM     14  C   UNL     1      48.892  10.909  -0.336  0.00  0.00    +0.000 A 
ATOM     15  C   UNL     1      49.728  13.522  -1.082  0.00  0.00    +0.000 A 
ATOM     16  C   UNL     1      46.549  10.203  -4.941  0.00  0.00    +0.000 A 
ATOM     17  C   UNL     1      50.874  13.819   1.161  0.00  0.00    +0.000 C 
ATOM     18  C   UNL     1      46.657   9.318  -3.820  0.00  0.00    +0.000 A 
ATOM     19  C   UNL     1      50.293  12.266   2.966  0.00  0.00    +0.000 C 
ATOM     20  C   UNL     1      45.322   8.461  -6.125  0.00  0.00    +0.000 A 
ATOM     21  C   UNL     1      45.864   9.745  -6.088  0.00  0.00    +0.000 A 
ATOM     22  C   UNL     1      46.082   8.056  -3.894  0.00  0.00    +0.000 A 
ATOM     23  C   UNL     1      45.407   7.615  -5.032  0.00  0.00    +0.000 A 
ENDROOT
BRANCH  10  24
ATOM     24  O   UNL     1      49.002  10.298   2.415  0.00  0.00    +0.000 OA
ATOM     25  H   UNL     1      48.507  10.833   3.068  0.00  0.00    +0.000 HD
ENDBRANCH  10  24
BRANCH  10  26
ATOM     26  C   UNL     1      51.347  10.283   1.800  0.00  0.00    +0.000 C 
ATOM     27  C   UNL     1      51.140   8.787   2.018  0.00  0.00    +0.000 C 
ENDBRANCH  10  26
BRANCH  13  28
ATOM     28  C   UNL     1      47.098  12.510  -5.964  0.00  0.00    +0.000 C 
ATOM     29  C   UNL     1      45.896  13.437  -5.859  0.00  0.00    +0.000 C 
ENDBRANCH  13  28
BRANCH  20  30
ATOM     30  O   UNL     1      44.615   8.054  -7.257  0.00  0.00    +0.000 OA
BRANCH  30  38
ATOM     31  O   UNL     1      42.547   8.991  -6.794  0.00  0.00    +0.000 OA
ATOM     32  N   UNL     1      42.717   6.736  -7.232  0.00  0.00    +0.000 N 
ATOM     33  C   UNL     1      41.733   4.067  -6.549  0.00  0.00    +0.000 C 
ATOM     34  C   UNL     1      43.240   4.402  -6.676  0.00  0.00    +0.000 C 
ATOM     35  C   UNL     1      40.974   5.366  -6.178  0.00  0.00    +0.000 C 
ATOM     36  C   UNL     1      43.503   5.576  -7.616  0.00  0.00    +0.000 C 
ATOM     37  C   UNL     1      41.287   6.516  -7.130  0.00  0.00    +0.000 C 
ATOM     38  C   UNL     1      43.236   8.013  -7.073  0.00  0.00    +0.000 C 
BRANCH  33  39
ATOM     39  N   UNL     1      41.482   2.974  -5.556  0.00  0.00    +0.000 NA
ATOM     40  C   UNL     1      42.737   2.340  -5.100  0.00  0.00    +0.000 C 
ATOM     41  C   UNL     1      40.705   3.445  -4.391  0.00  0.00    +0.000 C 
ATOM     42  C   UNL     1      42.500   1.199  -4.108  0.00  0.00    +0.000 C 
ATOM     43  C   UNL     1      40.417   2.333  -3.379  0.00  0.00    +0.000 C 
ATOM     44  C   UNL     1      41.696   1.665  -2.906  0.00  0.00    +0.000 C 
ENDBRANCH  33  39
ENDBRANCH  30  38
ENDBRANCH  20  30
TORSDOF 6
ENDMDL
MODEL 6
REMARK VINA RESULT:      -6.3     13.719     17.403
REMARK  Name = 
REMARK  8 active torsions:
REMARK  status: ('A' for Active; 'I' for Inactive)
REMARK    1  A    between atoms: O_1  and  C_21
REMARK    2  A    between atoms: O_1  and  C_38
REMARK    3  A    between atoms: O_4  and  C_26
REMARK    4  A    between atoms: N_7  and  C_11
REMARK    5  A    between atoms: C_26  and  C_33
REMARK    6  A    between atoms: C_29  and  C_37
REMARK    7  A    between atoms: C_33  and  C_42
REMARK    8  A    between atoms: C_37  and  C_43
REMARK                            x       y       z     vdW  Elec       q    Type
REMARK                         _______ _______ _______ _____ _____    ______ ____
ROOT
ATOM      1  O   UNL     1      42.608  -5.416  29.253  0.00  0.00    +0.000 OA
ATOM      2  O   UNL     1      40.535  -2.340  31.252  0.00  0.00    +0.000 OA
ATOM      3  O   UNL     1      42.840  -7.650  29.288  0.00  0.00    +0.000 OA
ATOM      4  N   UNL     1      38.789  -3.738  31.768  0.00  0.00    +0.000 N 
ATOM      5  N   UNL     1      36.025  -5.888  32.545  0.00  0.00    +0.000 NA
ATOM      6  C   UNL     1      38.158  -4.961  31.659  0.00  0.00    +0.000 A 
ATOM      7  C   UNL     1      36.819  -3.634  32.985  0.00  0.00    +0.000 A 
ATOM      8  C   UNL     1      38.015  -2.813  32.600  0.00  0.00    +0.000 C 
ATOM      9  C   UNL     1      39.968  -5.738  30.271  0.00  0.00    +0.000 A 
ATOM     10  C   UNL     1      40.568  -6.830  29.421  0.00  0.00    +0.000 C 
ATOM     11  C   UNL     1      36.915  -4.901  32.421  0.00  0.00    +0.000 A 
ATOM     12  C   UNL     1      40.590  -4.547  30.374  0.00  0.00    +0.000 A 
ATOM     13  C   UNL     1      35.713  -3.321  33.762  0.00  0.00    +0.000 A 
ATOM     14  C   UNL     1      38.692  -5.955  30.943  0.00  0.00    +0.000 A 
ATOM     15  C   UNL     1      39.984  -3.433  31.170  0.00  0.00    +0.000 A 
ATOM     16  C   UNL     1      34.724  -4.335  33.914  0.00  0.00    +0.000 A 
ATOM     17  C   UNL     1      41.885  -4.251  29.703  0.00  0.00    +0.000 C 
ATOM     18  C   UNL     1      34.941  -5.602  33.282  0.00  0.00    +0.000 A 
ATOM     19  C   UNL     1      42.102  -6.665  29.340  0.00  0.00    +0.000 C 
ATOM     20  C   UNL     1      32.601  -5.184  34.758  0.00  0.00    +0.000 A 
ATOM     21  C   UNL     1      33.536  -4.156  34.658  0.00  0.00    +0.000 A 
ATOM     22  C   UNL     1      33.991  -6.605  33.428  0.00  0.00    +0.000 A 
ATOM     23  C   UNL     1      32.822  -6.416  34.166  0.00  0.00    +0.000 A 
ENDROOT
BRANCH  10  24
ATOM     24  O   UNL     1      40.282  -8.097  30.030  0.00  0.00    +0.000 OA
ATOM     25  H   UNL     1      40.985  -8.708  29.731  0.00  0.00    +0.000 HD
ENDBRANCH  10  24
BRANCH  10  26
ATOM     26  C   UNL     1      39.959  -6.807  28.003  0.00  0.00    +0.000 C 
ATOM     27  C   UNL     1      39.905  -8.168  27.315  0.00  0.00    +0.000 C 
ENDBRANCH  10  26
BRANCH  13  28
ATOM     28  C   UNL     1      35.589  -1.945  34.370  0.00  0.00    +0.000 C 
ATOM     29  C   UNL     1      35.256  -0.886  33.330  0.00  0.00    +0.000 C 
ENDBRANCH  13  28
BRANCH  20  30
ATOM     30  O   UNL     1      31.458  -4.990  35.535  0.00  0.00    +0.000 OA
BRANCH  30  38
ATOM     31  O   UNL     1      30.105  -4.502  33.720  0.00  0.00    +0.000 OA
ATOM     32  N   UNL     1      29.858  -3.330  35.687  0.00  0.00    +0.000 N 
ATOM     33  C   UNL     1      29.305  -0.718  36.885  0.00  0.00    +0.000 C 
ATOM     34  C   UNL     1      30.472  -1.627  37.346  0.00  0.00    +0.000 C 
ATOM     35  C   UNL     1      28.980  -1.055  35.407  0.00  0.00    +0.000 C 
ATOM     36  C   UNL     1      30.206  -3.106  37.080  0.00  0.00    +0.000 C 
ATOM     37  C   UNL     1      28.746  -2.546  35.187  0.00  0.00    +0.000 C 
ATOM     38  C   UNL     1      30.445  -4.295  34.882  0.00  0.00    +0.000 C 
BRANCH  33  39
ATOM     39  N   UNL     1      29.617   0.735  37.068  0.00  0.00    +0.000 NA
ATOM     40  C   UNL     1      29.638   1.122  38.495  0.00  0.00    +0.000 C 
ATOM     41  C   UNL     1      30.891   1.118  36.425  0.00  0.00    +0.000 C 
ATOM     42  C   UNL     1      29.925   2.611  38.702  0.00  0.00    +0.000 C 
ATOM     43  C   UNL     1      31.211   2.607  36.580  0.00  0.00    +0.000 C 
ATOM     44  C   UNL     1      31.229   3.024  38.040  0.00  0.00    +0.000 C 
ENDBRANCH  33  39
ENDBRANCH  30  38
ENDBRANCH  20  30
TORSDOF 6
ENDMDL
MODEL 7
REMARK VINA RESULT:      -6.3     32.117     35.809
REMARK  Name = 
REMARK  8 active torsions:
REMARK  status: ('A' for Active; 'I' for Inactive)
REMARK    1  A    between atoms: O_1  and  C_21
REMARK    2  A    between atoms: O_1  and  C_38
REMARK    3  A    between atoms: O_4  and  C_26
REMARK    4  A    between atoms: N_7  and  C_11
REMARK    5  A    between atoms: C_26  and  C_33
REMARK    6  A    between atoms: C_29  and  C_37
REMARK    7  A    between atoms: C_33  and  C_42
REMARK    8  A    between atoms: C_37  and  C_43
REMARK                            x       y       z     vdW  Elec       q    Type
REMARK                         _______ _______ _______ _____ _____    ______ ____
ROOT
ATOM      1  O   UNL     1      33.385  22.756  37.290  0.00  0.00    +0.000 OA
ATOM      2  O   UNL     1      31.511  26.521  37.537  0.00  0.00    +0.000 OA
ATOM      3  O   UNL     1      33.980  21.218  35.763  0.00  0.00    +0.000 OA
ATOM      4  N   UNL     1      32.216  27.103  35.432  0.00  0.00    +0.000 N 
ATOM      5  N   UNL     1      33.346  28.059  32.165  0.00  0.00    +0.000 NA
ATOM      6  C   UNL     1      32.955  26.837  34.297  0.00  0.00    +0.000 A 
ATOM      7  C   UNL     1      31.927  28.872  33.962  0.00  0.00    +0.000 A 
ATOM      8  C   UNL     1      31.515  28.385  35.321  0.00  0.00    +0.000 C 
ATOM      9  C   UNL     1      33.671  24.760  35.287  0.00  0.00    +0.000 A 
ATOM     10  C   UNL     1      34.511  23.510  35.203  0.00  0.00    +0.000 C 
ATOM     11  C   UNL     1      32.779  27.948  33.368  0.00  0.00    +0.000 A 
ATOM     12  C   UNL     1      32.952  25.014  36.398  0.00  0.00    +0.000 A 
ATOM     13  C   UNL     1      31.601  30.033  33.274  0.00  0.00    +0.000 A 
ATOM     14  C   UNL     1      33.675  25.717  34.186  0.00  0.00    +0.000 A 
ATOM     15  C   UNL     1      32.153  26.275  36.522  0.00  0.00    +0.000 A 
ATOM     16  C   UNL     1      32.192  30.208  31.990  0.00  0.00    +0.000 A 
ATOM     17  C   UNL     1      32.914  24.091  37.565  0.00  0.00    +0.000 C 
ATOM     18  C   UNL     1      33.055  29.180  31.488  0.00  0.00    +0.000 A 
ATOM     19  C   UNL     1      33.914  22.402  36.099  0.00  0.00    +0.000 C 
ATOM     20  C   UNL     1      32.590  31.464  29.939  0.00  0.00    +0.000 A 
ATOM     21  C   UNL     1      31.972  31.346  31.183  0.00  0.00    +0.000 A 
ATOM     22  C   UNL     1      33.632  29.332  30.233  0.00  0.00    +0.000 A 
ATOM     23  C   UNL     1      33.405  30.460  29.445  0.00  0.00    +0.000 A 
ENDROOT
BRANCH  10  24
ATOM     24  O   UNL     1      34.510  23.045  33.846  0.00  0.00    +0.000 OA
ATOM     25  H   UNL     1      34.202  22.117  33.877  0.00  0.00    +0.000 HD
ENDBRANCH  10  24
BRANCH  10  26
ATOM     26  C   UNL     1      35.965  23.807  35.630  0.00  0.00    +0.000 C 
ATOM     27  C   UNL     1      36.939  22.655  35.401  0.00  0.00    +0.000 C 
ENDBRANCH  10  26
BRANCH  13  28
ATOM     28  C   UNL     1      30.688  31.051  33.912  0.00  0.00    +0.000 C 
ATOM     29  C   UNL     1      29.241  30.876  33.477  0.00  0.00    +0.000 C 
ENDBRANCH  13  28
BRANCH  20  30
ATOM     30  O   UNL     1      32.318  32.581  29.148  0.00  0.00    +0.000 OA
BRANCH  30  38
ATOM     31  O   UNL     1      30.340  31.676  28.352  0.00  0.00    +0.000 OA
ATOM     32  N   UNL     1      31.640  32.988  26.977  0.00  0.00    +0.000 N 
ATOM     33  C   UNL     1      32.633  33.380  24.252  0.00  0.00    +0.000 C 
ATOM     34  C   UNL     1      33.549  33.440  25.500  0.00  0.00    +0.000 C 
ATOM     35  C   UNL     1      31.414  32.482  24.586  0.00  0.00    +0.000 C 
ATOM     36  C   UNL     1      32.795  33.844  26.764  0.00  0.00    +0.000 C 
ATOM     37  C   UNL     1      30.708  32.910  25.869  0.00  0.00    +0.000 C 
ATOM     38  C   UNL     1      31.346  32.358  28.177  0.00  0.00    +0.000 C 
BRANCH  33  39
ATOM     39  N   UNL     1      33.365  32.896  23.039  0.00  0.00    +0.000 NA
ATOM     40  C   UNL     1      34.644  32.242  23.387  0.00  0.00    +0.000 C 
ATOM     41  C   UNL     1      32.542  31.985  22.216  0.00  0.00    +0.000 C 
ATOM     42  C   UNL     1      35.423  31.767  22.158  0.00  0.00    +0.000 C 
ATOM     43  C   UNL     1      33.268  31.503  20.958  0.00  0.00    +0.000 C 
ATOM     44  C   UNL     1      34.588  30.835  21.297  0.00  0.00    +0.000 C 
ENDBRANCH  33  39
ENDBRANCH  30  38
ENDBRANCH  20  30
TORSDOF 6
ENDMDL
MODEL 8
REMARK VINA RESULT:      -6.2     36.842     40.394
REMARK  Name = 
REMARK  8 active torsions:
REMARK  status: ('A' for Active; 'I' for Inactive)
REMARK    1  A    between atoms: O_1  and  C_21
REMARK    2  A    between atoms: O_1  and  C_38
REMARK    3  A    between atoms: O_4  and  C_26
REMARK    4  A    between atoms: N_7  and  C_11
REMARK    5  A    between atoms: C_26  and  C_33
REMARK    6  A    between atoms: C_29  and  C_37
REMARK    7  A    between atoms: C_33  and  C_42
REMARK    8  A    between atoms: C_37  and  C_43
REMARK                            x       y       z     vdW  Elec       q    Type
REMARK                         _______ _______ _______ _____ _____    ______ ____
ROOT
ATOM      1  O   UNL     1      29.721  22.340  -3.641  0.00  0.00    +0.000 OA
ATOM      2  O   UNL     1      32.145  20.402  -6.491  0.00  0.00    +0.000 OA
ATOM      3  O   UNL     1      29.884  23.394  -1.663  0.00  0.00    +0.000 OA
ATOM      4  N   UNL     1      33.964  21.690  -5.943  0.00  0.00    +0.000 N 
ATOM      5  N   UNL     1      36.808  23.723  -5.142  0.00  0.00    +0.000 NA
ATOM      6  C   UNL     1      34.524  22.739  -5.243  0.00  0.00    +0.000 A 
ATOM      7  C   UNL     1      36.204  21.817  -6.523  0.00  0.00    +0.000 A 
ATOM      8  C   UNL     1      34.956  21.028  -6.795  0.00  0.00    +0.000 C 
ATOM      9  C   UNL     1      32.381  23.170  -4.229  0.00  0.00    +0.000 A 
ATOM     10  C   UNL     1      31.528  24.022  -3.324  0.00  0.00    +0.000 C 
ATOM     11  C   UNL     1      35.935  22.825  -5.605  0.00  0.00    +0.000 A 
ATOM     12  C   UNL     1      31.827  22.147  -4.910  0.00  0.00    +0.000 A 
ATOM     13  C   UNL     1      37.490  21.688  -7.030  0.00  0.00    +0.000 A 
ATOM     14  C   UNL     1      33.795  23.482  -4.405  0.00  0.00    +0.000 A 
ATOM     15  C   UNL     1      32.647  21.323  -5.854  0.00  0.00    +0.000 A 
ATOM     16  C   UNL     1      38.458  22.631  -6.579  0.00  0.00    +0.000 A 
ATOM     17  C   UNL     1      30.389  21.781  -4.792  0.00  0.00    +0.000 C 
ATOM     18  C   UNL     1      38.055  23.625  -5.630  0.00  0.00    +0.000 A 
ATOM     19  C   UNL     1      30.324  23.207  -2.799  0.00  0.00    +0.000 C 
ATOM     20  C   UNL     1      40.696  23.596  -6.553  0.00  0.00    +0.000 A 
ATOM     21  C   UNL     1      39.799  22.638  -7.022  0.00  0.00    +0.000 A 
ATOM     22  C   UNL     1      38.989  24.546  -5.173  0.00  0.00    +0.000 A 
ATOM     23  C   UNL     1      40.311  24.542  -5.617  0.00  0.00    +0.000 A 
ENDROOT
BRANCH  10  24
ATOM     24  O   UNL     1      32.318  24.434  -2.200  0.00  0.00    +0.000 OA
ATOM     25  H   UNL     1      33.021  25.012  -2.558  0.00  0.00    +0.000 HD
ENDBRANCH  10  24
BRANCH  10  26
ATOM     26  C   UNL     1      31.029  25.276  -4.073  0.00  0.00    +0.000 C 
ATOM     27  C   UNL     1      31.869  26.528  -3.839  0.00  0.00    +0.000 C 
ENDBRANCH  10  26
BRANCH  13  28
ATOM     28  C   UNL     1      37.794  20.605  -8.037  0.00  0.00    +0.000 C 
ATOM     29  C   UNL     1      38.236  19.311  -7.372  0.00  0.00    +0.000 C 
ENDBRANCH  13  28
BRANCH  20  30
ATOM     30  O   UNL     1      42.024  23.550  -6.977  0.00  0.00    +0.000 OA
BRANCH  30  38
ATOM     31  O   UNL     1      42.252  22.352  -8.946  0.00  0.00    +0.000 OA
ATOM     32  N   UNL     1      42.752  21.357  -6.930  0.00  0.00    +0.000 N 
ATOM     33  C   UNL     1      42.635  18.887  -5.365  0.00  0.00    +0.000 C 
ATOM     34  C   UNL     1      42.205  20.265  -4.800  0.00  0.00    +0.000 C 
ATOM     35  C   UNL     1      42.468  18.919  -6.906  0.00  0.00    +0.000 C 
ATOM     36  C   UNL     1      42.913  21.428  -5.488  0.00  0.00    +0.000 C 
ATOM     37  C   UNL     1      43.171  20.112  -7.545  0.00  0.00    +0.000 C 
ATOM     38  C   UNL     1      42.337  22.417  -7.723  0.00  0.00    +0.000 C 
BRANCH  33  39
ATOM     39  N   UNL     1      41.867  17.761  -4.746  0.00  0.00    +0.000 NA
ATOM     40  C   UNL     1      40.648  18.233  -4.056  0.00  0.00    +0.000 C 
ATOM     41  C   UNL     1      41.516  16.716  -5.730  0.00  0.00    +0.000 C 
ATOM     42  C   UNL     1      39.865  17.100  -3.389  0.00  0.00    +0.000 C 
ATOM     43  C   UNL     1      40.754  15.544  -5.106  0.00  0.00    +0.000 C 
ATOM     44  C   UNL     1      39.501  16.013  -4.387  0.00  0.00    +0.000 C 
ENDBRANCH  33  39
ENDBRANCH  30  38
ENDBRANCH  20  30
TORSDOF 6
ENDMDL
MODEL 9
REMARK VINA RESULT:      -5.9     31.471     37.375
REMARK  Name = 
REMARK  8 active torsions:
REMARK  status: ('A' for Active; 'I' for Inactive)
REMARK    1  A    between atoms: O_1  and  C_21
REMARK    2  A    between atoms: O_1  and  C_38
REMARK    3  A    between atoms: O_4  and  C_26
REMARK    4  A    between atoms: N_7  and  C_11
REMARK    5  A    between atoms: C_26  and  C_33
REMARK    6  A    between atoms: C_29  and  C_37
REMARK    7  A    between atoms: C_33  and  C_42
REMARK    8  A    between atoms: C_37  and  C_43
REMARK                            x       y       z     vdW  Elec       q    Type
REMARK                         _______ _______ _______ _____ _____    ______ ____
ROOT
ATOM      1  O   UNL     1      37.412  17.929 -13.320  0.00  0.00    +0.000 OA
ATOM      2  O   UNL     1      33.866  15.664 -13.107  0.00  0.00    +0.000 OA
ATOM      3  O   UNL     1      39.055  18.697 -11.993  0.00  0.00    +0.000 OA
ATOM      4  N   UNL     1      34.640  14.467 -11.308  0.00  0.00    +0.000 N 
ATOM      5  N   UNL     1      35.844  12.546  -8.529  0.00  0.00    +0.000 NA
ATOM      6  C   UNL     1      35.652  14.142 -10.429  0.00  0.00    +0.000 A 
ATOM      7  C   UNL     1      33.833  12.847  -9.860  0.00  0.00    +0.000 A 
ATOM      8  C   UNL     1      33.426  13.694 -11.030  0.00  0.00    +0.000 C 
ATOM      9  C   UNL     1      37.083  15.736 -11.533  0.00  0.00    +0.000 A 
ATOM     10  C   UNL     1      38.440  16.381 -11.665  0.00  0.00    +0.000 C 
ATOM     11  C   UNL     1      35.152  13.121  -9.515  0.00  0.00    +0.000 A 
ATOM     12  C   UNL     1      36.098  16.058 -12.395  0.00  0.00    +0.000 A 
ATOM     13  C   UNL     1      33.127  11.897  -9.135  0.00  0.00    +0.000 A 
ATOM     14  C   UNL     1      36.850  14.730 -10.502  0.00  0.00    +0.000 A 
ATOM     15  C   UNL     1      34.760  15.390 -12.314  0.00  0.00    +0.000 A 
ATOM     16  C   UNL     1      33.825  11.241  -8.080  0.00  0.00    +0.000 A 
ATOM     17  C   UNL     1      36.269  17.063 -13.480  0.00  0.00    +0.000 C 
ATOM     18  C   UNL     1      35.184  11.614  -7.824  0.00  0.00    +0.000 A 
ATOM     19  C   UNL     1      38.310  17.773 -12.324  0.00  0.00    +0.000 C 
ATOM     20  C   UNL     1      33.985   9.626  -6.262  0.00  0.00    +0.000 A 
ATOM     21  C   UNL     1      33.245  10.239  -7.271  0.00  0.00    +0.000 A 
ATOM     22  C   UNL     1      35.876  10.991  -6.792  0.00  0.00    +0.000 A 
ATOM     23  C   UNL     1      35.291  10.004  -5.999  0.00  0.00    +0.000 A 
ENDROOT
BRANCH  10  24
ATOM     24  O   UNL     1      38.998  16.551 -10.355  0.00  0.00    +0.000 OA
ATOM     25  H   UNL     1      39.134  15.651  -9.997  0.00  0.00    +0.000 HD
ENDBRANCH  10  24
BRANCH  10  26
ATOM     26  C   UNL     1      39.383  15.489 -12.500  0.00  0.00    +0.000 C 
ATOM     27  C   UNL     1      40.736  15.214 -11.848  0.00  0.00    +0.000 C 
ENDBRANCH  10  26
BRANCH  13  28
ATOM     28  C   UNL     1      31.699  11.580  -9.507  0.00  0.00    +0.000 C 
ATOM     29  C   UNL     1      30.713  12.553  -8.878  0.00  0.00    +0.000 C 
ENDBRANCH  13  28
BRANCH  20  30
ATOM     30  O   UNL     1      33.370   8.671  -5.452  0.00  0.00    +0.000 OA
BRANCH  30  38
ATOM     31  O   UNL     1      33.231   6.822  -6.841  0.00  0.00    +0.000 OA
ATOM     32  N   UNL     1      31.309   7.797  -6.028  0.00  0.00    +0.000 N 
ATOM     33  C   UNL     1      28.541   8.534  -6.624  0.00  0.00    +0.000 C 
ATOM     34  C   UNL     1      29.548   9.507  -5.959  0.00  0.00    +0.000 C 
ATOM     35  C   UNL     1      29.340   7.505  -7.463  0.00  0.00    +0.000 C 
ATOM     36  C   UNL     1      30.645   8.778  -5.187  0.00  0.00    +0.000 C 
ATOM     37  C   UNL     1      30.439   6.822  -6.656  0.00  0.00    +0.000 C 
ATOM     38  C   UNL     1      32.686   7.688  -6.163  0.00  0.00    +0.000 C 
BRANCH  33  39
ATOM     39  N   UNL     1      27.524   9.257  -7.451  0.00  0.00    +0.000 NA
ATOM     40  C   UNL     1      26.577  10.029  -6.618  0.00  0.00    +0.000 C 
ATOM     41  C   UNL     1      28.148  10.144  -8.455  0.00  0.00    +0.000 C 
ATOM     42  C   UNL     1      25.510  10.750  -7.444  0.00  0.00    +0.000 C 
ATOM     43  C   UNL     1      27.121  10.871  -9.327  0.00  0.00    +0.000 C 
ATOM     44  C   UNL     1      26.135  11.662  -8.485  0.00  0.00    +0.000 C 
ENDBRANCH  33  39
ENDBRANCH  30  38
ENDBRANCH  20  30
TORSDOF 6
ENDMDL
