MODEL 1
REMARK VINA RESULT:      -6.9      0.000      0.000
REMARK  Name = 
REMARK  4 active torsions:
REMARK  status: ('A' for Active; 'I' for Inactive)
REMARK    1  A    between atoms: C_1  and  C_6
REMARK    2  A    between atoms: C_1  and  C_7
REMARK    3  A    between atoms: C_9  and  C_14
REMARK    4  A    between atoms: C_11  and  C_15
REMARK                            x       y       z     vdW  Elec       q    Type
REMARK                         _______ _______ _______ _____ _____    ______ ____
ROOT
ATOM      1  C   UNL     1      44.570  -4.548  12.866  0.00  0.00    +0.000 C 
ATOM      2  C   UNL     1      44.284  -5.976  12.411  0.00  0.00    +0.000 C 
ATOM      3  C   UNL     1      45.703  -5.469  12.445  0.00  0.00    +0.000 C 
ATOM      4  C   UNL     1      43.560  -6.218  11.164  0.00  0.00    +0.000 C 
ATOM      5  C   UNL     1      46.502  -5.316  11.189  0.00  0.00    +0.000 C 
ATOM      6  C   UNL     1      44.197  -3.365  12.004  0.00  0.00    +0.000 C 
ATOM      7  C   UNL     1      44.436  -4.260  14.342  0.00  0.00    +0.000 C 
ATOM      8  C   UNL     1      44.002  -6.574   9.942  0.00  0.00    +0.000 C 
ATOM      9  C   UNL     1      42.052  -6.062  11.174  0.00  0.00    +0.000 C 
ATOM     10  C   UNL     1      46.563  -6.643  10.433  0.00  0.00    +0.000 C 
ATOM     11  C   UNL     1      45.402  -6.840   9.438  0.00  0.00    +0.000 C 
ATOM     12  C   UNL     1      42.857  -6.660   8.966  0.00  0.00    +0.000 C 
ATOM     13  C   UNL     1      41.731  -5.927   9.686  0.00  0.00    +0.000 C 
ATOM     14  C   UNL     1      41.352  -7.262  11.808  0.00  0.00    +0.000 C 
ATOM     15  C   UNL     1      45.506  -8.252   8.844  0.00  0.00    +0.000 C 
ENDROOT
TORSDOF 0
ENDMDL
MODEL 2
REMARK VINA RESULT:      -6.9      1.769      4.680
REMARK  Name = 
REMARK  4 active torsions:
REMARK  status: ('A' for Active; 'I' for Inactive)
REMARK    1  A    between atoms: C_1  and  C_6
REMARK    2  A    between atoms: C_1  and  C_7
REMARK    3  A    between atoms: C_9  and  C_14
REMARK    4  A    between atoms: C_11  and  C_15
REMARK                            x       y       z     vdW  Elec       q    Type
REMARK                         _______ _______ _______ _____ _____    ______ ____
ROOT
ATOM      1  C   UNL     1      42.527  -6.224   9.819  0.00  0.00    +0.000 C 
ATOM      2  C   UNL     1      43.733  -5.889  10.691  0.00  0.00    +0.000 C 
ATOM      3  C   UNL     1      42.884  -7.092  11.014  0.00  0.00    +0.000 C 
ATOM      4  C   UNL     1      43.733  -4.678  11.510  0.00  0.00    +0.000 C 
ATOM      5  C   UNL     1      42.091  -7.164  12.281  0.00  0.00    +0.000 C 
ATOM      6  C   UNL     1      41.280  -5.372   9.850  0.00  0.00    +0.000 C 
ATOM      7  C   UNL     1      42.809  -6.796   8.450  0.00  0.00    +0.000 C 
ATOM      8  C   UNL     1      43.510  -4.503  12.827  0.00  0.00    +0.000 C 
ATOM      9  C   UNL     1      44.028  -3.356  10.828  0.00  0.00    +0.000 C 
ATOM     10  C   UNL     1      43.006  -6.975  13.491  0.00  0.00    +0.000 C 
ATOM     11  C   UNL     1      43.176  -5.502  13.912  0.00  0.00    +0.000 C 
ATOM     12  C   UNL     1      43.582  -3.043  13.191  0.00  0.00    +0.000 C 
ATOM     13  C   UNL     1      43.492  -2.344  11.840  0.00  0.00    +0.000 C 
ATOM     14  C   UNL     1      45.518  -3.167  10.556  0.00  0.00    +0.000 C 
ATOM     15  C   UNL     1      44.209  -5.437  15.046  0.00  0.00    +0.000 C 
ENDROOT
TORSDOF 0
ENDMDL
MODEL 3
REMARK VINA RESULT:      -6.9      1.051      3.893
REMARK  Name = 
REMARK  4 active torsions:
REMARK  status: ('A' for Active; 'I' for Inactive)
REMARK    1  A    between atoms: C_1  and  C_6
REMARK    2  A    between atoms: C_1  and  C_7
REMARK    3  A    between atoms: C_9  and  C_14
REMARK    4  A    between atoms: C_11  and  C_15
REMARK                            x       y       z     vdW  Elec       q    Type
REMARK                         _______ _______ _______ _____ _____    ______ ____
ROOT
ATOM      1  C   UNL     1      42.064  -5.704  10.272  0.00  0.00    +0.000 C 
ATOM      2  C   UNL     1      43.303  -4.830  10.438  0.00  0.00    +0.000 C 
ATOM      3  C   UNL     1      43.342  -6.020   9.513  0.00  0.00    +0.000 C 
ATOM      4  C   UNL     1      44.013  -4.798  11.714  0.00  0.00    +0.000 C 
ATOM      5  C   UNL     1      44.231  -7.190   9.791  0.00  0.00    +0.000 C 
ATOM      6  C   UNL     1      41.599  -6.618  11.382  0.00  0.00    +0.000 C 
ATOM      7  C   UNL     1      40.919  -5.126   9.474  0.00  0.00    +0.000 C 
ATOM      8  C   UNL     1      45.148  -5.408  12.109  0.00  0.00    +0.000 C 
ATOM      9  C   UNL     1      43.433  -3.953  12.832  0.00  0.00    +0.000 C 
ATOM     10  C   UNL     1      45.683  -6.734   9.927  0.00  0.00    +0.000 C 
ATOM     11  C   UNL     1      46.075  -6.342  11.366  0.00  0.00    +0.000 C 
ATOM     12  C   UNL     1      45.452  -5.088  13.550  0.00  0.00    +0.000 C 
ATOM     13  C   UNL     1      44.135  -4.522  14.065  0.00  0.00    +0.000 C 
ATOM     14  C   UNL     1      43.720  -2.466  12.640  0.00  0.00    +0.000 C 
ATOM     15  C   UNL     1      47.506  -5.785  11.344  0.00  0.00    +0.000 C 
ENDROOT
TORSDOF 0
ENDMDL
MODEL 4
REMARK VINA RESULT:      -6.8      1.235      3.592
REMARK  Name = 
REMARK  4 active torsions:
REMARK  status: ('A' for Active; 'I' for Inactive)
REMARK    1  A    between atoms: C_1  and  C_6
REMARK    2  A    between atoms: C_1  and  C_7
REMARK    3  A    between atoms: C_9  and  C_14
REMARK    4  A    between atoms: C_11  and  C_15
REMARK                            x       y       z     vdW  Elec       q    Type
REMARK                         _______ _______ _______ _____ _____    ______ ____
ROOT
ATOM      1  C   UNL     1      43.237  -4.985  13.969  0.00  0.00    +0.000 C 
ATOM      2  C   UNL     1      43.473  -4.599  12.512  0.00  0.00    +0.000 C 
ATOM      3  C   UNL     1      42.152  -5.196  12.926  0.00  0.00    +0.000 C 
ATOM      4  C   UNL     1      44.453  -5.327  11.709  0.00  0.00    +0.000 C 
ATOM      5  C   UNL     1      41.710  -6.531  12.415  0.00  0.00    +0.000 C 
ATOM      6  C   UNL     1      43.935  -6.175  14.584  0.00  0.00    +0.000 C 
ATOM      7  C   UNL     1      43.030  -3.857  14.952  0.00  0.00    +0.000 C 
ATOM      8  C   UNL     1      44.293  -6.293  10.783  0.00  0.00    +0.000 C 
ATOM      9  C   UNL     1      45.919  -4.990  11.896  0.00  0.00    +0.000 C 
ATOM     10  C   UNL     1      41.698  -6.537  10.887  0.00  0.00    +0.000 C 
ATOM     11  C   UNL     1      43.042  -6.960  10.260  0.00  0.00    +0.000 C 
ATOM     12  C   UNL     1      45.629  -6.759  10.262  0.00  0.00    +0.000 C 
ATOM     13  C   UNL     1      46.612  -6.211  11.289  0.00  0.00    +0.000 C 
ATOM     14  C   UNL     1      46.309  -3.695  11.188  0.00  0.00    +0.000 C 
ATOM     15  C   UNL     1      42.938  -6.802   8.736  0.00  0.00    +0.000 C 
ENDROOT
TORSDOF 0
ENDMDL
MODEL 5
REMARK VINA RESULT:      -6.1      1.280      3.710
REMARK  Name = 
REMARK  4 active torsions:
REMARK  status: ('A' for Active; 'I' for Inactive)
REMARK    1  A    between atoms: C_1  and  C_6
REMARK    2  A    between atoms: C_1  and  C_7
REMARK    3  A    between atoms: C_9  and  C_14
REMARK    4  A    between atoms: C_11  and  C_15
REMARK                            x       y       z     vdW  Elec       q    Type
REMARK                         _______ _______ _______ _____ _____    ______ ____
ROOT
ATOM      1  C   UNL     1      46.139  -4.834  11.153  0.00  0.00    +0.000 C 
ATOM      2  C   UNL     1      45.446  -5.849  12.058  0.00  0.00    +0.000 C 
ATOM      3  C   UNL     1      45.416  -6.032  10.561  0.00  0.00    +0.000 C 
ATOM      4  C   UNL     1      44.268  -5.460  12.830  0.00  0.00    +0.000 C 
ATOM      5  C   UNL     1      44.132  -5.960   9.797  0.00  0.00    +0.000 C 
ATOM      6  C   UNL     1      45.576  -3.444  10.966  0.00  0.00    +0.000 C 
ATOM      7  C   UNL     1      47.648  -4.862  11.123  0.00  0.00    +0.000 C 
ATOM      8  C   UNL     1      42.957  -5.683  12.613  0.00  0.00    +0.000 C 
ATOM      9  C   UNL     1      44.482  -4.670  14.107  0.00  0.00    +0.000 C 
ATOM     10  C   UNL     1      43.127  -6.969  10.350  0.00  0.00    +0.000 C 
ATOM     11  C   UNL     1      42.253  -6.408  11.490  0.00  0.00    +0.000 C 
ATOM     12  C   UNL     1      42.121  -5.037  13.688  0.00  0.00    +0.000 C 
ATOM     13  C   UNL     1      43.096  -4.073  14.353  0.00  0.00    +0.000 C 
ATOM     14  C   UNL     1      44.942  -5.555  15.263  0.00  0.00    +0.000 C 
ATOM     15  C   UNL     1      41.383  -7.548  12.040  0.00  0.00    +0.000 C 
ENDROOT
TORSDOF 0
ENDMDL
MODEL 6
REMARK VINA RESULT:      -5.9     14.352     17.297
REMARK  Name = 
REMARK  4 active torsions:
REMARK  status: ('A' for Active; 'I' for Inactive)
REMARK    1  A    between atoms: C_1  and  C_6
REMARK    2  A    between atoms: C_1  and  C_7
REMARK    3  A    between atoms: C_9  and  C_14
REMARK    4  A    between atoms: C_11  and  C_15
REMARK                            x       y       z     vdW  Elec       q    Type
REMARK                         _______ _______ _______ _____ _____    ______ ____
ROOT
ATOM      1  C   UNL     1      28.924  -5.124  12.142  0.00  0.00    +0.000 C 
ATOM      2  C   UNL     1      27.624  -5.266  12.928  0.00  0.00    +0.000 C 
ATOM      3  C   UNL     1      27.799  -4.118  11.967  0.00  0.00    +0.000 C 
ATOM      4  C   UNL     1      27.620  -5.089  14.379  0.00  0.00    +0.000 C 
ATOM      5  C   UNL     1      27.840  -2.702  12.449  0.00  0.00    +0.000 C 
ATOM      6  C   UNL     1      30.207  -4.711  12.824  0.00  0.00    +0.000 C 
ATOM      7  C   UNL     1      29.151  -6.100  11.012  0.00  0.00    +0.000 C 
ATOM      8  C   UNL     1      27.244  -4.042  15.139  0.00  0.00    +0.000 C 
ATOM      9  C   UNL     1      28.109  -6.239  15.238  0.00  0.00    +0.000 C 
ATOM     10  C   UNL     1      26.578  -2.376  13.247  0.00  0.00    +0.000 C 
ATOM     11  C   UNL     1      26.701  -2.686  14.752  0.00  0.00    +0.000 C 
ATOM     12  C   UNL     1      27.471  -4.336  16.600  0.00  0.00    +0.000 C 
ATOM     13  C   UNL     1      28.395  -5.547  16.571  0.00  0.00    +0.000 C 
ATOM     14  C   UNL     1      27.062  -7.342  15.375  0.00  0.00    +0.000 C 
ATOM     15  C   UNL     1      25.337  -2.438  15.412  0.00  0.00    +0.000 C 
ENDROOT
TORSDOF 0
ENDMDL
MODEL 7
REMARK VINA RESULT:      -5.5     29.196     30.910
REMARK  Name = 
REMARK  4 active torsions:
REMARK  status: ('A' for Active; 'I' for Inactive)
REMARK    1  A    between atoms: C_1  and  C_6
REMARK    2  A    between atoms: C_1  and  C_7
REMARK    3  A    between atoms: C_9  and  C_14
REMARK    4  A    between atoms: C_11  and  C_15
REMARK                            x       y       z     vdW  Elec       q    Type
REMARK                         _______ _______ _______ _____ _____    ______ ____
ROOT
ATOM      1  C   UNL     1      15.226   3.613   4.499  0.00  0.00    +0.000 C 
ATOM      2  C   UNL     1      16.179   3.478   5.683  0.00  0.00    +0.000 C 
ATOM      3  C   UNL     1      15.287   2.324   5.301  0.00  0.00    +0.000 C 
ATOM      4  C   UNL     1      15.967   4.274   6.890  0.00  0.00    +0.000 C 
ATOM      5  C   UNL     1      14.209   1.840   6.219  0.00  0.00    +0.000 C 
ATOM      6  C   UNL     1      14.002   4.495   4.579  0.00  0.00    +0.000 C 
ATOM      7  C   UNL     1      15.840   3.590   3.120  0.00  0.00    +0.000 C 
ATOM      8  C   UNL     1      15.427   3.947   8.080  0.00  0.00    +0.000 C 
ATOM      9  C   UNL     1      16.409   5.725   6.873  0.00  0.00    +0.000 C 
ATOM     10  C   UNL     1      14.797   1.466   7.579  0.00  0.00    +0.000 C 
ATOM     11  C   UNL     1      14.846   2.642   8.574  0.00  0.00    +0.000 C 
ATOM     12  C   UNL     1      15.395   5.142   8.998  0.00  0.00    +0.000 C 
ATOM     13  C   UNL     1      15.632   6.313   8.052  0.00  0.00    +0.000 C 
ATOM     14  C   UNL     1      17.919   5.871   7.047  0.00  0.00    +0.000 C 
ATOM     15  C   UNL     1      15.569   2.172   9.845  0.00  0.00    +0.000 C 
ENDROOT
TORSDOF 0
ENDMDL
MODEL 8
REMARK VINA RESULT:      -5.4     35.979     38.599
REMARK  Name = 
REMARK  4 active torsions:
REMARK  status: ('A' for Active; 'I' for Inactive)
REMARK    1  A    between atoms: C_1  and  C_6
REMARK    2  A    between atoms: C_1  and  C_7
REMARK    3  A    between atoms: C_9  and  C_14
REMARK    4  A    between atoms: C_11  and  C_15
REMARK                            x       y       z     vdW  Elec       q    Type
REMARK                         _______ _______ _______ _____ _____    ______ ____
ROOT
ATOM      1  C   UNL     1      21.914  21.464  31.168  0.00  0.00    +0.000 C 
ATOM      2  C   UNL     1      22.395  20.570  30.029  0.00  0.00    +0.000 C 
ATOM      3  C   UNL     1      21.113  20.242  30.752  0.00  0.00    +0.000 C 
ATOM      4  C   UNL     1      23.613  19.778  30.182  0.00  0.00    +0.000 C 
ATOM      5  C   UNL     1      20.980  18.994  31.567  0.00  0.00    +0.000 C 
ATOM      6  C   UNL     1      22.628  21.483  32.500  0.00  0.00    +0.000 C 
ATOM      7  C   UNL     1      21.351  22.813  30.789  0.00  0.00    +0.000 C 
ATOM      8  C   UNL     1      23.788  18.471  30.458  0.00  0.00    +0.000 C 
ATOM      9  C   UNL     1      24.946  20.481  30.012  0.00  0.00    +0.000 C 
ATOM     10  C   UNL     1      21.290  17.766  30.711  0.00  0.00    +0.000 C 
ATOM     11  C   UNL     1      22.780  17.373  30.712  0.00  0.00    +0.000 C 
ATOM     12  C   UNL     1      25.255  18.137  30.552  0.00  0.00    +0.000 C 
ATOM     13  C   UNL     1      25.914  19.505  30.680  0.00  0.00    +0.000 C 
ATOM     14  C   UNL     1      25.290  20.720  28.543  0.00  0.00    +0.000 C 
ATOM     15  C   UNL     1      22.977  16.216  29.723  0.00  0.00    +0.000 C 
ENDROOT
TORSDOF 0
ENDMDL
MODEL 9
REMARK VINA RESULT:      -5.2     14.190     16.554
REMARK  Name = 
REMARK  4 active torsions:
REMARK  status: ('A' for Active; 'I' for Inactive)
REMARK    1  A    between atoms: C_1  and  C_6
REMARK    2  A    between atoms: C_1  and  C_7
REMARK    3  A    between atoms: C_9  and  C_14
REMARK    4  A    between atoms: C_11  and  C_15
REMARK                            x       y       z     vdW  Elec       q    Type
REMARK                         _______ _______ _______ _____ _____    ______ ____
ROOT
ATOM      1  C   UNL     1      26.639  -6.246  15.142  0.00  0.00    +0.000 C 
ATOM      2  C   UNL     1      26.880  -5.592  13.784  0.00  0.00    +0.000 C 
ATOM      3  C   UNL     1      26.622  -7.076  13.869  0.00  0.00    +0.000 C 
ATOM      4  C   UNL     1      28.191  -5.035  13.459  0.00  0.00    +0.000 C 
ATOM      5  C   UNL     1      27.674  -8.069  13.486  0.00  0.00    +0.000 C 
ATOM      6  C   UNL     1      27.764  -6.413  16.138  0.00  0.00    +0.000 C 
ATOM      7  C   UNL     1      25.308  -5.980  15.804  0.00  0.00    +0.000 C 
ATOM      8  C   UNL     1      29.197  -5.526  12.710  0.00  0.00    +0.000 C 
ATOM      9  C   UNL     1      28.547  -3.675  14.026  0.00  0.00    +0.000 C 
ATOM     10  C   UNL     1      28.142  -7.819  12.053  0.00  0.00    +0.000 C 
ATOM     11  C   UNL     1      29.319  -6.828  11.952  0.00  0.00    +0.000 C 
ATOM     12  C   UNL     1      30.373  -4.582  12.713  0.00  0.00    +0.000 C 
ATOM     13  C   UNL     1      30.069  -3.653  13.881  0.00  0.00    +0.000 C 
ATOM     14  C   UNL     1      27.878  -2.537  13.259  0.00  0.00    +0.000 C 
ATOM     15  C   UNL     1      29.607  -6.566  10.466  0.00  0.00    +0.000 C 
ENDROOT
TORSDOF 0
ENDMDL
