MODEL 1
REMARK VINA RESULT:      -6.5      0.000      0.000
REMARK  Name = JAK3_Inhibitor.pdbqt.pdb
REMARK  1 active torsions:
REMARK  status: ('A' for Active; 'I' for Inactive)
REMARK    1  A    between atoms: C_7  and  C_20
REMARK                            x       y       z     vdW  Elec       q    Type
REMARK                         _______ _______ _______ _____ _____    ______ ____
ROOT
ATOM      1  O   UNL     1      13.011   5.156  29.784  0.00  0.00    +0.000 OA
ATOM      2  N   UNL     1      13.960   3.034  29.498  0.00  0.00    +0.000 N 
ATOM      3  C   UNL     1      15.247   3.397  27.634  0.00  0.00    +0.000 A 
ATOM      4  C   UNL     1      14.848   2.459  28.588  0.00  0.00    +0.000 A 
ATOM      5  C   UNL     1      14.559   4.629  27.980  0.00  0.00    +0.000 C 
ATOM      6  C   UNL     1      16.127   3.056  26.625  0.00  0.00    +0.000 A 
ATOM      7  C   UNL     1      16.623   1.742  26.570  0.00  0.00    +0.000 A 
ATOM      8  C   UNL     1      13.728   4.371  29.195  0.00  0.00    +0.000 C 
ATOM      9  C   UNL     1      15.306   1.160  28.576  0.00  0.00    +0.000 A 
ATOM     10  C   UNL     1      14.622   5.771  27.374  0.00  0.00    +0.000 C 
ATOM     11  C   UNL     1      16.196   0.820  27.556  0.00  0.00    +0.000 A 
ATOM     12  H   UNL     1      13.530   2.564  30.282  0.00  0.00    +0.000 HD
ATOM     13  N   UNL     1      13.948   8.130  27.185  0.00  0.00    +0.000 N 
ATOM     14  C   UNL     1      14.657   7.043  26.747  0.00  0.00    +0.000 C 
ATOM     15  C   UNL     1      15.371   7.423  25.634  0.00  0.00    +0.000 C 
ATOM     16  C   UNL     1      14.200   9.198  26.365  0.00  0.00    +0.000 C 
ATOM     17  C   UNL     1      15.081   8.786  25.392  0.00  0.00    +0.000 C 
ATOM     18  H   UNL     1      13.334   8.141  27.989  0.00  0.00    +0.000 HD
ENDROOT
BRANCH   7  20
ATOM     19  N   UNL     1      19.468   1.866  24.095  0.00  0.00    +0.000 NA
ATOM     20  C   UNL     1      17.560   1.335  25.517  0.00  0.00    +0.000 A 
ATOM     21  C   UNL     1      17.496   0.080  24.909  0.00  0.00    +0.000 A 
ATOM     22  C   UNL     1      18.572   2.174  25.059  0.00  0.00    +0.000 A 
ATOM     23  C   UNL     1      18.394  -0.287  23.913  0.00  0.00    +0.000 A 
ATOM     24  C   UNL     1      19.355   0.638  23.546  0.00  0.00    +0.000 A 
ENDBRANCH   7  20
TORSDOF 1
ENDMDL
MODEL 2
REMARK VINA RESULT:      -6.1     31.376     33.943
REMARK  Name = JAK3_Inhibitor.pdbqt.pdb
REMARK  1 active torsions:
REMARK  status: ('A' for Active; 'I' for Inactive)
REMARK    1  A    between atoms: C_7  and  C_20
REMARK                            x       y       z     vdW  Elec       q    Type
REMARK                         _______ _______ _______ _____ _____    ______ ____
ROOT
ATOM      1  O   UNL     1      24.323  29.922   6.395  0.00  0.00    +0.000 OA
ATOM      2  N   UNL     1      23.530  27.719   6.457  0.00  0.00    +0.000 N 
ATOM      3  C   UNL     1      24.433  26.891   4.518  0.00  0.00    +0.000 A 
ATOM      4  C   UNL     1      23.648  26.598   5.635  0.00  0.00    +0.000 A 
ATOM      5  C   UNL     1      24.821  28.284   4.663  0.00  0.00    +0.000 C 
ATOM      6  C   UNL     1      24.690  25.933   3.558  0.00  0.00    +0.000 A 
ATOM      7  C   UNL     1      24.151  24.645   3.720  0.00  0.00    +0.000 A 
ATOM      8  C   UNL     1      24.223  28.803   5.931  0.00  0.00    +0.000 C 
ATOM      9  C   UNL     1      23.098  25.352   5.839  0.00  0.00    +0.000 A 
ATOM     10  C   UNL     1      25.552  28.993   3.863  0.00  0.00    +0.000 C 
ATOM     11  C   UNL     1      23.362  24.385   4.866  0.00  0.00    +0.000 A 
ATOM     12  H   UNL     1      23.015  27.763   7.325  0.00  0.00    +0.000 HD
ATOM     13  N   UNL     1      26.635  31.125   3.282  0.00  0.00    +0.000 N 
ATOM     14  C   UNL     1      26.347  29.810   3.020  0.00  0.00    +0.000 C 
ATOM     15  C   UNL     1      26.957  29.471   1.835  0.00  0.00    +0.000 C 
ATOM     16  C   UNL     1      27.420  31.627   2.278  0.00  0.00    +0.000 C 
ATOM     17  C   UNL     1      27.636  30.620   1.366  0.00  0.00    +0.000 C 
ATOM     18  H   UNL     1      26.316  31.641   4.090  0.00  0.00    +0.000 HD
ENDROOT
BRANCH   7  20
ATOM     19  N   UNL     1      23.848  21.401   1.818  0.00  0.00    +0.000 NA
ATOM     20  C   UNL     1      24.399  23.595   2.725  0.00  0.00    +0.000 A 
ATOM     21  C   UNL     1      25.379  23.722   1.739  0.00  0.00    +0.000 A 
ATOM     22  C   UNL     1      23.673  22.408   2.702  0.00  0.00    +0.000 A 
ATOM     23  C   UNL     1      25.599  22.715   0.805  0.00  0.00    +0.000 A 
ATOM     24  C   UNL     1      24.810  21.582   0.889  0.00  0.00    +0.000 A 
ENDBRANCH   7  20
TORSDOF 1
ENDMDL
MODEL 3
REMARK VINA RESULT:      -5.8     13.993     16.905
REMARK  Name = JAK3_Inhibitor.pdbqt.pdb
REMARK  1 active torsions:
REMARK  status: ('A' for Active; 'I' for Inactive)
REMARK    1  A    between atoms: C_7  and  C_20
REMARK                            x       y       z     vdW  Elec       q    Type
REMARK                         _______ _______ _______ _____ _____    ______ ____
ROOT
ATOM      1  O   UNL     1      24.804  19.704  29.943  0.00  0.00    +0.000 OA
ATOM      2  N   UNL     1      22.921  18.337  29.677  0.00  0.00    +0.000 N 
ATOM      3  C   UNL     1      23.015  17.107  31.611  0.00  0.00    +0.000 A 
ATOM      4  C   UNL     1      22.311  17.330  30.426  0.00  0.00    +0.000 A 
ATOM      5  C   UNL     1      24.130  18.039  31.588  0.00  0.00    +0.000 C 
ATOM      6  C   UNL     1      22.600  16.152  32.517  0.00  0.00    +0.000 A 
ATOM      7  C   UNL     1      21.448  15.399  32.231  0.00  0.00    +0.000 A 
ATOM      8  C   UNL     1      24.050  18.829  30.321  0.00  0.00    +0.000 C 
ATOM      9  C   UNL     1      21.177  16.618  30.101  0.00  0.00    +0.000 A 
ATOM     10  C   UNL     1      25.055  18.194  32.481  0.00  0.00    +0.000 C 
ATOM     11  C   UNL     1      20.760  15.653  31.021  0.00  0.00    +0.000 A 
ATOM     12  H   UNL     1      22.603  18.682  28.782  0.00  0.00    +0.000 HD
ATOM     13  N   UNL     1      27.091  19.325  33.276  0.00  0.00    +0.000 N 
ATOM     14  C   UNL     1      26.089  18.402  33.429  0.00  0.00    +0.000 C 
ATOM     15  C   UNL     1      26.287  17.757  34.627  0.00  0.00    +0.000 C 
ATOM     16  C   UNL     1      27.924  19.275  34.362  0.00  0.00    +0.000 C 
ATOM     17  C   UNL     1      27.448  18.309  35.217  0.00  0.00    +0.000 C 
ATOM     18  H   UNL     1      27.196  19.945  32.484  0.00  0.00    +0.000 HD
ENDROOT
BRANCH   7  20
ATOM     19  N   UNL     1      20.565  12.022  33.664  0.00  0.00    +0.000 NA
ATOM     20  C   UNL     1      20.969  14.374  33.165  0.00  0.00    +0.000 A 
ATOM     21  C   UNL     1      20.463  14.695  34.427  0.00  0.00    +0.000 A 
ATOM     22  C   UNL     1      20.989  13.018  32.854  0.00  0.00    +0.000 A 
ATOM     23  C   UNL     1      20.014  13.709  35.298  0.00  0.00    +0.000 A 
ATOM     24  C   UNL     1      20.087  12.396  34.869  0.00  0.00    +0.000 A 
ENDBRANCH   7  20
TORSDOF 1
ENDMDL
MODEL 4
REMARK VINA RESULT:      -5.7     16.369     19.660
REMARK  Name = JAK3_Inhibitor.pdbqt.pdb
REMARK  1 active torsions:
REMARK  status: ('A' for Active; 'I' for Inactive)
REMARK    1  A    between atoms: C_7  and  C_20
REMARK                            x       y       z     vdW  Elec       q    Type
REMARK                         _______ _______ _______ _____ _____    ______ ____
ROOT
ATOM      1  O   UNL     1      24.771  24.408  31.841  0.00  0.00    +0.000 OA
ATOM      2  N   UNL     1      22.996  23.209  30.893  0.00  0.00    +0.000 N 
ATOM      3  C   UNL     1      23.543  21.073  31.527  0.00  0.00    +0.000 A 
ATOM      4  C   UNL     1      22.621  21.866  30.841  0.00  0.00    +0.000 A 
ATOM      5  C   UNL     1      24.551  21.990  32.033  0.00  0.00    +0.000 C 
ATOM      6  C   UNL     1      23.382  19.704  31.611  0.00  0.00    +0.000 A 
ATOM      7  C   UNL     1      22.267  19.112  30.994  0.00  0.00    +0.000 A 
ATOM      8  C   UNL     1      24.176  23.373  31.609  0.00  0.00    +0.000 C 
ATOM      9  C   UNL     1      21.513  21.332  30.220  0.00  0.00    +0.000 A 
ATOM     10  C   UNL     1      25.605  21.706  32.730  0.00  0.00    +0.000 C 
ATOM     11  C   UNL     1      21.353  19.947  30.309  0.00  0.00    +0.000 A 
ATOM     12  H   UNL     1      22.493  23.979  30.474  0.00  0.00    +0.000 HD
ATOM     13  N   UNL     1      27.645  22.419  33.907  0.00  0.00    +0.000 N 
ATOM     14  C   UNL     1      26.771  21.447  33.494  0.00  0.00    +0.000 C 
ATOM     15  C   UNL     1      27.236  20.237  33.953  0.00  0.00    +0.000 C 
ATOM     16  C   UNL     1      28.661  21.843  34.621  0.00  0.00    +0.000 C 
ATOM     17  C   UNL     1      28.432  20.487  34.665  0.00  0.00    +0.000 C 
ATOM     18  H   UNL     1      27.551  23.407  33.713  0.00  0.00    +0.000 HD
ENDROOT
BRANCH   7  20
ATOM     19  N   UNL     1      21.280  15.713  32.302  0.00  0.00    +0.000 NA
ATOM     20  C   UNL     1      22.055  17.661  31.058  0.00  0.00    +0.000 A 
ATOM     21  C   UNL     1      22.393  16.813  30.002  0.00  0.00    +0.000 A 
ATOM     22  C   UNL     1      21.503  17.040  32.175  0.00  0.00    +0.000 A 
ATOM     23  C   UNL     1      22.183  15.440  30.082  0.00  0.00    +0.000 A 
ATOM     24  C   UNL     1      21.627  14.945  31.248  0.00  0.00    +0.000 A 
ENDBRANCH   7  20
TORSDOF 1
ENDMDL
MODEL 5
REMARK VINA RESULT:      -5.6     11.623     14.027
REMARK  Name = JAK3_Inhibitor.pdbqt.pdb
REMARK  1 active torsions:
REMARK  status: ('A' for Active; 'I' for Inactive)
REMARK    1  A    between atoms: C_7  and  C_20
REMARK                            x       y       z     vdW  Elec       q    Type
REMARK                         _______ _______ _______ _____ _____    ______ ____
ROOT
ATOM      1  O   UNL     1      24.943  -5.748  31.478  0.00  0.00    +0.000 OA
ATOM      2  N   UNL     1      26.238  -6.668  29.757  0.00  0.00    +0.000 N 
ATOM      3  C   UNL     1      26.932  -4.762  28.685  0.00  0.00    +0.000 A 
ATOM      4  C   UNL     1      26.987  -6.157  28.696  0.00  0.00    +0.000 A 
ATOM      5  C   UNL     1      26.093  -4.392  29.813  0.00  0.00    +0.000 C 
ATOM      6  C   UNL     1      27.598  -4.031  27.722  0.00  0.00    +0.000 A 
ATOM      7  C   UNL     1      28.342  -4.713  26.744  0.00  0.00    +0.000 A 
ATOM      8  C   UNL     1      25.653  -5.647  30.496  0.00  0.00    +0.000 C 
ATOM      9  C   UNL     1      27.702  -6.871  27.760  0.00  0.00    +0.000 A 
ATOM     10  C   UNL     1      25.757  -3.202  30.197  0.00  0.00    +0.000 C 
ATOM     11  C   UNL     1      28.376  -6.127  26.788  0.00  0.00    +0.000 A 
ATOM     12  H   UNL     1      26.122  -7.646  29.980  0.00  0.00    +0.000 HD
ATOM     13  N   UNL     1      24.557  -1.715  31.747  0.00  0.00    +0.000 N 
ATOM     14  C   UNL     1      25.363  -1.920  30.657  0.00  0.00    +0.000 C 
ATOM     15  C   UNL     1      25.689  -0.690  30.135  0.00  0.00    +0.000 C 
ATOM     16  C   UNL     1      24.366  -0.370  31.925  0.00  0.00    +0.000 C 
ATOM     17  C   UNL     1      25.058   0.290  30.936  0.00  0.00    +0.000 C 
ATOM     18  H   UNL     1      24.166  -2.445  32.328  0.00  0.00    +0.000 HD
ENDROOT
BRANCH   7  20
ATOM     19  N   UNL     1      30.634  -2.213  25.091  0.00  0.00    +0.000 NA
ATOM     20  C   UNL     1      29.067  -3.977  25.702  0.00  0.00    +0.000 A 
ATOM     21  C   UNL     1      28.929  -4.280  24.345  0.00  0.00    +0.000 A 
ATOM     22  C   UNL     1      29.936  -2.932  25.998  0.00  0.00    +0.000 A 
ATOM     23  C   UNL     1      29.625  -3.571  23.372  0.00  0.00    +0.000 A 
ATOM     24  C   UNL     1      30.460  -2.553  23.797  0.00  0.00    +0.000 A 
ENDBRANCH   7  20
TORSDOF 1
ENDMDL
MODEL 6
REMARK VINA RESULT:      -5.6      5.628      8.189
REMARK  Name = JAK3_Inhibitor.pdbqt.pdb
REMARK  1 active torsions:
REMARK  status: ('A' for Active; 'I' for Inactive)
REMARK    1  A    between atoms: C_7  and  C_20
REMARK                            x       y       z     vdW  Elec       q    Type
REMARK                         _______ _______ _______ _____ _____    ______ ____
ROOT
ATOM      1  O   UNL     1      10.253  10.249  34.044  0.00  0.00    +0.000 OA
ATOM      2  N   UNL     1      12.407   9.661  33.336  0.00  0.00    +0.000 N 
ATOM      3  C   UNL     1      12.026   9.264  31.109  0.00  0.00    +0.000 A 
ATOM      4  C   UNL     1      12.986   9.285  32.123  0.00  0.00    +0.000 A 
ATOM      5  C   UNL     1      10.776   9.652  31.741  0.00  0.00    +0.000 C 
ATOM      6  C   UNL     1      12.364   8.918  29.816  0.00  0.00    +0.000 A 
ATOM      7  C   UNL     1      13.699   8.587  29.528  0.00  0.00    +0.000 A 
ATOM      8  C   UNL     1      11.047   9.905  33.189  0.00  0.00    +0.000 C 
ATOM      9  C   UNL     1      14.306   8.968  31.891  0.00  0.00    +0.000 A 
ATOM     10  C   UNL     1       9.610   9.770  31.190  0.00  0.00    +0.000 C 
ATOM     11  C   UNL     1      14.644   8.620  30.581  0.00  0.00    +0.000 A 
ATOM     12  H   UNL     1      12.891   9.752  34.218  0.00  0.00    +0.000 HD
ATOM     13  N   UNL     1       7.211  10.289  31.356  0.00  0.00    +0.000 N 
ATOM     14  C   UNL     1       8.314   9.914  30.634  0.00  0.00    +0.000 C 
ATOM     15  C   UNL     1       7.920   9.717  29.331  0.00  0.00    +0.000 C 
ATOM     16  C   UNL     1       6.120  10.334  30.529  0.00  0.00    +0.000 C 
ATOM     17  C   UNL     1       6.532   9.983  29.265  0.00  0.00    +0.000 C 
ATOM     18  H   UNL     1       7.205  10.500  32.345  0.00  0.00    +0.000 HD
ENDROOT
BRANCH   7  20
ATOM     19  N   UNL     1      14.683   6.477  26.558  0.00  0.00    +0.000 NA
ATOM     20  C   UNL     1      14.105   8.214  28.167  0.00  0.00    +0.000 A 
ATOM     21  C   UNL     1      14.310   9.165  27.166  0.00  0.00    +0.000 A 
ATOM     22  C   UNL     1      14.310   6.891  27.790  0.00  0.00    +0.000 A 
ATOM     23  C   UNL     1      14.694   8.793  25.883  0.00  0.00    +0.000 A 
ATOM     24  C   UNL     1      14.865   7.443  25.634  0.00  0.00    +0.000 A 
ENDBRANCH   7  20
TORSDOF 1
ENDMDL
MODEL 7
REMARK VINA RESULT:      -5.4     19.869     20.682
REMARK  Name = JAK3_Inhibitor.pdbqt.pdb
REMARK  1 active torsions:
REMARK  status: ('A' for Active; 'I' for Inactive)
REMARK    1  A    between atoms: C_7  and  C_20
REMARK                            x       y       z     vdW  Elec       q    Type
REMARK                         _______ _______ _______ _____ _____    ______ ____
ROOT
ATOM      1  O   UNL     1      33.516  12.860  34.619  0.00  0.00    +0.000 OA
ATOM      2  N   UNL     1      34.252  10.730  33.979  0.00  0.00    +0.000 N 
ATOM      3  C   UNL     1      33.314   9.446  35.632  0.00  0.00    +0.000 A 
ATOM      4  C   UNL     1      34.098   9.436  34.477  0.00  0.00    +0.000 A 
ATOM      5  C   UNL     1      32.963  10.838  35.858  0.00  0.00    +0.000 C 
ATOM      6  C   UNL     1      33.024   8.276  36.306  0.00  0.00    +0.000 A 
ATOM      7  C   UNL     1      33.531   7.062  35.811  0.00  0.00    +0.000 A 
ATOM      8  C   UNL     1      33.584  11.656  34.772  0.00  0.00    +0.000 C 
ATOM      9  C   UNL     1      34.618   8.273  33.953  0.00  0.00    +0.000 A 
ATOM     10  C   UNL     1      32.245  11.331  36.817  0.00  0.00    +0.000 C 
ATOM     11  C   UNL     1      34.322   7.092  34.637  0.00  0.00    +0.000 A 
ATOM     12  H   UNL     1      34.774  10.987  33.153  0.00  0.00    +0.000 HD
ATOM     13  N   UNL     1      31.214  13.263  37.938  0.00  0.00    +0.000 N 
ATOM     14  C   UNL     1      31.466  11.919  37.844  0.00  0.00    +0.000 C 
ATOM     15  C   UNL     1      30.837  11.296  38.898  0.00  0.00    +0.000 C 
ATOM     16  C   UNL     1      30.434  13.504  39.038  0.00  0.00    +0.000 C 
ATOM     17  C   UNL     1      30.186  12.299  39.653  0.00  0.00    +0.000 C 
ATOM     18  H   UNL     1      31.552  13.965  37.294  0.00  0.00    +0.000 HD
ENDROOT
BRANCH   7  20
ATOM     19  N   UNL     1      31.708   3.961  36.948  0.00  0.00    +0.000 NA
ATOM     20  C   UNL     1      33.249   5.795  36.493  0.00  0.00    +0.000 A 
ATOM     21  C   UNL     1      34.180   5.177  37.330  0.00  0.00    +0.000 A 
ATOM     22  C   UNL     1      32.035   5.129  36.351  0.00  0.00    +0.000 A 
ATOM     23  C   UNL     1      33.894   3.975  37.968  0.00  0.00    +0.000 A 
ATOM     24  C   UNL     1      32.650   3.413  37.744  0.00  0.00    +0.000 A 
ENDBRANCH   7  20
TORSDOF 1
ENDMDL
MODEL 8
REMARK VINA RESULT:      -5.4     12.348     13.149
REMARK  Name = JAK3_Inhibitor.pdbqt.pdb
REMARK  1 active torsions:
REMARK  status: ('A' for Active; 'I' for Inactive)
REMARK    1  A    between atoms: C_7  and  C_20
REMARK                            x       y       z     vdW  Elec       q    Type
REMARK                         _______ _______ _______ _____ _____    ______ ____
ROOT
ATOM      1  O   UNL     1      21.367  13.689  37.489  0.00  0.00    +0.000 OA
ATOM      2  N   UNL     1      21.709  11.683  38.649  0.00  0.00    +0.000 N 
ATOM      3  C   UNL     1      22.196  10.268  36.910  0.00  0.00    +0.000 A 
ATOM      4  C   UNL     1      22.039  10.374  38.293  0.00  0.00    +0.000 A 
ATOM      5  C   UNL     1      21.945  11.599  36.381  0.00  0.00    +0.000 C 
ATOM      6  C   UNL     1      22.523   9.063  36.321  0.00  0.00    +0.000 A 
ATOM      7  C   UNL     1      22.701   7.933  37.138  0.00  0.00    +0.000 A 
ATOM      8  C   UNL     1      21.631  12.503  37.529  0.00  0.00    +0.000 C 
ATOM      9  C   UNL     1      22.202   9.297  39.135  0.00  0.00    +0.000 A 
ATOM     10  C   UNL     1      21.976  11.981  35.145  0.00  0.00    +0.000 C 
ATOM     11  C   UNL     1      22.534   8.080  38.536  0.00  0.00    +0.000 A 
ATOM     12  H   UNL     1      21.544  12.016  39.588  0.00  0.00    +0.000 HD
ATOM     13  N   UNL     1      21.738  13.746  33.447  0.00  0.00    +0.000 N 
ATOM     14  C   UNL     1      21.998  12.450  33.807  0.00  0.00    +0.000 C 
ATOM     15  C   UNL     1      22.271  11.739  32.661  0.00  0.00    +0.000 C 
ATOM     16  C   UNL     1      21.840  13.870  32.087  0.00  0.00    +0.000 C 
ATOM     17  C   UNL     1      22.170  12.638  31.573  0.00  0.00    +0.000 C 
ATOM     18  H   UNL     1      21.506  14.494  34.088  0.00  0.00    +0.000 HD
ENDROOT
BRANCH   7  20
ATOM     19  N   UNL     1      23.505   4.257  36.863  0.00  0.00    +0.000 NA
ATOM     20  C   UNL     1      23.050   6.632  36.556  0.00  0.00    +0.000 A 
ATOM     21  C   UNL     1      23.268   6.464  35.187  0.00  0.00    +0.000 A 
ATOM     22  C   UNL     1      23.186   5.484  37.331  0.00  0.00    +0.000 A 
ATOM     23  C   UNL     1      23.598   5.223  34.655  0.00  0.00    +0.000 A 
ATOM     24  C   UNL     1      23.703   4.159  35.532  0.00  0.00    +0.000 A 
ENDBRANCH   7  20
TORSDOF 1
ENDMDL
MODEL 9
REMARK VINA RESULT:      -5.2     21.960     24.843
REMARK  Name = JAK3_Inhibitor.pdbqt.pdb
REMARK  1 active torsions:
REMARK  status: ('A' for Active; 'I' for Inactive)
REMARK    1  A    between atoms: C_7  and  C_20
REMARK                            x       y       z     vdW  Elec       q    Type
REMARK                         _______ _______ _______ _____ _____    ______ ____
ROOT
ATOM      1  O   UNL     1      32.992  -7.625  29.666  0.00  0.00    +0.000 OA
ATOM      2  N   UNL     1      35.258  -7.034  29.695  0.00  0.00    +0.000 N 
ATOM      3  C   UNL     1      36.129  -8.634  28.300  0.00  0.00    +0.000 A 
ATOM      4  C   UNL     1      36.420  -7.525  29.098  0.00  0.00    +0.000 A 
ATOM      5  C   UNL     1      34.695  -8.837  28.415  0.00  0.00    +0.000 C 
ATOM      6  C   UNL     1      37.125  -9.294  27.608  0.00  0.00    +0.000 A 
ATOM      7  C   UNL     1      38.448  -8.831  27.714  0.00  0.00    +0.000 A 
ATOM      8  C   UNL     1      34.149  -7.785  29.326  0.00  0.00    +0.000 C 
ATOM      9  C   UNL     1      37.700  -7.035  29.234  0.00  0.00    +0.000 A 
ATOM     10  C   UNL     1      33.974  -9.752  27.849  0.00  0.00    +0.000 C 
ATOM     11  C   UNL     1      38.704  -7.704  28.531  0.00  0.00    +0.000 A 
ATOM     12  H   UNL     1      35.204  -6.238  30.315  0.00  0.00    +0.000 HD
ATOM     13  N   UNL     1      31.788 -10.808  27.451  0.00  0.00    +0.000 N 
ATOM     14  C   UNL     1      33.141 -10.732  27.253  0.00  0.00    +0.000 C 
ATOM     15  C   UNL     1      33.502 -11.750  26.400  0.00  0.00    +0.000 C 
ATOM     16  C   UNL     1      31.281 -11.861  26.738  0.00  0.00    +0.000 C 
ATOM     17  C   UNL     1      32.325 -12.464  26.075  0.00  0.00    +0.000 C 
ATOM     18  H   UNL     1      31.248 -10.182  28.035  0.00  0.00    +0.000 HD
ENDROOT
BRANCH   7  20
ATOM     19  N   UNL     1      41.864  -9.513  26.262  0.00  0.00    +0.000 NA
ATOM     20  C   UNL     1      39.539  -9.500  26.995  0.00  0.00    +0.000 A 
ATOM     21  C   UNL     1      39.364 -10.729  26.355  0.00  0.00    +0.000 A 
ATOM     22  C   UNL     1      40.815  -8.953  26.906  0.00  0.00    +0.000 A 
ATOM     23  C   UNL     1      40.409 -11.347  25.679  0.00  0.00    +0.000 A 
ATOM     24  C   UNL     1      41.632 -10.700  25.664  0.00  0.00    +0.000 A 
ENDBRANCH   7  20
TORSDOF 1
ENDMDL
