MODEL 1
REMARK VINA RESULT:      -8.0      0.000      0.000
REMARK  Name = Lobelin.pdbqt.pdb
REMARK  3 active torsions:
REMARK  status: ('A' for Active; 'I' for Inactive)
REMARK    1  A    between atoms: C_9  and  O_10
REMARK    2  A    between atoms: C_9  and  C_12
REMARK    3  A    between atoms: C_19  and  C_21
REMARK                            x       y       z     vdW  Elec       q    Type
REMARK                         _______ _______ _______ _____ _____    ______ ____
ROOT
ATOM      1  N   UNL     1      24.876  -2.765  14.343  0.00  0.00    +0.000 N 
ATOM      2  C   UNL     1      25.990  -2.299  13.524  0.00  0.00    +0.000 C 
ATOM      3  C   UNL     1      23.617  -2.025  14.355  0.00  0.00    +0.000 C 
ATOM      4  C   UNL     1      25.716  -1.132  12.747  0.00  0.00    +0.000 C 
ATOM      5  C   UNL     1      23.585  -0.885  13.495  0.00  0.00    +0.000 C 
ATOM      6  C   UNL     1      24.541  -0.193  12.543  0.00  0.00    +0.000 C 
ATOM      7  C   UNL     1      25.056  -3.886  15.238  0.00  0.00    +0.000 C 
ATOM      8  C   UNL     1      27.247  -2.963  13.492  0.00  0.00    +0.000 C 
ATOM      9  C   UNL     1      28.490  -3.646  13.447  0.00  0.00    +0.000 C 
ATOM     10  C   UNL     1      22.513  -2.419  15.153  0.00  0.00    +0.000 C 
ATOM     11  C   UNL     1      21.382  -2.839  15.937  0.00  0.00    +0.000 C 
ATOM     12  O   UNL     1      20.297  -2.979  15.391  0.00  0.00    +0.000 OA
ENDROOT
BRANCH   9  13
ATOM     13  C   UNL     1      28.659  -5.016  12.962  0.00  0.00    +0.000 A 
ATOM     14  C   UNL     1      29.509  -5.296  11.888  0.00  0.00    +0.000 A 
ATOM     15  C   UNL     1      29.671  -6.601  11.426  0.00  0.00    +0.000 A 
ATOM     16  C   UNL     1      28.983  -7.644  12.037  0.00  0.00    +0.000 A 
ATOM     17  C   UNL     1      28.133  -7.383  13.107  0.00  0.00    +0.000 A 
ATOM     18  C   UNL     1      27.974  -6.075  13.564  0.00  0.00    +0.000 A 
ENDBRANCH   9  13
BRANCH  11  19
ATOM     19  C   UNL     1      21.573  -3.075  17.378  0.00  0.00    +0.000 A 
ATOM     20  C   UNL     1      22.845  -3.055  17.952  0.00  0.00    +0.000 A 
ATOM     21  C   UNL     1      22.993  -3.275  19.319  0.00  0.00    +0.000 A 
ATOM     22  C   UNL     1      21.872  -3.512  20.112  0.00  0.00    +0.000 A 
ATOM     23  C   UNL     1      20.602  -3.528  19.539  0.00  0.00    +0.000 A 
ATOM     24  C   UNL     1      20.451  -3.309  18.172  0.00  0.00    +0.000 A 
ENDBRANCH  11  19
BRANCH   9  25
ATOM     25  O   UNL     1      29.624  -2.993  13.875  0.00  0.00    +0.000 OA
ATOM     26  H   UNL     1      29.490  -2.032  13.930  0.00  0.00    +0.000 HD
ENDBRANCH   9  25
TORSDOF 3
ENDMDL
MODEL 2
REMARK VINA RESULT:      -7.6     25.502     29.199
REMARK  Name = Lobelin.pdbqt.pdb
REMARK  3 active torsions:
REMARK  status: ('A' for Active; 'I' for Inactive)
REMARK    1  A    between atoms: C_9  and  O_10
REMARK    2  A    between atoms: C_9  and  C_12
REMARK    3  A    between atoms: C_19  and  C_21
REMARK                            x       y       z     vdW  Elec       q    Type
REMARK                         _______ _______ _______ _____ _____    ______ ____
ROOT
ATOM      1  N   UNL     1      22.532  21.628   1.383  0.00  0.00    +0.000 N 
ATOM      2  C   UNL     1      23.073  22.449   0.306  0.00  0.00    +0.000 C 
ATOM      3  C   UNL     1      22.257  20.212   1.158  0.00  0.00    +0.000 C 
ATOM      4  C   UNL     1      23.332  21.746  -0.911  0.00  0.00    +0.000 C 
ATOM      5  C   UNL     1      22.597  19.736  -0.146  0.00  0.00    +0.000 C 
ATOM      6  C   UNL     1      23.176  20.324  -1.419  0.00  0.00    +0.000 C 
ATOM      7  C   UNL     1      22.148  22.240   2.636  0.00  0.00    +0.000 C 
ATOM      8  C   UNL     1      23.335  23.838   0.458  0.00  0.00    +0.000 C 
ATOM      9  C   UNL     1      23.617  25.218   0.627  0.00  0.00    +0.000 C 
ATOM     10  C   UNL     1      21.707  19.376   2.163  0.00  0.00    +0.000 C 
ATOM     11  C   UNL     1      21.180  18.521   3.193  0.00  0.00    +0.000 C 
ATOM     12  O   UNL     1      21.762  17.480   3.460  0.00  0.00    +0.000 OA
ENDROOT
BRANCH   9  13
ATOM     13  C   UNL     1      24.599  25.748   1.573  0.00  0.00    +0.000 A 
ATOM     14  C   UNL     1      24.567  25.379   2.921  0.00  0.00    +0.000 A 
ATOM     15  C   UNL     1      25.502  25.883   3.823  0.00  0.00    +0.000 A 
ATOM     16  C   UNL     1      26.484  26.765   3.384  0.00  0.00    +0.000 A 
ATOM     17  C   UNL     1      26.529  27.144   2.046  0.00  0.00    +0.000 A 
ATOM     18  C   UNL     1      25.591  26.638   1.149  0.00  0.00    +0.000 A 
ENDBRANCH   9  13
BRANCH  11  19
ATOM     19  C   UNL     1      19.945  18.931   3.884  0.00  0.00    +0.000 A 
ATOM     20  C   UNL     1      19.188  18.016   4.617  0.00  0.00    +0.000 A 
ATOM     21  C   UNL     1      18.029  18.435   5.264  0.00  0.00    +0.000 A 
ATOM     22  C   UNL     1      17.627  19.766   5.180  0.00  0.00    +0.000 A 
ATOM     23  C   UNL     1      18.384  20.681   4.450  0.00  0.00    +0.000 A 
ATOM     24  C   UNL     1      19.544  20.264   3.802  0.00  0.00    +0.000 A 
ENDBRANCH  11  19
BRANCH   9  25
ATOM     25  O   UNL     1      22.939  26.135  -0.144  0.00  0.00    +0.000 OA
ATOM     26  H   UNL     1      21.976  26.010  -0.094  0.00  0.00    +0.000 HD
ENDBRANCH   9  25
TORSDOF 3
ENDMDL
MODEL 3
REMARK VINA RESULT:      -7.3      0.347      8.015
REMARK  Name = Lobelin.pdbqt.pdb
REMARK  3 active torsions:
REMARK  status: ('A' for Active; 'I' for Inactive)
REMARK    1  A    between atoms: C_9  and  O_10
REMARK    2  A    between atoms: C_9  and  C_12
REMARK    3  A    between atoms: C_19  and  C_21
REMARK                            x       y       z     vdW  Elec       q    Type
REMARK                         _______ _______ _______ _____ _____    ______ ____
ROOT
ATOM      1  N   UNL     1      24.810  -2.930  14.422  0.00  0.00    +0.000 N 
ATOM      2  C   UNL     1      23.515  -2.260  14.474  0.00  0.00    +0.000 C 
ATOM      3  C   UNL     1      25.876  -2.399  13.577  0.00  0.00    +0.000 C 
ATOM      4  C   UNL     1      23.424  -1.071  13.686  0.00  0.00    +0.000 C 
ATOM      5  C   UNL     1      25.545  -1.197  12.880  0.00  0.00    +0.000 C 
ATOM      6  C   UNL     1      24.336  -0.290  12.758  0.00  0.00    +0.000 C 
ATOM      7  C   UNL     1      25.001  -4.189  15.108  0.00  0.00    +0.000 C 
ATOM      8  C   UNL     1      22.432  -2.745  15.256  0.00  0.00    +0.000 C 
ATOM      9  C   UNL     1      21.364  -3.222  16.059  0.00  0.00    +0.000 C 
ATOM     10  C   UNL     1      27.144  -3.026  13.472  0.00  0.00    +0.000 C 
ATOM     11  C   UNL     1      28.441  -3.644  13.391  0.00  0.00    +0.000 C 
ATOM     12  O   UNL     1      29.438  -2.966  13.590  0.00  0.00    +0.000 OA
ENDROOT
BRANCH   9  13
ATOM     13  C   UNL     1      21.412  -3.320  17.519  0.00  0.00    +0.000 A 
ATOM     14  C   UNL     1      22.635  -3.327  18.196  0.00  0.00    +0.000 A 
ATOM     15  C   UNL     1      22.681  -3.420  19.586  0.00  0.00    +0.000 A 
ATOM     16  C   UNL     1      21.500  -3.507  20.316  0.00  0.00    +0.000 A 
ATOM     17  C   UNL     1      20.275  -3.503  19.657  0.00  0.00    +0.000 A 
ATOM     18  C   UNL     1      20.234  -3.410  18.267  0.00  0.00    +0.000 A 
ENDBRANCH   9  13
BRANCH  11  19
ATOM     19  C   UNL     1      28.518  -5.077  13.057  0.00  0.00    +0.000 A 
ATOM     20  C   UNL     1      27.662  -6.005  13.650  0.00  0.00    +0.000 A 
ATOM     21  C   UNL     1      27.754  -7.351  13.309  0.00  0.00    +0.000 A 
ATOM     22  C   UNL     1      28.699  -7.770  12.375  0.00  0.00    +0.000 A 
ATOM     23  C   UNL     1      29.552  -6.842  11.780  0.00  0.00    +0.000 A 
ATOM     24  C   UNL     1      29.462  -5.495  12.119  0.00  0.00    +0.000 A 
ENDBRANCH  11  19
BRANCH   9  25
ATOM     25  O   UNL     1      20.196  -3.617  15.448  0.00  0.00    +0.000 OA
ATOM     26  H   UNL     1      19.838  -4.430  15.841  0.00  0.00    +0.000 HD
ENDBRANCH   9  25
TORSDOF 3
ENDMDL
MODEL 4
REMARK VINA RESULT:      -7.3     26.433     30.093
REMARK  Name = Lobelin.pdbqt.pdb
REMARK  3 active torsions:
REMARK  status: ('A' for Active; 'I' for Inactive)
REMARK    1  A    between atoms: C_9  and  O_10
REMARK    2  A    between atoms: C_9  and  C_12
REMARK    3  A    between atoms: C_19  and  C_21
REMARK                            x       y       z     vdW  Elec       q    Type
REMARK                         _______ _______ _______ _____ _____    ______ ____
ROOT
ATOM      1  N   UNL     1      23.794  23.756   2.488  0.00  0.00    +0.000 N 
ATOM      2  C   UNL     1      24.346  22.515   1.955  0.00  0.00    +0.000 C 
ATOM      3  C   UNL     1      24.186  25.039   1.911  0.00  0.00    +0.000 C 
ATOM      4  C   UNL     1      25.227  22.680   0.843  0.00  0.00    +0.000 C 
ATOM      5  C   UNL     1      25.085  24.948   0.805  0.00  0.00    +0.000 C 
ATOM      6  C   UNL     1      25.785  23.841   0.040  0.00  0.00    +0.000 C 
ATOM      7  C   UNL     1      22.957  23.728   3.667  0.00  0.00    +0.000 C 
ATOM      8  C   UNL     1      24.022  21.240   2.493  0.00  0.00    +0.000 C 
ATOM      9  C   UNL     1      23.674  19.969   3.020  0.00  0.00    +0.000 C 
ATOM     10  C   UNL     1      23.699  26.275   2.408  0.00  0.00    +0.000 C 
ATOM     11  C   UNL     1      23.179  27.527   2.892  0.00  0.00    +0.000 C 
ATOM     12  O   UNL     1      22.668  28.305   2.100  0.00  0.00    +0.000 OA
ENDROOT
BRANCH   9  13
ATOM     13  C   UNL     1      22.320  19.415   3.006  0.00  0.00    +0.000 A 
ATOM     14  C   UNL     1      21.885  18.561   4.024  0.00  0.00    +0.000 A 
ATOM     15  C   UNL     1      20.595  18.033   4.012  0.00  0.00    +0.000 A 
ATOM     16  C   UNL     1      19.723  18.356   2.978  0.00  0.00    +0.000 A 
ATOM     17  C   UNL     1      20.140  19.203   1.956  0.00  0.00    +0.000 A 
ATOM     18  C   UNL     1      21.431  19.728   1.973  0.00  0.00    +0.000 A 
ENDBRANCH   9  13
BRANCH  11  19
ATOM     19  C   UNL     1      23.295  27.828   4.329  0.00  0.00    +0.000 A 
ATOM     20  C   UNL     1      23.560  29.122   4.778  0.00  0.00    +0.000 A 
ATOM     21  C   UNL     1      23.656  29.377   6.143  0.00  0.00    +0.000 A 
ATOM     22  C   UNL     1      23.487  28.341   7.059  0.00  0.00    +0.000 A 
ATOM     23  C   UNL     1      23.218  27.049   6.610  0.00  0.00    +0.000 A 
ATOM     24  C   UNL     1      23.121  26.791   5.245  0.00  0.00    +0.000 A 
ENDBRANCH  11  19
BRANCH   9  25
ATOM     25  O   UNL     1      24.660  19.187   3.578  0.00  0.00    +0.000 OA
ATOM     26  H   UNL     1      25.114  18.644   2.912  0.00  0.00    +0.000 HD
ENDBRANCH   9  25
TORSDOF 3
ENDMDL
MODEL 5
REMARK VINA RESULT:      -6.9      2.795      8.491
REMARK  Name = Lobelin.pdbqt.pdb
REMARK  3 active torsions:
REMARK  status: ('A' for Active; 'I' for Inactive)
REMARK    1  A    between atoms: C_9  and  O_10
REMARK    2  A    between atoms: C_9  and  C_12
REMARK    3  A    between atoms: C_19  and  C_21
REMARK                            x       y       z     vdW  Elec       q    Type
REMARK                         _______ _______ _______ _____ _____    ______ ____
ROOT
ATOM      1  N   UNL     1      21.516  -2.805  14.486  0.00  0.00    +0.000 N 
ATOM      2  C   UNL     1      20.228  -3.481  14.609  0.00  0.00    +0.000 C 
ATOM      3  C   UNL     1      21.876  -2.137  13.239  0.00  0.00    +0.000 C 
ATOM      4  C   UNL     1      19.389  -3.384  13.457  0.00  0.00    +0.000 C 
ATOM      5  C   UNL     1      20.870  -2.178  12.225  0.00  0.00    +0.000 C 
ATOM      6  C   UNL     1      19.478  -2.761  12.075  0.00  0.00    +0.000 C 
ATOM      7  C   UNL     1      22.488  -2.903  15.552  0.00  0.00    +0.000 C 
ATOM      8  C   UNL     1      19.835  -4.170  15.787  0.00  0.00    +0.000 C 
ATOM      9  C   UNL     1      19.439  -4.835  16.977  0.00  0.00    +0.000 C 
ATOM     10  C   UNL     1      23.124  -1.488  13.059  0.00  0.00    +0.000 C 
ATOM     11  C   UNL     1      24.378  -0.802  12.888  0.00  0.00    +0.000 C 
ATOM     12  O   UNL     1      24.375   0.358  12.503  0.00  0.00    +0.000 OA
ENDROOT
BRANCH   9  13
ATOM     13  C   UNL     1      19.255  -4.173  18.269  0.00  0.00    +0.000 A 
ATOM     14  C   UNL     1      18.017  -3.632  18.626  0.00  0.00    +0.000 A 
ATOM     15  C   UNL     1      17.840  -3.001  19.856  0.00  0.00    +0.000 A 
ATOM     16  C   UNL     1      18.906  -2.904  20.746  0.00  0.00    +0.000 A 
ATOM     17  C   UNL     1      20.146  -3.436  20.405  0.00  0.00    +0.000 A 
ATOM     18  C   UNL     1      20.316  -4.065  19.173  0.00  0.00    +0.000 A 
ENDBRANCH   9  13
BRANCH  11  19
ATOM     19  C   UNL     1      25.625  -1.533  13.175  0.00  0.00    +0.000 A 
ATOM     20  C   UNL     1      25.856  -2.105  14.426  0.00  0.00    +0.000 A 
ATOM     21  C   UNL     1      27.042  -2.795  14.664  0.00  0.00    +0.000 A 
ATOM     22  C   UNL     1      27.993  -2.915  13.654  0.00  0.00    +0.000 A 
ATOM     23  C   UNL     1      27.760  -2.345  12.403  0.00  0.00    +0.000 A 
ATOM     24  C   UNL     1      26.575  -1.655  12.162  0.00  0.00    +0.000 A 
ENDBRANCH  11  19
BRANCH   9  25
ATOM     25  O   UNL     1      19.201  -6.190  16.934  0.00  0.00    +0.000 OA
ATOM     26  H   UNL     1      19.552  -6.595  16.123  0.00  0.00    +0.000 HD
ENDBRANCH   9  25
TORSDOF 3
ENDMDL
MODEL 6
REMARK VINA RESULT:      -6.8     18.215     23.110
REMARK  Name = Lobelin.pdbqt.pdb
REMARK  3 active torsions:
REMARK  status: ('A' for Active; 'I' for Inactive)
REMARK    1  A    between atoms: C_9  and  O_10
REMARK    2  A    between atoms: C_9  and  C_12
REMARK    3  A    between atoms: C_19  and  C_21
REMARK                            x       y       z     vdW  Elec       q    Type
REMARK                         _______ _______ _______ _____ _____    ______ ____
ROOT
ATOM      1  N   UNL     1      46.781  -8.375   7.770  0.00  0.00    +0.000 N 
ATOM      2  C   UNL     1      47.752  -9.357   7.298  0.00  0.00    +0.000 C 
ATOM      3  C   UNL     1      47.100  -7.519   8.909  0.00  0.00    +0.000 C 
ATOM      4  C   UNL     1      48.994  -9.357   8.003  0.00  0.00    +0.000 C 
ATOM      5  C   UNL     1      48.408  -7.707   9.451  0.00  0.00    +0.000 C 
ATOM      6  C   UNL     1      49.602  -8.599   9.169  0.00  0.00    +0.000 C 
ATOM      7  C   UNL     1      45.455  -8.334   7.194  0.00  0.00    +0.000 C 
ATOM      8  C   UNL     1      47.487 -10.235   6.212  0.00  0.00    +0.000 C 
ATOM      9  C   UNL     1      47.224 -11.091   5.111  0.00  0.00    +0.000 C 
ATOM     10  C   UNL     1      46.183  -6.567   9.423  0.00  0.00    +0.000 C 
ATOM     11  C   UNL     1      45.264  -5.579   9.924  0.00  0.00    +0.000 C 
ATOM     12  O   UNL     1      45.642  -4.424  10.051  0.00  0.00    +0.000 OA
ENDROOT
BRANCH   9  13
ATOM     13  C   UNL     1      46.977 -10.625   3.746  0.00  0.00    +0.000 A 
ATOM     14  C   UNL     1      46.083 -11.299   2.910  0.00  0.00    +0.000 A 
ATOM     15  C   UNL     1      45.846 -10.856   1.610  0.00  0.00    +0.000 A 
ATOM     16  C   UNL     1      46.505  -9.727   1.131  0.00  0.00    +0.000 A 
ATOM     17  C   UNL     1      47.399  -9.045   1.950  0.00  0.00    +0.000 A 
ATOM     18  C   UNL     1      47.632  -9.494   3.249  0.00  0.00    +0.000 A 
ENDBRANCH   9  13
BRANCH  11  19
ATOM     19  C   UNL     1      43.898  -6.004  10.277  0.00  0.00    +0.000 A 
ATOM     20  C   UNL     1      43.668  -6.924  11.300  0.00  0.00    +0.000 A 
ATOM     21  C   UNL     1      42.365  -7.300  11.615  0.00  0.00    +0.000 A 
ATOM     22  C   UNL     1      41.294  -6.757  10.910  0.00  0.00    +0.000 A 
ATOM     23  C   UNL     1      41.523  -5.834   9.891  0.00  0.00    +0.000 A 
ATOM     24  C   UNL     1      42.825  -5.456   9.574  0.00  0.00    +0.000 A 
ENDBRANCH  11  19
BRANCH   9  25
ATOM     25  O   UNL     1      47.201 -12.451   5.317  0.00  0.00    +0.000 OA
ATOM     26  H   UNL     1      46.870 -12.931   4.539  0.00  0.00    +0.000 HD
ENDBRANCH   9  25
TORSDOF 3
ENDMDL
MODEL 7
REMARK VINA RESULT:      -6.7     18.320     23.365
REMARK  Name = Lobelin.pdbqt.pdb
REMARK  3 active torsions:
REMARK  status: ('A' for Active; 'I' for Inactive)
REMARK    1  A    between atoms: C_9  and  O_10
REMARK    2  A    between atoms: C_9  and  C_12
REMARK    3  A    between atoms: C_19  and  C_21
REMARK                            x       y       z     vdW  Elec       q    Type
REMARK                         _______ _______ _______ _____ _____    ______ ____
ROOT
ATOM      1  N   UNL     1      45.256 -10.634   7.159  0.00  0.00    +0.000 N 
ATOM      2  C   UNL     1      45.995  -9.734   8.039  0.00  0.00    +0.000 C 
ATOM      3  C   UNL     1      45.800 -11.949   6.832  0.00  0.00    +0.000 C 
ATOM      4  C   UNL     1      47.218 -10.268   8.550  0.00  0.00    +0.000 C 
ATOM      5  C   UNL     1      47.043 -12.257   7.464  0.00  0.00    +0.000 C 
ATOM      6  C   UNL     1      48.002 -11.560   8.411  0.00  0.00    +0.000 C 
ATOM      7  C   UNL     1      44.047 -10.178   6.510  0.00  0.00    +0.000 C 
ATOM      8  C   UNL     1      45.528  -8.434   8.372  0.00  0.00    +0.000 C 
ATOM      9  C   UNL     1      45.043  -7.146   8.719  0.00  0.00    +0.000 C 
ATOM     10  C   UNL     1      45.135 -12.850   5.962  0.00  0.00    +0.000 C 
ATOM     11  C   UNL     1      44.443 -13.777   5.106  0.00  0.00    +0.000 C 
ATOM     12  O   UNL     1      44.237 -14.915   5.502  0.00  0.00    +0.000 OA
ENDROOT
BRANCH   9  13
ATOM     13  C   UNL     1      43.802  -6.905   9.455  0.00  0.00    +0.000 A 
ATOM     14  C   UNL     1      42.683  -6.366   8.815  0.00  0.00    +0.000 A 
ATOM     15  C   UNL     1      41.500  -6.136   9.515  0.00  0.00    +0.000 A 
ATOM     16  C   UNL     1      41.424  -6.445  10.870  0.00  0.00    +0.000 A 
ATOM     17  C   UNL     1      42.530  -6.981  11.523  0.00  0.00    +0.000 A 
ATOM     18  C   UNL     1      43.710  -7.208  10.817  0.00  0.00    +0.000 A 
ENDBRANCH   9  13
BRANCH  11  19
ATOM     19  C   UNL     1      44.017 -13.319   3.772  0.00  0.00    +0.000 A 
ATOM     20  C   UNL     1      43.064 -14.023   3.035  0.00  0.00    +0.000 A 
ATOM     21  C   UNL     1      42.677 -13.561   1.780  0.00  0.00    +0.000 A 
ATOM     22  C   UNL     1      43.239 -12.397   1.263  0.00  0.00    +0.000 A 
ATOM     23  C   UNL     1      44.188 -11.691   2.000  0.00  0.00    +0.000 A 
ATOM     24  C   UNL     1      44.577 -12.151   3.256  0.00  0.00    +0.000 A 
ENDBRANCH  11  19
BRANCH   9  25
ATOM     25  O   UNL     1      45.775  -6.039   8.355  0.00  0.00    +0.000 OA
ATOM     26  H   UNL     1      45.210  -5.326   8.014  0.00  0.00    +0.000 HD
ENDBRANCH   9  25
TORSDOF 3
ENDMDL
MODEL 8
REMARK VINA RESULT:      -6.6      4.016      7.312
REMARK  Name = Lobelin.pdbqt.pdb
REMARK  3 active torsions:
REMARK  status: ('A' for Active; 'I' for Inactive)
REMARK    1  A    between atoms: C_9  and  O_10
REMARK    2  A    between atoms: C_9  and  C_12
REMARK    3  A    between atoms: C_19  and  C_21
REMARK                            x       y       z     vdW  Elec       q    Type
REMARK                         _______ _______ _______ _____ _____    ______ ____
ROOT
ATOM      1  N   UNL     1      25.252  -5.774  16.240  0.00  0.00    +0.000 N 
ATOM      2  C   UNL     1      23.984  -5.089  16.015  0.00  0.00    +0.000 C 
ATOM      3  C   UNL     1      25.270  -7.203  16.537  0.00  0.00    +0.000 C 
ATOM      4  C   UNL     1      22.830  -5.930  16.072  0.00  0.00    +0.000 C 
ATOM      5  C   UNL     1      23.986  -7.829  16.543  0.00  0.00    +0.000 C 
ATOM      6  C   UNL     1      22.547  -7.399  16.329  0.00  0.00    +0.000 C 
ATOM      7  C   UNL     1      26.483  -5.017  16.293  0.00  0.00    +0.000 C 
ATOM      8  C   UNL     1      23.903  -3.695  15.748  0.00  0.00    +0.000 C 
ATOM      9  C   UNL     1      23.833  -2.308  15.457  0.00  0.00    +0.000 C 
ATOM     10  C   UNL     1      26.472  -7.911  16.789  0.00  0.00    +0.000 C 
ATOM     11  C   UNL     1      27.696  -8.635  17.012  0.00  0.00    +0.000 C 
ATOM     12  O   UNL     1      27.917  -9.647  16.361  0.00  0.00    +0.000 OA
ENDROOT
BRANCH   9  13
ATOM     13  C   UNL     1      24.421  -1.685  14.271  0.00  0.00    +0.000 A 
ATOM     14  C   UNL     1      23.855  -0.536  13.711  0.00  0.00    +0.000 A 
ATOM     15  C   UNL     1      24.415   0.059  12.582  0.00  0.00    +0.000 A 
ATOM     16  C   UNL     1      25.551  -0.492  11.998  0.00  0.00    +0.000 A 
ATOM     17  C   UNL     1      26.126  -1.637  12.542  0.00  0.00    +0.000 A 
ATOM     18  C   UNL     1      25.561  -2.227  13.671  0.00  0.00    +0.000 A 
ENDBRANCH   9  13
BRANCH  11  19
ATOM     19  C   UNL     1      28.635  -8.134  18.030  0.00  0.00    +0.000 A 
ATOM     20  C   UNL     1      29.171  -6.849  17.949  0.00  0.00    +0.000 A 
ATOM     21  C   UNL     1      30.051  -6.401  18.931  0.00  0.00    +0.000 A 
ATOM     22  C   UNL     1      30.394  -7.236  19.992  0.00  0.00    +0.000 A 
ATOM     23  C   UNL     1      29.855  -8.519  20.074  0.00  0.00    +0.000 A 
ATOM     24  C   UNL     1      28.975  -8.969  19.094  0.00  0.00    +0.000 A 
ENDBRANCH  11  19
BRANCH   9  25
ATOM     25  O   UNL     1      23.167  -1.478  16.330  0.00  0.00    +0.000 OA
ATOM     26  H   UNL     1      23.760  -1.118  17.011  0.00  0.00    +0.000 HD
ENDBRANCH   9  25
TORSDOF 3
ENDMDL
MODEL 9
REMARK VINA RESULT:      -6.5     15.704     20.179
REMARK  Name = Lobelin.pdbqt.pdb
REMARK  3 active torsions:
REMARK  status: ('A' for Active; 'I' for Inactive)
REMARK    1  A    between atoms: C_9  and  O_10
REMARK    2  A    between atoms: C_9  and  C_12
REMARK    3  A    between atoms: C_19  and  C_21
REMARK                            x       y       z     vdW  Elec       q    Type
REMARK                         _______ _______ _______ _____ _____    ______ ____
ROOT
ATOM      1  N   UNL     1      14.141   6.796  27.865  0.00  0.00    +0.000 N 
ATOM      2  C   UNL     1      14.872   6.565  26.624  0.00  0.00    +0.000 C 
ATOM      3  C   UNL     1      13.665   8.135  28.196  0.00  0.00    +0.000 C 
ATOM      4  C   UNL     1      15.024   7.719  25.795  0.00  0.00    +0.000 C 
ATOM      5  C   UNL     1      13.940   9.130  27.209  0.00  0.00    +0.000 C 
ATOM      6  C   UNL     1      14.633   9.184  25.860  0.00  0.00    +0.000 C 
ATOM      7  C   UNL     1      13.996   5.727  28.828  0.00  0.00    +0.000 C 
ATOM      8  C   UNL     1      15.383   5.289  26.262  0.00  0.00    +0.000 C 
ATOM      9  C   UNL     1      15.867   4.007  25.895  0.00  0.00    +0.000 C 
ATOM     10  C   UNL     1      12.972   8.418  29.401  0.00  0.00    +0.000 C 
ATOM     11  C   UNL     1      12.241   8.698  30.609  0.00  0.00    +0.000 C 
ATOM     12  O   UNL     1      11.163   9.270  30.534  0.00  0.00    +0.000 OA
ENDROOT
BRANCH   9  13
ATOM     13  C   UNL     1      15.014   2.843  25.652  0.00  0.00    +0.000 A 
ATOM     14  C   UNL     1      13.802   2.690  26.329  0.00  0.00    +0.000 A 
ATOM     15  C   UNL     1      12.988   1.582  26.097  0.00  0.00    +0.000 A 
ATOM     16  C   UNL     1      13.381   0.611  25.181  0.00  0.00    +0.000 A 
ATOM     17  C   UNL     1      14.587   0.748  24.499  0.00  0.00    +0.000 A 
ATOM     18  C   UNL     1      15.396   1.858  24.736  0.00  0.00    +0.000 A 
ENDBRANCH   9  13
BRANCH  11  19
ATOM     19  C   UNL     1      12.828   8.292  31.897  0.00  0.00    +0.000 A 
ATOM     20  C   UNL     1      12.063   8.258  33.063  0.00  0.00    +0.000 A 
ATOM     21  C   UNL     1      12.645   7.864  34.265  0.00  0.00    +0.000 A 
ATOM     22  C   UNL     1      13.990   7.502  34.301  0.00  0.00    +0.000 A 
ATOM     23  C   UNL     1      14.754   7.532  33.136  0.00  0.00    +0.000 A 
ATOM     24  C   UNL     1      14.174   7.926  31.932  0.00  0.00    +0.000 A 
ENDBRANCH  11  19
BRANCH   9  25
ATOM     25  O   UNL     1      17.224   3.825  25.748  0.00  0.00    +0.000 OA
ATOM     26  H   UNL     1      17.482   3.767  24.812  0.00  0.00    +0.000 HD
ENDBRANCH   9  25
TORSDOF 3
ENDMDL
