MODEL 1
REMARK VINA RESULT:      -6.3      0.000      0.000
REMARK  Name = LUCANTHONE.pdbqt.pdb
REMARK  5 active torsions:
REMARK  status: ('A' for Active; 'I' for Inactive)
REMARK    1  A    between atoms: C_3  and  N_17
REMARK    2  A    between atoms: N_17  and  C_19
REMARK    3  A    between atoms: C_20  and  N_21
REMARK    4  A    between atoms: N_21  and  C_22
REMARK    5  A    between atoms: N_21  and  C_24
REMARK                            x       y       z     vdW  Elec       q    Type
REMARK                         _______ _______ _______ _____ _____    ______ ____
ROOT
ATOM      1  S   UNL     1      45.295  -3.109  11.197  0.00  0.00    +0.000 S 
ATOM      2  O   UNL     1      42.167  -1.233  13.540  0.00  0.00    +0.000 OA
ATOM      3  C   UNL     1      44.125   0.567  12.678  0.00  0.00    +0.000 A 
ATOM      4  C   UNL     1      44.204  -0.832  12.432  0.00  0.00    +0.000 A 
ATOM      5  C   UNL     1      45.192  -1.358  11.573  0.00  0.00    +0.000 A 
ATOM      6  C   UNL     1      46.106  -0.458  10.974  0.00  0.00    +0.000 A 
ATOM      7  C   UNL     1      43.203  -1.720  13.090  0.00  0.00    +0.000 A 
ATOM      8  C   UNL     1      45.071   1.408  12.081  0.00  0.00    +0.000 A 
ATOM      9  C   UNL     1      43.423  -3.164  13.248  0.00  0.00    +0.000 A 
ATOM     10  C   UNL     1      46.041   0.908  11.228  0.00  0.00    +0.000 A 
ATOM     11  C   UNL     1      44.346  -3.856  12.478  0.00  0.00    +0.000 A 
ATOM     12  C   UNL     1      47.211  -0.890  10.035  0.00  0.00    +0.000 C 
ATOM     13  C   UNL     1      42.655  -3.838  14.204  0.00  0.00    +0.000 A 
ATOM     14  C   UNL     1      44.499  -5.230  12.679  0.00  0.00    +0.000 A 
ATOM     15  C   UNL     1      42.819  -5.206  14.402  0.00  0.00    +0.000 A 
ATOM     16  C   UNL     1      43.747  -5.904  13.638  0.00  0.00    +0.000 A 
ENDROOT
BRANCH   3  17
ATOM     17  N   UNL     1      43.225   1.110  13.632  0.00  0.00    +0.000 N 
ATOM     18  H   UNL     1      42.293   1.269  13.220  0.00  0.00    +0.000 HD
BRANCH  17  19
ATOM     19  C   UNL     1      43.696   2.113  14.572  0.00  0.00    +0.000 C 
ATOM     20  C   UNL     1      44.195   3.171  15.562  0.00  0.00    +0.000 C 
BRANCH  20  21
ATOM     21  N   UNL     1      44.678   4.169  16.502  0.00  0.00    +0.000 N 
BRANCH  21  22
ATOM     22  C   UNL     1      43.625   4.392  17.475  0.00  0.00    +0.000 C 
ATOM     23  C   UNL     1      42.504   4.632  18.490  0.00  0.00    +0.000 C 
ENDBRANCH  21  22
BRANCH  21  24
ATOM     24  C   UNL     1      44.828   5.410  15.766  0.00  0.00    +0.000 C 
ATOM     25  C   UNL     1      44.965   6.725  14.992  0.00  0.00    +0.000 C 
ENDBRANCH  21  24
ENDBRANCH  20  21
ENDBRANCH  17  19
ENDBRANCH   3  17
TORSDOF 5
ENDMDL
MODEL 2
REMARK VINA RESULT:      -6.1      6.305      7.472
REMARK  Name = LUCANTHONE.pdbqt.pdb
REMARK  5 active torsions:
REMARK  status: ('A' for Active; 'I' for Inactive)
REMARK    1  A    between atoms: C_3  and  N_17
REMARK    2  A    between atoms: N_17  and  C_19
REMARK    3  A    between atoms: C_20  and  N_21
REMARK    4  A    between atoms: N_21  and  C_22
REMARK    5  A    between atoms: N_21  and  C_24
REMARK                            x       y       z     vdW  Elec       q    Type
REMARK                         _______ _______ _______ _____ _____    ______ ____
ROOT
ATOM      1  S   UNL     1      45.247  -6.731  10.208  0.00  0.00    +0.000 S 
ATOM      2  O   UNL     1      45.099  -3.871  13.463  0.00  0.00    +0.000 OA
ATOM      3  C   UNL     1      47.683  -4.799  12.930  0.00  0.00    +0.000 A 
ATOM      4  C   UNL     1      46.534  -5.286  12.246  0.00  0.00    +0.000 A 
ATOM      5  C   UNL     1      46.667  -6.136  11.128  0.00  0.00    +0.000 A 
ATOM      6  C   UNL     1      47.971  -6.497  10.714  0.00  0.00    +0.000 A 
ATOM      7  C   UNL     1      45.191  -4.856  12.733  0.00  0.00    +0.000 A 
ATOM      8  C   UNL     1      48.948  -5.210  12.494  0.00  0.00    +0.000 A 
ATOM      9  C   UNL     1      43.965  -5.591  12.393  0.00  0.00    +0.000 A 
ATOM     10  C   UNL     1      49.094  -6.037  11.393  0.00  0.00    +0.000 A 
ATOM     11  C   UNL     1      43.904  -6.462  11.315  0.00  0.00    +0.000 A 
ATOM     12  C   UNL     1      48.254  -7.400   9.533  0.00  0.00    +0.000 C 
ATOM     13  C   UNL     1      42.836  -5.376  13.191  0.00  0.00    +0.000 A 
ATOM     14  C   UNL     1      42.703  -7.123  11.047  0.00  0.00    +0.000 A 
ATOM     15  C   UNL     1      41.645  -6.044  12.920  0.00  0.00    +0.000 A 
ATOM     16  C   UNL     1      41.579  -6.923  11.846  0.00  0.00    +0.000 A 
ENDROOT
BRANCH   3  17
ATOM     17  N   UNL     1      47.578  -4.047  14.130  0.00  0.00    +0.000 N 
ATOM     18  H   UNL     1      47.772  -3.048  13.964  0.00  0.00    +0.000 HD
BRANCH  17  19
ATOM     19  C   UNL     1      48.082  -4.607  15.372  0.00  0.00    +0.000 C 
ATOM     20  C   UNL     1      48.614  -5.200  16.682  0.00  0.00    +0.000 C 
BRANCH  20  21
ATOM     21  N   UNL     1      49.109  -5.770  17.924  0.00  0.00    +0.000 N 
BRANCH  21  22
ATOM     22  C   UNL     1      48.489  -7.073  18.078  0.00  0.00    +0.000 C 
ATOM     23  C   UNL     1      47.849  -8.454  18.245  0.00  0.00    +0.000 C 
ENDBRANCH  21  22
BRANCH  21  24
ATOM     24  C   UNL     1      48.604  -4.944  19.004  0.00  0.00    +0.000 C 
ATOM     25  C   UNL     1      48.058  -4.087  20.151  0.00  0.00    +0.000 C 
ENDBRANCH  21  24
ENDBRANCH  20  21
ENDBRANCH  17  19
ENDBRANCH   3  17
TORSDOF 5
ENDMDL
MODEL 3
REMARK VINA RESULT:      -6.0     32.180     33.331
REMARK  Name = LUCANTHONE.pdbqt.pdb
REMARK  5 active torsions:
REMARK  status: ('A' for Active; 'I' for Inactive)
REMARK    1  A    between atoms: C_3  and  N_17
REMARK    2  A    between atoms: N_17  and  C_19
REMARK    3  A    between atoms: C_20  and  N_21
REMARK    4  A    between atoms: N_21  and  C_22
REMARK    5  A    between atoms: N_21  and  C_24
REMARK                            x       y       z     vdW  Elec       q    Type
REMARK                         _______ _______ _______ _____ _____    ______ ____
ROOT
ATOM      1  S   UNL     1      23.088  21.147   0.070  0.00  0.00    +0.000 S 
ATOM      2  O   UNL     1      21.586  22.059   4.034  0.00  0.00    +0.000 OA
ATOM      3  C   UNL     1      23.895  23.493   3.375  0.00  0.00    +0.000 A 
ATOM      4  C   UNL     1      23.329  22.509   2.517  0.00  0.00    +0.000 A 
ATOM      5  C   UNL     1      23.807  22.341   1.200  0.00  0.00    +0.000 A 
ATOM      6  C   UNL     1      24.868  23.168   0.762  0.00  0.00    +0.000 A 
ATOM      7  C   UNL     1      22.206  21.679   3.042  0.00  0.00    +0.000 A 
ATOM      8  C   UNL     1      24.961  24.265   2.900  0.00  0.00    +0.000 A 
ATOM      9  C   UNL     1      21.830  20.397   2.430  0.00  0.00    +0.000 A 
ATOM     10  C   UNL     1      25.434  24.118   1.607  0.00  0.00    +0.000 A 
ATOM     11  C   UNL     1      22.199  20.064   1.135  0.00  0.00    +0.000 A 
ATOM     12  C   UNL     1      25.472  23.091  -0.623  0.00  0.00    +0.000 C 
ATOM     13  C   UNL     1      21.065  19.511   3.196  0.00  0.00    +0.000 A 
ATOM     14  C   UNL     1      21.801  18.829   0.616  0.00  0.00    +0.000 A 
ATOM     15  C   UNL     1      20.679  18.281   2.673  0.00  0.00    +0.000 A 
ATOM     16  C   UNL     1      21.051  17.937   1.379  0.00  0.00    +0.000 A 
ENDROOT
BRANCH   3  17
ATOM     17  N   UNL     1      23.521  23.599   4.741  0.00  0.00    +0.000 N 
ATOM     18  H   UNL     1      22.792  22.913   4.984  0.00  0.00    +0.000 HD
BRANCH  17  19
ATOM     19  C   UNL     1      23.403  24.913   5.351  0.00  0.00    +0.000 C 
ATOM     20  C   UNL     1      23.277  26.297   5.995  0.00  0.00    +0.000 C 
BRANCH  20  21
ATOM     21  N   UNL     1      23.146  27.609   6.609  0.00  0.00    +0.000 N 
BRANCH  21  22
ATOM     22  C   UNL     1      21.766  28.028   6.440  0.00  0.00    +0.000 C 
ATOM     23  C   UNL     1      20.307  28.456   6.258  0.00  0.00    +0.000 C 
ENDBRANCH  21  22
BRANCH  21  24
ATOM     24  C   UNL     1      23.952  28.528   5.828  0.00  0.00    +0.000 C 
ATOM     25  C   UNL     1      24.788  29.501   4.991  0.00  0.00    +0.000 C 
ENDBRANCH  21  24
ENDBRANCH  20  21
ENDBRANCH  17  19
ENDBRANCH   3  17
TORSDOF 5
ENDMDL
MODEL 4
REMARK VINA RESULT:      -5.8      6.659      8.762
REMARK  Name = LUCANTHONE.pdbqt.pdb
REMARK  5 active torsions:
REMARK  status: ('A' for Active; 'I' for Inactive)
REMARK    1  A    between atoms: C_3  and  N_17
REMARK    2  A    between atoms: N_17  and  C_19
REMARK    3  A    between atoms: C_20  and  N_21
REMARK    4  A    between atoms: N_21  and  C_22
REMARK    5  A    between atoms: N_21  and  C_24
REMARK                            x       y       z     vdW  Elec       q    Type
REMARK                         _______ _______ _______ _____ _____    ______ ____
ROOT
ATOM      1  S   UNL     1      43.582  -6.954   9.812  0.00  0.00    +0.000 S 
ATOM      2  O   UNL     1      46.588  -4.802  12.077  0.00  0.00    +0.000 OA
ATOM      3  C   UNL     1      47.674  -6.704  10.338  0.00  0.00    +0.000 A 
ATOM      4  C   UNL     1      46.272  -6.528  10.508  0.00  0.00    +0.000 A 
ATOM      5  C   UNL     1      45.355  -7.187   9.663  0.00  0.00    +0.000 A 
ATOM      6  C   UNL     1      45.867  -8.033   8.650  0.00  0.00    +0.000 A 
ATOM      7  C   UNL     1      45.803  -5.615  11.591  0.00  0.00    +0.000 A 
ATOM      8  C   UNL     1      48.124  -7.573   9.338  0.00  0.00    +0.000 A 
ATOM      9  C   UNL     1      44.435  -5.671  12.123  0.00  0.00    +0.000 A 
ATOM     10  C   UNL     1      47.236  -8.219   8.494  0.00  0.00    +0.000 A 
ATOM     11  C   UNL     1      43.397  -6.267  11.423  0.00  0.00    +0.000 A 
ATOM     12  C   UNL     1      44.994  -8.797   7.678  0.00  0.00    +0.000 C 
ATOM     13  C   UNL     1      44.199  -5.085  13.372  0.00  0.00    +0.000 A 
ATOM     14  C   UNL     1      42.120  -6.279  11.988  0.00  0.00    +0.000 A 
ATOM     15  C   UNL     1      42.925  -5.108  13.930  0.00  0.00    +0.000 A 
ATOM     16  C   UNL     1      41.881  -5.709  13.237  0.00  0.00    +0.000 A 
ENDROOT
BRANCH   3  17
ATOM     17  N   UNL     1      48.614  -6.155  11.250  0.00  0.00    +0.000 N 
ATOM     18  H   UNL     1      48.163  -5.894  12.140  0.00  0.00    +0.000 HD
BRANCH  17  19
ATOM     19  C   UNL     1      49.648  -5.260  10.760  0.00  0.00    +0.000 C 
ATOM     20  C   UNL     1      50.737  -4.314  10.244  0.00  0.00    +0.000 C 
BRANCH  20  21
ATOM     21  N   UNL     1      51.764  -3.413   9.746  0.00  0.00    +0.000 N 
BRANCH  21  22
ATOM     22  C   UNL     1      51.122  -2.143   9.462  0.00  0.00    +0.000 C 
ATOM     23  C   UNL     1      50.431  -0.808   9.166  0.00  0.00    +0.000 C 
ENDBRANCH  21  22
BRANCH  21  24
ATOM     24  C   UNL     1      52.213  -3.940   8.471  0.00  0.00    +0.000 C 
ATOM     25  C   UNL     1      52.675  -4.514   7.128  0.00  0.00    +0.000 C 
ENDBRANCH  21  24
ENDBRANCH  20  21
ENDBRANCH  17  19
ENDBRANCH   3  17
TORSDOF 5
ENDMDL
MODEL 5
REMARK VINA RESULT:      -5.8      6.858      9.763
REMARK  Name = LUCANTHONE.pdbqt.pdb
REMARK  5 active torsions:
REMARK  status: ('A' for Active; 'I' for Inactive)
REMARK    1  A    between atoms: C_3  and  N_17
REMARK    2  A    between atoms: N_17  and  C_19
REMARK    3  A    between atoms: C_20  and  N_21
REMARK    4  A    between atoms: N_21  and  C_22
REMARK    5  A    between atoms: N_21  and  C_24
REMARK                            x       y       z     vdW  Elec       q    Type
REMARK                         _______ _______ _______ _____ _____    ______ ____
ROOT
ATOM      1  S   UNL     1      48.154 -10.726   7.649  0.00  0.00    +0.000 S 
ATOM      2  O   UNL     1      44.272  -8.918   6.973  0.00  0.00    +0.000 OA
ATOM      3  C   UNL     1      45.935  -7.375   8.610  0.00  0.00    +0.000 A 
ATOM      4  C   UNL     1      46.311  -8.658   8.122  0.00  0.00    +0.000 A 
ATOM      5  C   UNL     1      47.626  -9.137   8.293  0.00  0.00    +0.000 A 
ATOM      6  C   UNL     1      48.556  -8.312   8.969  0.00  0.00    +0.000 A 
ATOM      7  C   UNL     1      45.281  -9.470   7.410  0.00  0.00    +0.000 A 
ATOM      8  C   UNL     1      46.887  -6.613   9.296  0.00  0.00    +0.000 A 
ATOM      9  C   UNL     1      45.415 -10.923   7.235  0.00  0.00    +0.000 A 
ATOM     10  C   UNL     1      48.185  -7.066   9.463  0.00  0.00    +0.000 A 
ATOM     11  C   UNL     1      46.637 -11.568   7.352  0.00  0.00    +0.000 A 
ATOM     12  C   UNL     1      49.996  -8.704   9.219  0.00  0.00    +0.000 C 
ATOM     13  C   UNL     1      44.259 -11.650   6.930  0.00  0.00    +0.000 A 
ATOM     14  C   UNL     1      46.691 -12.952   7.167  0.00  0.00    +0.000 A 
ATOM     15  C   UNL     1      44.321 -13.029   6.755  0.00  0.00    +0.000 A 
ATOM     16  C   UNL     1      45.541 -13.683   6.877  0.00  0.00    +0.000 A 
ENDROOT
BRANCH   3  17
ATOM     17  N   UNL     1      44.590  -6.921   8.564  0.00  0.00    +0.000 N 
ATOM     18  H   UNL     1      44.338  -6.591   7.620  0.00  0.00    +0.000 HD
BRANCH  17  19
ATOM     19  C   UNL     1      44.053  -6.162   9.680  0.00  0.00    +0.000 C 
ATOM     20  C   UNL     1      43.486  -5.359  10.856  0.00  0.00    +0.000 C 
BRANCH  20  21
ATOM     21  N   UNL     1      42.958  -4.591  11.972  0.00  0.00    +0.000 N 
BRANCH  21  22
ATOM     22  C   UNL     1      43.544  -3.265  11.898  0.00  0.00    +0.000 C 
ATOM     23  C   UNL     1      44.151  -1.861  11.829  0.00  0.00    +0.000 C 
ENDBRANCH  21  22
BRANCH  21  24
ATOM     24  C   UNL     1      43.466  -5.199  13.187  0.00  0.00    +0.000 C 
ATOM     25  C   UNL     1      43.983  -5.845  14.476  0.00  0.00    +0.000 C 
ENDBRANCH  21  24
ENDBRANCH  20  21
ENDBRANCH  17  19
ENDBRANCH   3  17
TORSDOF 5
ENDMDL
MODEL 6
REMARK VINA RESULT:      -5.7      4.164      6.023
REMARK  Name = LUCANTHONE.pdbqt.pdb
REMARK  5 active torsions:
REMARK  status: ('A' for Active; 'I' for Inactive)
REMARK    1  A    between atoms: C_3  and  N_17
REMARK    2  A    between atoms: N_17  and  C_19
REMARK    3  A    between atoms: C_20  and  N_21
REMARK    4  A    between atoms: N_21  and  C_22
REMARK    5  A    between atoms: N_21  and  C_24
REMARK                            x       y       z     vdW  Elec       q    Type
REMARK                         _______ _______ _______ _____ _____    ______ ____
ROOT
ATOM      1  S   UNL     1      45.701  -6.801   8.929  0.00  0.00    +0.000 S 
ATOM      2  O   UNL     1      44.952  -3.046  10.963  0.00  0.00    +0.000 OA
ATOM      3  C   UNL     1      47.408  -4.197  11.647  0.00  0.00    +0.000 A 
ATOM      4  C   UNL     1      46.475  -4.831  10.779  0.00  0.00    +0.000 A 
ATOM      5  C   UNL     1      46.829  -5.999  10.071  0.00  0.00    +0.000 A 
ATOM      6  C   UNL     1      48.130  -6.526  10.256  0.00  0.00    +0.000 A 
ATOM      7  C   UNL     1      45.125  -4.216  10.626  0.00  0.00    +0.000 A 
ATOM      8  C   UNL     1      48.671  -4.776  11.813  0.00  0.00    +0.000 A 
ATOM      9  C   UNL     1      43.976  -4.972  10.109  0.00  0.00    +0.000 A 
ATOM     10  C   UNL     1      49.035  -5.916  11.118  0.00  0.00    +0.000 A 
ATOM     11  C   UNL     1      44.132  -6.139   9.376  0.00  0.00    +0.000 A 
ATOM     12  C   UNL     1      48.636  -7.770   9.558  0.00  0.00    +0.000 C 
ATOM     13  C   UNL     1      42.697  -4.468  10.370  0.00  0.00    +0.000 A 
ATOM     14  C   UNL     1      42.994  -6.803   8.912  0.00  0.00    +0.000 A 
ATOM     15  C   UNL     1      41.568  -5.140   9.910  0.00  0.00    +0.000 A 
ATOM     16  C   UNL     1      41.717  -6.314   9.180  0.00  0.00    +0.000 A 
ENDROOT
BRANCH   3  17
ATOM     17  N   UNL     1      47.040  -3.097  12.466  0.00  0.00    +0.000 N 
ATOM     18  H   UNL     1      46.055  -3.165  12.764  0.00  0.00    +0.000 HD
BRANCH  17  19
ATOM     19  C   UNL     1      47.528  -1.768  12.142  0.00  0.00    +0.000 C 
ATOM     20  C   UNL     1      48.041  -0.365  11.799  0.00  0.00    +0.000 C 
BRANCH  20  21
ATOM     21  N   UNL     1      48.521   0.966  11.465  0.00  0.00    +0.000 N 
BRANCH  21  22
ATOM     22  C   UNL     1      47.473   1.905  11.822  0.00  0.00    +0.000 C 
ATOM     23  C   UNL     1      46.372   2.904  12.187  0.00  0.00    +0.000 C 
ENDBRANCH  21  22
BRANCH  21  24
ATOM     24  C   UNL     1      48.649   1.023  10.021  0.00  0.00    +0.000 C 
ATOM     25  C   UNL     1      48.764   1.081   8.495  0.00  0.00    +0.000 C 
ENDBRANCH  21  24
ENDBRANCH  20  21
ENDBRANCH  17  19
ENDBRANCH   3  17
TORSDOF 5
ENDMDL
MODEL 7
REMARK VINA RESULT:      -5.7      6.399      7.688
REMARK  Name = LUCANTHONE.pdbqt.pdb
REMARK  5 active torsions:
REMARK  status: ('A' for Active; 'I' for Inactive)
REMARK    1  A    between atoms: C_3  and  N_17
REMARK    2  A    between atoms: N_17  and  C_19
REMARK    3  A    between atoms: C_20  and  N_21
REMARK    4  A    between atoms: N_21  and  C_22
REMARK    5  A    between atoms: N_21  and  C_24
REMARK                            x       y       z     vdW  Elec       q    Type
REMARK                         _______ _______ _______ _____ _____    ______ ____
ROOT
ATOM      1  S   UNL     1      45.595  -6.901   8.723  0.00  0.00    +0.000 S 
ATOM      2  O   UNL     1      45.179  -3.485  11.360  0.00  0.00    +0.000 OA
ATOM      3  C   UNL     1      47.564  -4.892  11.751  0.00  0.00    +0.000 A 
ATOM      4  C   UNL     1      46.563  -5.314  10.831  0.00  0.00    +0.000 A 
ATOM      5  C   UNL     1      46.811  -6.372   9.932  0.00  0.00    +0.000 A 
ATOM      6  C   UNL     1      48.075  -7.006   9.976  0.00  0.00    +0.000 A 
ATOM      7  C   UNL     1      45.256  -4.594  10.833  0.00  0.00    +0.000 A 
ATOM      8  C   UNL     1      48.786  -5.573  11.770  0.00  0.00    +0.000 A 
ATOM      9  C   UNL     1      44.041  -5.178  10.250  0.00  0.00    +0.000 A 
ATOM     10  C   UNL     1      49.047  -6.607  10.887  0.00  0.00    +0.000 A 
ATOM     11  C   UNL     1      44.091  -6.218   9.334  0.00  0.00    +0.000 A 
ATOM     12  C   UNL     1      48.469  -8.151   9.068  0.00  0.00    +0.000 C 
ATOM     13  C   UNL     1      42.810  -4.640  10.640  0.00  0.00    +0.000 A 
ATOM     14  C   UNL     1      42.895  -6.720   8.816  0.00  0.00    +0.000 A 
ATOM     15  C   UNL     1      41.623  -5.151  10.124  0.00  0.00    +0.000 A 
ATOM     16  C   UNL     1      41.665  -6.198   9.210  0.00  0.00    +0.000 A 
ENDROOT
BRANCH   3  17
ATOM     17  N   UNL     1      47.300  -3.918  12.750  0.00  0.00    +0.000 N 
ATOM     18  H   UNL     1      47.457  -2.964  12.393  0.00  0.00    +0.000 HD
BRANCH  17  19
ATOM     19  C   UNL     1      47.707  -4.171  14.121  0.00  0.00    +0.000 C 
ATOM     20  C   UNL     1      48.136  -4.440  15.568  0.00  0.00    +0.000 C 
BRANCH  20  21
ATOM     21  N   UNL     1      48.536  -4.704  16.940  0.00  0.00    +0.000 N 
BRANCH  21  22
ATOM     22  C   UNL     1      49.964  -4.963  16.931  0.00  0.00    +0.000 C 
ATOM     23  C   UNL     1      51.469  -5.249  16.930  0.00  0.00    +0.000 C 
ENDBRANCH  21  22
BRANCH  21  24
ATOM     24  C   UNL     1      47.896  -5.942  17.341  0.00  0.00    +0.000 C 
ATOM     25  C   UNL     1      47.235  -7.253  17.778  0.00  0.00    +0.000 C 
ENDBRANCH  21  24
ENDBRANCH  20  21
ENDBRANCH  17  19
ENDBRANCH   3  17
TORSDOF 5
ENDMDL
MODEL 8
REMARK VINA RESULT:      -5.5     19.988     22.226
REMARK  Name = LUCANTHONE.pdbqt.pdb
REMARK  5 active torsions:
REMARK  status: ('A' for Active; 'I' for Inactive)
REMARK    1  A    between atoms: C_3  and  N_17
REMARK    2  A    between atoms: N_17  and  C_19
REMARK    3  A    between atoms: C_20  and  N_21
REMARK    4  A    between atoms: N_21  and  C_22
REMARK    5  A    between atoms: N_21  and  C_24
REMARK                            x       y       z     vdW  Elec       q    Type
REMARK                         _______ _______ _______ _____ _____    ______ ____
ROOT
ATOM      1  S   UNL     1      19.638  -3.736  15.826  0.00  0.00    +0.000 S 
ATOM      2  O   UNL     1      23.242  -2.841  13.588  0.00  0.00    +0.000 OA
ATOM      3  C   UNL     1      23.562  -2.550  16.351  0.00  0.00    +0.000 A 
ATOM      4  C   UNL     1      22.314  -2.881  15.751  0.00  0.00    +0.000 A 
ATOM      5  C   UNL     1      21.212  -3.262  16.545  0.00  0.00    +0.000 A 
ATOM      6  C   UNL     1      21.378  -3.296  17.950  0.00  0.00    +0.000 A 
ATOM      7  C   UNL     1      22.214  -2.834  14.264  0.00  0.00    +0.000 A 
ATOM      8  C   UNL     1      23.662  -2.573  17.747  0.00  0.00    +0.000 A 
ATOM      9  C   UNL     1      20.922  -2.747  13.570  0.00  0.00    +0.000 A 
ATOM     10  C   UNL     1      22.591  -2.954  18.538  0.00  0.00    +0.000 A 
ATOM     11  C   UNL     1      19.730  -3.096  14.189  0.00  0.00    +0.000 A 
ATOM     12  C   UNL     1      20.278  -3.686  18.913  0.00  0.00    +0.000 C 
ATOM     13  C   UNL     1      20.926  -2.309  12.241  0.00  0.00    +0.000 A 
ATOM     14  C   UNL     1      18.539  -2.994  13.466  0.00  0.00    +0.000 A 
ATOM     15  C   UNL     1      19.734  -2.204  11.532  0.00  0.00    +0.000 A 
ATOM     16  C   UNL     1      18.535  -2.545  12.147  0.00  0.00    +0.000 A 
ENDROOT
BRANCH   3  17
ATOM     17  N   UNL     1      24.648  -2.043  15.590  0.00  0.00    +0.000 N 
ATOM     18  H   UNL     1      24.352  -1.797  14.633  0.00  0.00    +0.000 HD
BRANCH  17  19
ATOM     19  C   UNL     1      25.961  -2.648  15.725  0.00  0.00    +0.000 C 
ATOM     20  C   UNL     1      27.346  -3.289  15.867  0.00  0.00    +0.000 C 
BRANCH  20  21
ATOM     21  N   UNL     1      28.655  -3.906  16.005  0.00  0.00    +0.000 N 
BRANCH  21  22
ATOM     22  C   UNL     1      29.170  -4.130  14.667  0.00  0.00    +0.000 C 
ATOM     23  C   UNL     1      29.722  -4.378  13.260  0.00  0.00    +0.000 C 
ENDBRANCH  21  22
BRANCH  21  24
ATOM     24  C   UNL     1      28.449  -5.217  16.591  0.00  0.00    +0.000 C 
ATOM     25  C   UNL     1      28.251  -6.606  17.205  0.00  0.00    +0.000 C 
ENDBRANCH  21  24
ENDBRANCH  20  21
ENDBRANCH  17  19
ENDBRANCH   3  17
TORSDOF 5
ENDMDL
MODEL 9
REMARK VINA RESULT:      -5.5      8.797     13.421
REMARK  Name = LUCANTHONE.pdbqt.pdb
REMARK  5 active torsions:
REMARK  status: ('A' for Active; 'I' for Inactive)
REMARK    1  A    between atoms: C_3  and  N_17
REMARK    2  A    between atoms: N_17  and  C_19
REMARK    3  A    between atoms: C_20  and  N_21
REMARK    4  A    between atoms: N_21  and  C_22
REMARK    5  A    between atoms: N_21  and  C_24
REMARK                            x       y       z     vdW  Elec       q    Type
REMARK                         _______ _______ _______ _____ _____    ______ ____
ROOT
ATOM      1  S   UNL     1      48.907  -8.231   8.972  0.00  0.00    +0.000 S 
ATOM      2  O   UNL     1      44.586  -8.566   9.084  0.00  0.00    +0.000 OA
ATOM      3  C   UNL     1      45.687  -9.350   6.636  0.00  0.00    +0.000 A 
ATOM      4  C   UNL     1      46.472  -8.822   7.699  0.00  0.00    +0.000 A 
ATOM      5  C   UNL     1      47.881  -8.840   7.633  0.00  0.00    +0.000 A 
ATOM      6  C   UNL     1      48.490  -9.389   6.479  0.00  0.00    +0.000 A 
ATOM      7  C   UNL     1      45.763  -8.268   8.889  0.00  0.00    +0.000 A 
ATOM      8  C   UNL     1      46.341  -9.855   5.506  0.00  0.00    +0.000 A 
ATOM      9  C   UNL     1      46.417  -7.348   9.830  0.00  0.00    +0.000 A 
ATOM     10  C   UNL     1      47.723  -9.888   5.431  0.00  0.00    +0.000 A 
ATOM     11  C   UNL     1      47.797  -7.242   9.916  0.00  0.00    +0.000 A 
ATOM     12  C   UNL     1      49.988  -9.470   6.282  0.00  0.00    +0.000 C 
ATOM     13  C   UNL     1      45.596  -6.577  10.661  0.00  0.00    +0.000 A 
ATOM     14  C   UNL     1      48.350  -6.350  10.838  0.00  0.00    +0.000 A 
ATOM     15  C   UNL     1      46.156  -5.686  11.571  0.00  0.00    +0.000 A 
ATOM     16  C   UNL     1      47.538  -5.569  11.659  0.00  0.00    +0.000 A 
ENDROOT
BRANCH   3  17
ATOM     17  N   UNL     1      44.273  -9.231   6.618  0.00  0.00    +0.000 N 
ATOM     18  H   UNL     1      43.934  -8.672   7.417  0.00  0.00    +0.000 HD
BRANCH  17  19
ATOM     19  C   UNL     1      43.462 -10.375   6.239  0.00  0.00    +0.000 C 
ATOM     20  C   UNL     1      42.608 -11.582   5.837  0.00  0.00    +0.000 C 
BRANCH  20  21
ATOM     21  N   UNL     1      41.795 -12.723   5.446  0.00  0.00    +0.000 N 
BRANCH  21  22
ATOM     22  C   UNL     1      42.687 -13.709   4.865  0.00  0.00    +0.000 C 
ATOM     23  C   UNL     1      43.623 -14.748   4.240  0.00  0.00    +0.000 C 
ENDBRANCH  21  22
BRANCH  21  24
ATOM     24  C   UNL     1      40.923 -12.278   4.376  0.00  0.00    +0.000 C 
ATOM     25  C   UNL     1      39.987 -11.822   3.251  0.00  0.00    +0.000 C 
ENDBRANCH  21  24
ENDBRANCH  20  21
ENDBRANCH  17  19
ENDBRANCH   3  17
TORSDOF 5
ENDMDL
