MODEL 1
REMARK VINA RESULT:      -6.5      0.000      0.000
REMARK  Name = MeIQx.pdbqt.pdb
REMARK  0 active torsions:
REMARK  status: ('A' for Active; 'I' for Inactive)
REMARK                            x       y       z     vdW  Elec       q    Type
REMARK                         _______ _______ _______ _____ _____    ______ ____
ROOT
ATOM      1  N   UNL     1      44.214  -5.264  12.026  0.00  0.00    +0.000 N 
ATOM      2  N   UNL     1      42.613  -4.543  13.375  0.00  0.00    +0.000 NA
ATOM      3  N   UNL     1      42.170  -1.694  13.932  0.00  0.00    +0.000 NA
ATOM      4  N   UNL     1      43.908   0.160  12.651  0.00  0.00    +0.000 NA
ATOM      5  C   UNL     1      44.342  -3.901  12.018  0.00  0.00    +0.000 A 
ATOM      6  C   UNL     1      43.328  -3.467  12.871  0.00  0.00    +0.000 A 
ATOM      7  C   UNL     1      43.171  -2.076  13.094  0.00  0.00    +0.000 A 
ATOM      8  C   UNL     1      44.043  -1.165  12.450  0.00  0.00    +0.000 A 
ATOM      9  C   UNL     1      43.164  -5.618  12.859  0.00  0.00    +0.000 A 
ATOM     10  C   UNL     1      45.216  -3.026  11.367  0.00  0.00    +0.000 A 
ATOM     11  C   UNL     1      45.032  -1.662  11.613  0.00  0.00    +0.000 A 
ATOM     12  C   UNL     1      45.019  -6.170  11.259  0.00  0.00    +0.000 C 
ATOM     13  C   UNL     1      42.052  -0.364  14.120  0.00  0.00    +0.000 A 
ATOM     14  C   UNL     1      42.904   0.540  13.492  0.00  0.00    +0.000 A 
ATOM     15  C   UNL     1      40.967   0.140  15.029  0.00  0.00    +0.000 C 
ATOM     16  N   UNL     1      42.774  -6.891  13.095  0.00  0.00    +0.000 N 
ATOM     17  H   UNL     1      41.880  -7.042  13.552  0.00  0.00    +0.000 HD
ATOM     18  H   UNL     1      43.095  -7.653  12.502  0.00  0.00    +0.000 HD
ENDROOT
TORSDOF 0
ENDMDL
MODEL 2
REMARK VINA RESULT:      -6.3      1.722      5.047
REMARK  Name = MeIQx.pdbqt.pdb
REMARK  0 active torsions:
REMARK  status: ('A' for Active; 'I' for Inactive)
REMARK                            x       y       z     vdW  Elec       q    Type
REMARK                         _______ _______ _______ _____ _____    ______ ____
ROOT
ATOM      1  N   UNL     1      44.571  -0.978  11.741  0.00  0.00    +0.000 N 
ATOM      2  N   UNL     1      42.810  -2.143  12.408  0.00  0.00    +0.000 NA
ATOM      3  N   UNL     1      42.528  -5.022  11.906  0.00  0.00    +0.000 NA
ATOM      4  N   UNL     1      44.643  -6.302  10.496  0.00  0.00    +0.000 NA
ATOM      5  C   UNL     1      44.821  -2.256  11.319  0.00  0.00    +0.000 A 
ATOM      6  C   UNL     1      43.703  -2.972  11.747  0.00  0.00    +0.000 A 
ATOM      7  C   UNL     1      43.633  -4.360  11.470  0.00  0.00    +0.000 A 
ATOM      8  C   UNL     1      44.693  -4.984  10.768  0.00  0.00    +0.000 A 
ATOM      9  C   UNL     1      43.348  -0.944  12.391  0.00  0.00    +0.000 A 
ATOM     10  C   UNL     1      45.882  -2.845  10.627  0.00  0.00    +0.000 A 
ATOM     11  C   UNL     1      45.778  -4.215  10.369  0.00  0.00    +0.000 A 
ATOM     12  C   UNL     1      45.461   0.134  11.569  0.00  0.00    +0.000 C 
ATOM     13  C   UNL     1      42.497  -6.341  11.623  0.00  0.00    +0.000 A 
ATOM     14  C   UNL     1      43.533  -6.963  10.933  0.00  0.00    +0.000 A 
ATOM     15  C   UNL     1      41.310  -7.144  12.074  0.00  0.00    +0.000 C 
ATOM     16  N   UNL     1      42.799   0.170  12.926  0.00  0.00    +0.000 N 
ATOM     17  H   UNL     1      42.006   0.062  13.551  0.00  0.00    +0.000 HD
ATOM     18  H   UNL     1      43.357   1.008  13.071  0.00  0.00    +0.000 HD
ENDROOT
TORSDOF 0
ENDMDL
MODEL 3
REMARK VINA RESULT:      -5.8      1.862      5.116
REMARK  Name = MeIQx.pdbqt.pdb
REMARK  0 active torsions:
REMARK  status: ('A' for Active; 'I' for Inactive)
REMARK                            x       y       z     vdW  Elec       q    Type
REMARK                         _______ _______ _______ _____ _____    ______ ____
ROOT
ATOM      1  N   UNL     1      44.860   1.039  12.210  0.00  0.00    +0.000 N 
ATOM      2  N   UNL     1      43.380  -0.317  13.144  0.00  0.00    +0.000 NA
ATOM      3  N   UNL     1      43.233  -3.182  12.518  0.00  0.00    +0.000 NA
ATOM      4  N   UNL     1      45.103  -4.188  10.623  0.00  0.00    +0.000 NA
ATOM      5  C   UNL     1      45.119  -0.188  11.661  0.00  0.00    +0.000 A 
ATOM      6  C   UNL     1      44.178  -1.025  12.260  0.00  0.00    +0.000 A 
ATOM      7  C   UNL     1      44.165  -2.399  11.911  0.00  0.00    +0.000 A 
ATOM      8  C   UNL     1      45.101  -2.886  10.966  0.00  0.00    +0.000 A 
ATOM      9  C   UNL     1      43.802   0.927  13.098  0.00  0.00    +0.000 A 
ATOM     10  C   UNL     1      46.056  -0.640  10.729  0.00  0.00    +0.000 A 
ATOM     11  C   UNL     1      46.012  -2.000  10.407  0.00  0.00    +0.000 A 
ATOM     12  C   UNL     1      45.601   2.236  11.935  0.00  0.00    +0.000 C 
ATOM     13  C   UNL     1      43.251  -4.482  12.160  0.00  0.00    +0.000 A 
ATOM     14  C   UNL     1      44.166  -4.971  11.233  0.00  0.00    +0.000 A 
ATOM     15  C   UNL     1      42.255  -5.414  12.789  0.00  0.00    +0.000 C 
ATOM     16  N   UNL     1      43.290   1.957  13.807  0.00  0.00    +0.000 N 
ATOM     17  H   UNL     1      42.657   1.745  14.573  0.00  0.00    +0.000 HD
ATOM     18  H   UNL     1      43.796   2.836  13.891  0.00  0.00    +0.000 HD
ENDROOT
TORSDOF 0
ENDMDL
MODEL 4
REMARK VINA RESULT:      -5.7     31.718     34.090
REMARK  Name = MeIQx.pdbqt.pdb
REMARK  0 active torsions:
REMARK  status: ('A' for Active; 'I' for Inactive)
REMARK                            x       y       z     vdW  Elec       q    Type
REMARK                         _______ _______ _______ _____ _____    ______ ____
ROOT
ATOM      1  N   UNL     1      17.911  19.080   3.884  0.00  0.00    +0.000 N 
ATOM      2  N   UNL     1      18.585  20.699   2.533  0.00  0.00    +0.000 NA
ATOM      3  N   UNL     1      21.413  21.152   1.883  0.00  0.00    +0.000 NA
ATOM      4  N   UNL     1      23.310  19.398   3.076  0.00  0.00    +0.000 NA
ATOM      5  C   UNL     1      19.274  18.953   3.844  0.00  0.00    +0.000 A 
ATOM      6  C   UNL     1      19.678  19.980   2.991  0.00  0.00    +0.000 A 
ATOM      7  C   UNL     1      21.060  20.140   2.721  0.00  0.00    +0.000 A 
ATOM      8  C   UNL     1      21.993  19.260   3.321  0.00  0.00    +0.000 A 
ATOM      9  C   UNL     1      17.529  20.146   3.085  0.00  0.00    +0.000 A 
ATOM     10  C   UNL     1      20.170  18.069   4.448  0.00  0.00    +0.000 A 
ATOM     11  C   UNL     1      21.526  18.258   4.161  0.00  0.00    +0.000 A 
ATOM     12  C   UNL     1      17.026  18.214   4.608  0.00  0.00    +0.000 C 
ATOM     13  C   UNL     1      22.736  21.273   1.650  0.00  0.00    +0.000 A 
ATOM     14  C   UNL     1      23.661  20.414   2.236  0.00  0.00    +0.000 A 
ATOM     15  C   UNL     1      23.207  22.365   0.732  0.00  0.00    +0.000 C 
ATOM     16  N   UNL     1      16.250  20.546   2.908  0.00  0.00    +0.000 N 
ATOM     17  H   UNL     1      16.051  21.199   2.156  0.00  0.00    +0.000 HD
ATOM     18  H   UNL     1      15.474  19.948   3.183  0.00  0.00    +0.000 HD
ENDROOT
TORSDOF 0
ENDMDL
MODEL 5
REMARK VINA RESULT:      -5.6     33.046     33.868
REMARK  Name = MeIQx.pdbqt.pdb
REMARK  0 active torsions:
REMARK  status: ('A' for Active; 'I' for Inactive)
REMARK                            x       y       z     vdW  Elec       q    Type
REMARK                         _______ _______ _______ _____ _____    ______ ____
ROOT
ATOM      1  N   UNL     1      21.376  19.907   2.562  0.00  0.00    +0.000 N 
ATOM      2  N   UNL     1      21.317  21.707   3.850  0.00  0.00    +0.000 NA
ATOM      3  N   UNL     1      23.317  23.850   3.676  0.00  0.00    +0.000 NA
ATOM      4  N   UNL     1      25.389  23.533   1.750  0.00  0.00    +0.000 NA
ATOM      5  C   UNL     1      22.463  20.645   2.175  0.00  0.00    +0.000 A 
ATOM      6  C   UNL     1      22.408  21.771   2.996  0.00  0.00    +0.000 A 
ATOM      7  C   UNL     1      23.407  22.767   2.858  0.00  0.00    +0.000 A 
ATOM      8  C   UNL     1      24.432  22.596   1.895  0.00  0.00    +0.000 A 
ATOM      9  C   UNL     1      20.710  20.574   3.577  0.00  0.00    +0.000 A 
ATOM     10  C   UNL     1      23.459  20.450   1.216  0.00  0.00    +0.000 A 
ATOM     11  C   UNL     1      24.429  21.452   1.109  0.00  0.00    +0.000 A 
ATOM     12  C   UNL     1      20.977  18.661   1.973  0.00  0.00    +0.000 C 
ATOM     13  C   UNL     1      24.285  24.776   3.515  0.00  0.00    +0.000 A 
ATOM     14  C   UNL     1      25.296  24.617   2.573  0.00  0.00    +0.000 A 
ATOM     15  C   UNL     1      24.255  26.004   4.379  0.00  0.00    +0.000 C 
ATOM     16  N   UNL     1      19.595  20.114   4.188  0.00  0.00    +0.000 N 
ATOM     17  H   UNL     1      19.068  20.756   4.772  0.00  0.00    +0.000 HD
ATOM     18  H   UNL     1      19.058  19.349   3.786  0.00  0.00    +0.000 HD
ENDROOT
TORSDOF 0
ENDMDL
MODEL 6
REMARK VINA RESULT:      -5.5      3.637      6.539
REMARK  Name = MeIQx.pdbqt.pdb
REMARK  0 active torsions:
REMARK  status: ('A' for Active; 'I' for Inactive)
REMARK                            x       y       z     vdW  Elec       q    Type
REMARK                         _______ _______ _______ _____ _____    ______ ____
ROOT
ATOM      1  N   UNL     1      46.138   3.685  14.174  0.00  0.00    +0.000 N 
ATOM      2  N   UNL     1      44.274   3.263  15.293  0.00  0.00    +0.000 NA
ATOM      3  N   UNL     1      42.444   1.085  14.567  0.00  0.00    +0.000 NA
ATOM      4  N   UNL     1      43.159  -0.508  12.319  0.00  0.00    +0.000 NA
ATOM      5  C   UNL     1      45.581   2.614  13.529  0.00  0.00    +0.000 A 
ATOM      6  C   UNL     1      44.411   2.365  14.246  0.00  0.00    +0.000 A 
ATOM      7  C   UNL     1      43.574   1.296  13.840  0.00  0.00    +0.000 A 
ATOM      8  C   UNL     1      43.942   0.511  12.720  0.00  0.00    +0.000 A 
ATOM      9  C   UNL     1      45.322   4.055  15.231  0.00  0.00    +0.000 A 
ATOM     10  C   UNL     1      45.971   1.856  12.422  0.00  0.00    +0.000 A 
ATOM     11  C   UNL     1      45.120   0.811  12.048  0.00  0.00    +0.000 A 
ATOM     12  C   UNL     1      47.390   4.294  13.828  0.00  0.00    +0.000 C 
ATOM     13  C   UNL     1      41.673   0.060  14.149  0.00  0.00    +0.000 A 
ATOM     14  C   UNL     1      42.026  -0.717  13.049  0.00  0.00    +0.000 A 
ATOM     15  C   UNL     1      40.408  -0.240  14.902  0.00  0.00    +0.000 C 
ATOM     16  N   UNL     1      45.579   5.083  16.070  0.00  0.00    +0.000 N 
ATOM     17  H   UNL     1      45.037   5.152  16.926  0.00  0.00    +0.000 HD
ATOM     18  H   UNL     1      46.502   5.511  16.103  0.00  0.00    +0.000 HD
ENDROOT
TORSDOF 0
ENDMDL
MODEL 7
REMARK VINA RESULT:      -5.3     32.401     35.034
REMARK  Name = MeIQx.pdbqt.pdb
REMARK  0 active torsions:
REMARK  status: ('A' for Active; 'I' for Inactive)
REMARK                            x       y       z     vdW  Elec       q    Type
REMARK                         _______ _______ _______ _____ _____    ______ ____
ROOT
ATOM      1  N   UNL     1      13.408   9.370  30.011  0.00  0.00    +0.000 N 
ATOM      2  N   UNL     1      13.449   7.162  30.169  0.00  0.00    +0.000 NA
ATOM      3  N   UNL     1      14.305   5.426  27.961  0.00  0.00    +0.000 NA
ATOM      4  N   UNL     1      15.099   6.704  25.545  0.00  0.00    +0.000 NA
ATOM      5  C   UNL     1      13.857   8.943  28.789  0.00  0.00    +0.000 A 
ATOM      6  C   UNL     1      13.875   7.553  28.909  0.00  0.00    +0.000 A 
ATOM      7  C   UNL     1      14.300   6.777  27.803  0.00  0.00    +0.000 A 
ATOM      8  C   UNL     1      14.693   7.426  26.607  0.00  0.00    +0.000 A 
ATOM      9  C   UNL     1      13.168   8.269  30.818  0.00  0.00    +0.000 A 
ATOM     10  C   UNL     1      14.241   9.611  27.624  0.00  0.00    +0.000 A 
ATOM     11  C   UNL     1      14.652   8.813  26.552  0.00  0.00    +0.000 A 
ATOM     12  C   UNL     1      13.255  10.743  30.396  0.00  0.00    +0.000 C 
ATOM     13  C   UNL     1      14.715   4.721  26.886  0.00  0.00    +0.000 A 
ATOM     14  C   UNL     1      15.102   5.350  25.707  0.00  0.00    +0.000 A 
ATOM     15  C   UNL     1      14.751   3.222  26.982  0.00  0.00    +0.000 C 
ATOM     16  N   UNL     1      12.710   8.341  32.088  0.00  0.00    +0.000 N 
ATOM     17  H   UNL     1      12.756   7.505  32.663  0.00  0.00    +0.000 HD
ATOM     18  H   UNL     1      12.722   9.222  32.598  0.00  0.00    +0.000 HD
ENDROOT
TORSDOF 0
ENDMDL
MODEL 8
REMARK VINA RESULT:      -5.1     25.233     26.306
REMARK  Name = MeIQx.pdbqt.pdb
REMARK  0 active torsions:
REMARK  status: ('A' for Active; 'I' for Inactive)
REMARK                            x       y       z     vdW  Elec       q    Type
REMARK                         _______ _______ _______ _____ _____    ______ ____
ROOT
ATOM      1  N   UNL     1      32.691   8.030  -5.818  0.00  0.00    +0.000 N 
ATOM      2  N   UNL     1      30.585   7.382  -6.040  0.00  0.00    +0.000 NA
ATOM      3  N   UNL     1      28.411   9.244  -6.692  0.00  0.00    +0.000 NA
ATOM      4  N   UNL     1      29.113  11.981  -7.037  0.00  0.00    +0.000 NA
ATOM      5  C   UNL     1      32.005   9.177  -6.116  0.00  0.00    +0.000 A 
ATOM      6  C   UNL     1      30.685   8.748  -6.251  0.00  0.00    +0.000 A 
ATOM      7  C   UNL     1      29.685   9.703  -6.567  0.00  0.00    +0.000 A 
ATOM      8  C   UNL     1      30.049  11.061  -6.737  0.00  0.00    +0.000 A 
ATOM      9  C   UNL     1      31.804   6.966  -5.775  0.00  0.00    +0.000 A 
ATOM     10  C   UNL     1      32.394  10.508  -6.280  0.00  0.00    +0.000 A 
ATOM     11  C   UNL     1      31.381  11.422  -6.589  0.00  0.00    +0.000 A 
ATOM     12  C   UNL     1      34.110   7.947  -5.623  0.00  0.00    +0.000 C 
ATOM     13  C   UNL     1      27.489  10.181  -6.992  0.00  0.00    +0.000 A 
ATOM     14  C   UNL     1      27.835  11.518  -7.160  0.00  0.00    +0.000 A 
ATOM     15  C   UNL     1      26.057   9.755  -7.150  0.00  0.00    +0.000 C 
ATOM     16  N   UNL     1      32.156   5.690  -5.501  0.00  0.00    +0.000 N 
ATOM     17  H   UNL     1      31.481   4.955  -5.688  0.00  0.00    +0.000 HD
ATOM     18  H   UNL     1      33.131   5.402  -5.522  0.00  0.00    +0.000 HD
ENDROOT
TORSDOF 0
ENDMDL
MODEL 9
REMARK VINA RESULT:      -5.0     23.633     27.018
REMARK  Name = MeIQx.pdbqt.pdb
REMARK  0 active torsions:
REMARK  status: ('A' for Active; 'I' for Inactive)
REMARK                            x       y       z     vdW  Elec       q    Type
REMARK                         _______ _______ _______ _____ _____    ______ ____
ROOT
ATOM      1  N   UNL     1      32.796  10.988  35.958  0.00  0.00    +0.000 N 
ATOM      2  N   UNL     1      34.435  12.084  34.951  0.00  0.00    +0.000 NA
ATOM      3  N   UNL     1      36.315  10.787  33.106  0.00  0.00    +0.000 NA
ATOM      4  N   UNL     1      35.956   8.003  32.641  0.00  0.00    +0.000 NA
ATOM      5  C   UNL     1      33.431  10.041  35.199  0.00  0.00    +0.000 A 
ATOM      6  C   UNL     1      34.457  10.750  34.575  0.00  0.00    +0.000 A 
ATOM      7  C   UNL     1      35.328  10.060  33.696  0.00  0.00    +0.000 A 
ATOM      8  C   UNL     1      35.138   8.674  33.473  0.00  0.00    +0.000 A 
ATOM      9  C   UNL     1      33.430  12.208  35.789  0.00  0.00    +0.000 A 
ATOM     10  C   UNL     1      33.217   8.676  34.998  0.00  0.00    +0.000 A 
ATOM     11  C   UNL     1      34.097   8.027  34.125  0.00  0.00    +0.000 A 
ATOM     12  C   UNL     1      31.634  10.750  36.765  0.00  0.00    +0.000 C 
ATOM     13  C   UNL     1      37.123  10.096  32.277  0.00  0.00    +0.000 A 
ATOM     14  C   UNL     1      36.946   8.734  32.052  0.00  0.00    +0.000 A 
ATOM     15  C   UNL     1      38.237  10.829  31.584  0.00  0.00    +0.000 C 
ATOM     16  N   UNL     1      33.056  13.353  36.403  0.00  0.00    +0.000 N 
ATOM     17  H   UNL     1      33.447  14.228  36.067  0.00  0.00    +0.000 HD
ATOM     18  H   UNL     1      32.150  13.428  36.860  0.00  0.00    +0.000 HD
ENDROOT
TORSDOF 0
ENDMDL
