REMARK  Name = Methotrexate.pdbqt.pdb
REMARK  9 active torsions:
REMARK  status: ('A' for Active; 'I' for Inactive)
REMARK    1  A    between atoms: C_1  and  N_22
REMARK    2  A    between atoms: C_2  and  C_9
REMARK    3  A    between atoms: CA_11  and  C_13
REMARK    4  A    between atoms: CA_11  and  CB_16
REMARK    5  A    between atoms: C_13  and  O_14
REMARK    6  A    between atoms: CG_17  and  CD_19
REMARK    7  A    between atoms: CD_19  and  OE1_20
REMARK    8  A    between atoms: N_22  and  C_24
REMARK    9  A    between atoms: C_24  and  C_31
REMARK                            x       y       z     vdW  Elec       q    Type
REMARK                         _______ _______ _______ _____ _____    ______ ____
ROOT
ATOM      1  C   UNL     1      -0.380   2.279   0.815  0.00  0.00    +0.000 A 
ATOM      2  C   UNL     1       2.187   1.096   0.724  0.00  0.00    +0.000 A 
ATOM      3  C   UNL     1      -0.151   1.084   0.119  0.00  0.00    +0.000 A 
ATOM      4  C   UNL     1       0.718   2.868   1.458  0.00  0.00    +0.000 A 
ATOM      5  C   UNL     1       1.113   0.495   0.073  0.00  0.00    +0.000 A 
ATOM      6  C   UNL     1       1.986   2.287   1.418  0.00  0.00    +0.000 A 
ENDROOT
BRANCH   2   9
ATOM      7  O   UNL     1       4.445   1.088   1.309  0.00  0.00    +0.000 OA
ATOM      8  N   UNL     1       3.700  -0.663  -0.013  0.00  0.00    +0.000 N 
ATOM      9  C   ACE A   0       3.551   0.510   0.703  0.00  0.00    +0.000 C 
ATOM     10  H   UNL     1       2.896  -1.068  -0.485  0.00  0.00    +0.000 HD
ATOM     11  CA  UNL     1       4.863  -1.393  -0.183  0.00  0.00    +0.000 C 
BRANCH  11  13
ATOM     12  OXT UNL     1       3.689  -2.994  -1.511  0.00  0.00    +0.000 OA
ATOM     13  C   UNL     1       4.737  -2.621  -1.006  0.00  0.00    +0.000 C 
BRANCH  13  14
ATOM     14  O   UNL     1       5.882  -3.304  -1.155  0.00  0.00    +0.000 OA
ATOM     15  H   UNL     1       5.649  -4.073  -1.715  0.00  0.00    +0.000 HD
ENDBRANCH  13  14
ENDBRANCH  11  13
BRANCH  11  16
ATOM     16  CB  UNL     1       6.100  -0.994   0.388  0.00  0.00    +0.000 C 
ATOM     17  CG  UNL     1       7.430  -0.551   1.009  0.00  0.00    +0.000 C 
BRANCH  17  19
ATOM     18  OE2 UNL     1       9.543   0.448   0.968  0.00  0.00    +0.000 OA
ATOM     19  CD  UNL     1       8.664  -0.121   1.593  0.00  0.00    +0.000 C 
BRANCH  19  20
ATOM     20  OE1 UNL     1       8.785  -0.416   2.900  0.00  0.00    +0.000 OA
ATOM     21  HE1 UNL     1       9.660  -0.048   3.135  0.00  0.00    +0.000 HD
ENDBRANCH  19  20
ENDBRANCH  17  19
ENDBRANCH  11  16
ENDBRANCH   2   9
BRANCH   1  22
ATOM     22  N   UNL     1      -1.664   2.874   0.835  0.00  0.00    +0.000 N 
ATOM     23  C   UNL     1      -1.965   3.992   1.711  0.00  0.00    +0.000 C 
BRANCH  22  24
ATOM     24  C   UNL     1      -2.814   2.152   0.332  0.00  0.00    +0.000 C 
BRANCH  24  31
ATOM     25  N   UNL     1      -4.011   0.178   0.150  0.00  0.00    +0.000 NA
ATOM     26  N   UNL     1      -6.111   1.392  -1.588  0.00  0.00    +0.000 NA
ATOM     27  N   UNL     1      -7.168  -0.663  -1.711  0.00  0.00    +0.000 NA
ATOM     28  N   UNL     1      -6.379  -2.563  -0.536  0.00  0.00    +0.000 NA
ATOM     29  N   UNL     1      -4.530  -2.607   0.817  0.00  0.00    +0.000 N 
ATOM     30  N   UNL     1      -8.250  -2.653  -1.875  0.00  0.00    +0.000 N 
ATOM     31  C   UNL     1      -3.940   1.442  -0.161  0.00  0.00    +0.000 C 
ATOM     32  C   UNL     1      -5.015   1.883  -0.992  0.00  0.00    +0.000 C 
ATOM     33  C   UNL     1      -5.135  -0.508  -0.354  0.00  0.00    +0.000 C 
ATOM     34  C   UNL     1      -6.168   0.131  -1.251  0.00  0.00    +0.000 C 
ATOM     35  C   UNL     1      -5.371  -1.927  -0.025  0.00  0.00    +0.000 C 
ATOM     36  C   UNL     1      -7.232  -1.911  -1.377  0.00  0.00    +0.000 C 
ATOM     37  H   UNL     1      -4.575  -3.615   0.726  0.00  0.00    +0.000 HD
ATOM     38  H   UNL     1      -3.597  -2.222   0.919  0.00  0.00    +0.000 HD
ATOM     39  H   UNL     1      -8.499  -3.433  -1.281  0.00  0.00    +0.000 HD
ATOM     40  H   UNL     1      -9.031  -2.088  -2.181  0.00  0.00    +0.000 HD
ENDBRANCH  24  31
ENDBRANCH  22  24
ENDBRANCH   1  22
TORSDOF 9
