MODEL 1
REMARK VINA RESULT:      -8.4      0.000      0.000
REMARK  Name = Methotrexate.pdbqt.pdb
REMARK  9 active torsions:
REMARK  status: ('A' for Active; 'I' for Inactive)
REMARK    1  A    between atoms: C_1  and  N_22
REMARK    2  A    between atoms: C_2  and  C_9
REMARK    3  A    between atoms: CA_11  and  C_13
REMARK    4  A    between atoms: CA_11  and  CB_16
REMARK    5  A    between atoms: C_13  and  O_14
REMARK    6  A    between atoms: CG_17  and  CD_19
REMARK    7  A    between atoms: CD_19  and  OE1_20
REMARK    8  A    between atoms: N_22  and  C_24
REMARK    9  A    between atoms: C_24  and  C_31
REMARK                            x       y       z     vdW  Elec       q    Type
REMARK                         _______ _______ _______ _____ _____    ______ ____
ROOT
ATOM      1  C   UNL     1      27.341  -6.645  19.161  0.00  0.00    +0.000 A 
ATOM      2  C   UNL     1      27.545  -5.196  16.741  0.00  0.00    +0.000 A 
ATOM      3  C   UNL     1      28.584  -6.389  18.566  0.00  0.00    +0.000 A 
ATOM      4  C   UNL     1      26.202  -6.161  18.502  0.00  0.00    +0.000 A 
ATOM      5  C   UNL     1      28.691  -5.672  17.374  0.00  0.00    +0.000 A 
ATOM      6  C   UNL     1      26.298  -5.443  17.309  0.00  0.00    +0.000 A 
ENDROOT
BRANCH   2   9
ATOM      7  O   UNL     1      26.730  -3.606  15.242  0.00  0.00    +0.000 OA
ATOM      8  N   UNL     1      28.669  -4.719  14.634  0.00  0.00    +0.000 N 
ATOM      9  C   ACE A   0      27.606  -4.431  15.470  0.00  0.00    +0.000 C 
ATOM     10  H   UNL     1      29.348  -5.423  14.911  0.00  0.00    +0.000 HD
ATOM     11  CA  UNL     1      28.940  -4.147  13.404  0.00  0.00    +0.000 C 
BRANCH  11  13
ATOM     12  OXT UNL     1      30.132  -5.462  11.805  0.00  0.00    +0.000 OA
ATOM     13  C   UNL     1      30.155  -4.648  12.716  0.00  0.00    +0.000 C 
BRANCH  13  14
ATOM     14  O   UNL     1      31.303  -4.130  13.179  0.00  0.00    +0.000 OA
ATOM     15  H   UNL     1      31.899  -4.898  13.299  0.00  0.00    +0.000 HD
ENDBRANCH  13  14
ENDBRANCH  11  13
BRANCH  11  16
ATOM     16  CB  UNL     1      28.109  -3.148  12.832  0.00  0.00    +0.000 C 
ATOM     17  CG  UNL     1      27.210  -2.064  12.226  0.00  0.00    +0.000 C 
BRANCH  17  19
ATOM     18  OE2 UNL     1      25.293  -0.727  12.162  0.00  0.00    +0.000 OA
ATOM     19  CD  UNL     1      26.367  -1.045  11.678  0.00  0.00    +0.000 C 
BRANCH  19  20
ATOM     20  OE1 UNL     1      26.852  -0.473  10.562  0.00  0.00    +0.000 OA
ATOM     21  HE1 UNL     1      26.196   0.224  10.361  0.00  0.00    +0.000 HD
ENDBRANCH  19  20
ENDBRANCH  17  19
ENDBRANCH  11  16
ENDBRANCH   2   9
BRANCH   1  22
ATOM     22  N   UNL     1      27.248  -7.391  20.360  0.00  0.00    +0.000 N 
ATOM     23  C   UNL     1      26.558  -8.667  20.405  0.00  0.00    +0.000 C 
BRANCH  22  24
ATOM     24  C   UNL     1      27.443  -6.745  21.641  0.00  0.00    +0.000 C 
BRANCH  24  31
ATOM     25  N   UNL     1      28.540  -5.179  22.947  0.00  0.00    +0.000 NA
ATOM     26  N   UNL     1      27.062  -5.935  25.427  0.00  0.00    +0.000 NA
ATOM     27  N   UNL     1      28.275  -4.357  26.607  0.00  0.00    +0.000 NA
ATOM     28  N   UNL     1      29.855  -2.935  25.560  0.00  0.00    +0.000 NA
ATOM     29  N   UNL     1      30.370  -2.948  23.327  0.00  0.00    +0.000 N 
ATOM     30  N   UNL     1      29.435  -2.828  27.821  0.00  0.00    +0.000 N 
ATOM     31  C   UNL     1      27.633  -6.114  22.898  0.00  0.00    +0.000 C 
ATOM     32  C   UNL     1      27.006  -6.363  24.158  0.00  0.00    +0.000 C 
ATOM     33  C   UNL     1      28.714  -4.569  24.207  0.00  0.00    +0.000 C 
ATOM     34  C   UNL     1      27.966  -4.992  25.448  0.00  0.00    +0.000 C 
ATOM     35  C   UNL     1      29.664  -3.454  24.387  0.00  0.00    +0.000 C 
ATOM     36  C   UNL     1      29.166  -3.419  26.633  0.00  0.00    +0.000 C 
ATOM     37  H   UNL     1      31.203  -2.434  23.589  0.00  0.00    +0.000 HD
ATOM     38  H   UNL     1      30.473  -3.564  22.528  0.00  0.00    +0.000 HD
ATOM     39  H   UNL     1      29.773  -1.879  27.725  0.00  0.00    +0.000 HD
ATOM     40  H   UNL     1      28.688  -2.945  28.493  0.00  0.00    +0.000 HD
ENDBRANCH  24  31
ENDBRANCH  22  24
ENDBRANCH   1  22
TORSDOF 9
ENDMDL
MODEL 2
REMARK VINA RESULT:      -8.1     16.434     19.713
REMARK  Name = Methotrexate.pdbqt.pdb
REMARK  9 active torsions:
REMARK  status: ('A' for Active; 'I' for Inactive)
REMARK    1  A    between atoms: C_1  and  N_22
REMARK    2  A    between atoms: C_2  and  C_9
REMARK    3  A    between atoms: CA_11  and  C_13
REMARK    4  A    between atoms: CA_11  and  CB_16
REMARK    5  A    between atoms: C_13  and  O_14
REMARK    6  A    between atoms: CG_17  and  CD_19
REMARK    7  A    between atoms: CD_19  and  OE1_20
REMARK    8  A    between atoms: N_22  and  C_24
REMARK    9  A    between atoms: C_24  and  C_31
REMARK                            x       y       z     vdW  Elec       q    Type
REMARK                         _______ _______ _______ _____ _____    ______ ____
ROOT
ATOM      1  C   UNL     1      43.622  -6.021  11.636  0.00  0.00    +0.000 A 
ATOM      2  C   UNL     1      44.884  -7.348   9.482  0.00  0.00    +0.000 A 
ATOM      3  C   UNL     1      42.884  -6.523  10.555  0.00  0.00    +0.000 A 
ATOM      4  C   UNL     1      45.013  -6.197  11.602  0.00  0.00    +0.000 A 
ATOM      5  C   UNL     1      43.502  -7.180   9.491  0.00  0.00    +0.000 A 
ATOM      6  C   UNL     1      45.640  -6.853  10.542  0.00  0.00    +0.000 A 
ENDROOT
BRANCH   2   9
ATOM      7  O   UNL     1      46.776  -7.799   8.194  0.00  0.00    +0.000 OA
ATOM      8  N   UNL     1      44.828  -8.913   7.618  0.00  0.00    +0.000 N 
ATOM      9  C   ACE A   0      45.588  -8.039   8.372  0.00  0.00    +0.000 C 
ATOM     10  H   UNL     1      43.845  -9.046   7.843  0.00  0.00    +0.000 HD
ATOM     11  CA  UNL     1      45.251  -9.667   6.538  0.00  0.00    +0.000 C 
BRANCH  11  13
ATOM     12  OXT UNL     1      44.473 -11.427   5.123  0.00  0.00    +0.000 OA
ATOM     13  C   UNL     1      44.219 -10.527   5.909  0.00  0.00    +0.000 C 
BRANCH  13  14
ATOM     14  O   UNL     1      42.961 -10.235   6.275  0.00  0.00    +0.000 OA
ATOM     15  H   UNL     1      42.769  -9.370   5.857  0.00  0.00    +0.000 HD
ENDBRANCH  13  14
ENDBRANCH  11  13
BRANCH  11  16
ATOM     16  CB  UNL     1      46.586  -9.620   6.057  0.00  0.00    +0.000 C 
ATOM     17  CG  UNL     1      48.030  -9.583   5.542  0.00  0.00    +0.000 C 
BRANCH  17  19
ATOM     18  OE2 UNL     1      49.759 -10.183   4.088  0.00  0.00    +0.000 OA
ATOM     19  CD  UNL     1      49.381  -9.565   5.069  0.00  0.00    +0.000 C 
BRANCH  19  20
ATOM     20  OE1 UNL     1      50.213  -8.816   5.815  0.00  0.00    +0.000 OA
ATOM     21  HE1 UNL     1      49.828  -7.920   5.753  0.00  0.00    +0.000 HD
ENDBRANCH  19  20
ENDBRANCH  17  19
ENDBRANCH  11  16
ENDBRANCH   2   9
BRANCH   1  22
ATOM     22  N   UNL     1      42.983  -5.338  12.699  0.00  0.00    +0.000 N 
ATOM     23  C   UNL     1      41.658  -5.721  13.154  0.00  0.00    +0.000 C 
BRANCH  22  24
ATOM     24  C   UNL     1      43.407  -4.005  13.074  0.00  0.00    +0.000 C 
BRANCH  24  31
ATOM     25  N   UNL     1      42.901  -1.782  13.477  0.00  0.00    +0.000 NA
ATOM     26  N   UNL     1      45.731  -1.051  14.077  0.00  0.00    +0.000 NA
ATOM     27  N   UNL     1      45.073   1.144  14.402  0.00  0.00    +0.000 NA
ATOM     28  N   UNL     1      42.806   1.818  14.265  0.00  0.00    +0.000 NA
ATOM     29  N   UNL     1      41.041   0.433  13.802  0.00  0.00    +0.000 N 
ATOM     30  N   UNL     1      44.493   3.315  14.730  0.00  0.00    +0.000 N 
ATOM     31  C   UNL     1      43.825  -2.700  13.444  0.00  0.00    +0.000 C 
ATOM     32  C   UNL     1      45.128  -2.205  13.758  0.00  0.00    +0.000 C 
ATOM     33  C   UNL     1      43.340  -0.493  13.842  0.00  0.00    +0.000 C 
ATOM     34  C   UNL     1      44.784  -0.151  14.117  0.00  0.00    +0.000 C 
ATOM     35  C   UNL     1      42.386   0.625  13.980  0.00  0.00    +0.000 C 
ATOM     36  C   UNL     1      44.140   2.038  14.448  0.00  0.00    +0.000 C 
ATOM     37  H   UNL     1      40.523   1.279  13.596  0.00  0.00    +0.000 HD
ATOM     38  H   UNL     1      40.777  -0.381  13.257  0.00  0.00    +0.000 HD
ATOM     39  H   UNL     1      43.749   3.845  15.165  0.00  0.00    +0.000 HD
ATOM     40  H   UNL     1      45.387   3.378  15.198  0.00  0.00    +0.000 HD
ENDBRANCH  24  31
ENDBRANCH  22  24
ENDBRANCH   1  22
TORSDOF 9
ENDMDL
MODEL 3
REMARK VINA RESULT:      -8.0     16.922     20.292
REMARK  Name = Methotrexate.pdbqt.pdb
REMARK  9 active torsions:
REMARK  status: ('A' for Active; 'I' for Inactive)
REMARK    1  A    between atoms: C_1  and  N_22
REMARK    2  A    between atoms: C_2  and  C_9
REMARK    3  A    between atoms: CA_11  and  C_13
REMARK    4  A    between atoms: CA_11  and  CB_16
REMARK    5  A    between atoms: C_13  and  O_14
REMARK    6  A    between atoms: CG_17  and  CD_19
REMARK    7  A    between atoms: CD_19  and  OE1_20
REMARK    8  A    between atoms: N_22  and  C_24
REMARK    9  A    between atoms: C_24  and  C_31
REMARK                            x       y       z     vdW  Elec       q    Type
REMARK                         _______ _______ _______ _____ _____    ______ ____
ROOT
ATOM      1  C   UNL     1      43.680  -5.772  11.364  0.00  0.00    +0.000 A 
ATOM      2  C   UNL     1      44.663  -7.251   9.163  0.00  0.00    +0.000 A 
ATOM      3  C   UNL     1      42.861  -6.084  10.270  0.00  0.00    +0.000 A 
ATOM      4  C   UNL     1      45.009  -6.217  11.319  0.00  0.00    +0.000 A 
ATOM      5  C   UNL     1      43.341  -6.815   9.183  0.00  0.00    +0.000 A 
ATOM      6  C   UNL     1      45.498  -6.949  10.237  0.00  0.00    +0.000 A 
ENDROOT
BRANCH   2   9
ATOM      7  O   UNL     1      46.381  -7.826   7.694  0.00  0.00    +0.000 OA
ATOM      8  N   UNL     1      44.366  -8.941   7.436  0.00  0.00    +0.000 N 
ATOM      9  C   ACE A   0      45.220  -8.031   8.030  0.00  0.00    +0.000 C 
ATOM     10  H   UNL     1      43.416  -9.039   7.786  0.00  0.00    +0.000 HD
ATOM     11  CA  UNL     1      44.648  -9.775   6.369  0.00  0.00    +0.000 C 
BRANCH  11  13
ATOM     12  OXT UNL     1      42.357 -10.385   6.082  0.00  0.00    +0.000 OA
ATOM     13  C   UNL     1      43.538 -10.657   5.931  0.00  0.00    +0.000 C 
BRANCH  13  14
ATOM     14  O   UNL     1      43.938 -11.796   5.347  0.00  0.00    +0.000 OA
ATOM     15  H   UNL     1      43.127 -12.341   5.269  0.00  0.00    +0.000 HD
ENDBRANCH  13  14
ENDBRANCH  11  13
BRANCH  11  16
ATOM     16  CB  UNL     1      45.916  -9.788   5.730  0.00  0.00    +0.000 C 
ATOM     17  CG  UNL     1      47.290  -9.805   5.051  0.00  0.00    +0.000 C 
BRANCH  17  19
ATOM     18  OE2 UNL     1      49.613 -10.066   5.038  0.00  0.00    +0.000 OA
ATOM     19  CD  UNL     1      48.582  -9.825   4.434  0.00  0.00    +0.000 C 
BRANCH  19  20
ATOM     20  OE1 UNL     1      48.567  -9.534   3.121  0.00  0.00    +0.000 OA
ATOM     21  HE1 UNL     1      49.391  -9.022   2.993  0.00  0.00    +0.000 HD
ENDBRANCH  19  20
ENDBRANCH  17  19
ENDBRANCH  11  16
ENDBRANCH   2   9
BRANCH   1  22
ATOM     22  N   UNL     1      43.184  -5.011  12.450  0.00  0.00    +0.000 N 
ATOM     23  C   UNL     1      42.073  -5.482  13.257  0.00  0.00    +0.000 C 
BRANCH  22  24
ATOM     24  C   UNL     1      43.454  -3.591  12.534  0.00  0.00    +0.000 C 
BRANCH  24  31
ATOM     25  N   UNL     1      44.773  -1.769  11.983  0.00  0.00    +0.000 NA
ATOM     26  N   UNL     1      43.127   0.143  13.576  0.00  0.00    +0.000 NA
ATOM     27  N   UNL     1      44.566   1.852  12.973  0.00  0.00    +0.000 NA
ATOM     28  N   UNL     1      46.392   1.508  11.504  0.00  0.00    +0.000 NA
ATOM     29  N   UNL     1      46.951  -0.492  10.535  0.00  0.00    +0.000 N 
ATOM     30  N   UNL     1      45.942   3.572  12.421  0.00  0.00    +0.000 N 
ATOM     31  C   UNL     1      43.720  -2.199  12.618  0.00  0.00    +0.000 C 
ATOM     32  C   UNL     1      43.029  -1.172  13.332  0.00  0.00    +0.000 C 
ATOM     33  C   UNL     1      45.020  -0.385  12.084  0.00  0.00    +0.000 C 
ATOM     34  C   UNL     1      44.180   0.552  12.919  0.00  0.00    +0.000 C 
ATOM     35  C   UNL     1      46.143   0.244  11.362  0.00  0.00    +0.000 C 
ATOM     36  C   UNL     1      45.604   2.264  12.321  0.00  0.00    +0.000 C 
ATOM     37  H   UNL     1      47.854  -0.070  10.352  0.00  0.00    +0.000 HD
ATOM     38  H   UNL     1      46.966  -1.492  10.703  0.00  0.00    +0.000 HD
ATOM     39  H   UNL     1      46.441   3.915  11.611  0.00  0.00    +0.000 HD
ATOM     40  H   UNL     1      45.170   4.153  12.720  0.00  0.00    +0.000 HD
ENDBRANCH  24  31
ENDBRANCH  22  24
ENDBRANCH   1  22
TORSDOF 9
ENDMDL
MODEL 4
REMARK VINA RESULT:      -7.7     16.199     19.217
REMARK  Name = Methotrexate.pdbqt.pdb
REMARK  9 active torsions:
REMARK  status: ('A' for Active; 'I' for Inactive)
REMARK    1  A    between atoms: C_1  and  N_22
REMARK    2  A    between atoms: C_2  and  C_9
REMARK    3  A    between atoms: CA_11  and  C_13
REMARK    4  A    between atoms: CA_11  and  CB_16
REMARK    5  A    between atoms: C_13  and  O_14
REMARK    6  A    between atoms: CG_17  and  CD_19
REMARK    7  A    between atoms: CD_19  and  OE1_20
REMARK    8  A    between atoms: N_22  and  C_24
REMARK    9  A    between atoms: C_24  and  C_31
REMARK                            x       y       z     vdW  Elec       q    Type
REMARK                         _______ _______ _______ _____ _____    ______ ____
ROOT
ATOM      1  C   UNL     1      43.621   5.306  17.778  0.00  0.00    +0.000 A 
ATOM      2  C   UNL     1      41.366   6.661  18.815  0.00  0.00    +0.000 A 
ATOM      3  C   UNL     1      42.584   4.613  18.418  0.00  0.00    +0.000 A 
ATOM      4  C   UNL     1      43.498   6.699  17.680  0.00  0.00    +0.000 A 
ATOM      5  C   UNL     1      41.468   5.277  18.929  0.00  0.00    +0.000 A 
ATOM      6  C   UNL     1      42.387   7.372  18.188  0.00  0.00    +0.000 A 
ENDROOT
BRANCH   2   9
ATOM      7  O   UNL     1      39.436   7.943  18.548  0.00  0.00    +0.000 OA
ATOM      8  N   UNL     1      40.073   7.451  20.720  0.00  0.00    +0.000 N 
ATOM      9  C   ACE A   0      40.200   7.413  19.344  0.00  0.00    +0.000 C 
ATOM     10  H   UNL     1      40.761   6.980  21.301  0.00  0.00    +0.000 HD
ATOM     11  CA  UNL     1      39.082   8.086  21.448  0.00  0.00    +0.000 C 
BRANCH  11  13
ATOM     12  OXT UNL     1      40.082   8.478  23.581  0.00  0.00    +0.000 OA
ATOM     13  C   UNL     1      39.190   7.966  22.923  0.00  0.00    +0.000 C 
BRANCH  13  14
ATOM     14  O   UNL     1      38.215   7.238  23.489  0.00  0.00    +0.000 OA
ATOM     15  H   UNL     1      38.656   6.421  23.801  0.00  0.00    +0.000 HD
ENDBRANCH  13  14
ENDBRANCH  11  13
BRANCH  11  16
ATOM     16  CB  UNL     1      38.030   8.809  20.827  0.00  0.00    +0.000 C 
ATOM     17  CG  UNL     1      36.884   9.583  20.163  0.00  0.00    +0.000 C 
BRANCH  17  19
ATOM     18  OE2 UNL     1      35.893  11.440  19.147  0.00  0.00    +0.000 OA
ATOM     19  CD  UNL     1      35.802  10.294  19.553  0.00  0.00    +0.000 C 
BRANCH  19  20
ATOM     20  OE1 UNL     1      34.657   9.592  19.478  0.00  0.00    +0.000 OA
ATOM     21  HE1 UNL     1      33.971  10.256  19.688  0.00  0.00    +0.000 HD
ENDBRANCH  19  20
ENDBRANCH  17  19
ENDBRANCH  11  16
ENDBRANCH   2   9
BRANCH   1  22
ATOM     22  N   UNL     1      44.756   4.620  17.283  0.00  0.00    +0.000 N 
ATOM     23  C   UNL     1      46.098   5.136  17.484  0.00  0.00    +0.000 C 
BRANCH  22  24
ATOM     24  C   UNL     1      44.617   3.647  16.219  0.00  0.00    +0.000 C 
BRANCH  24  31
ATOM     25  N   UNL     1      43.415   1.948  15.203  0.00  0.00    +0.000 NA
ATOM     26  N   UNL     1      45.454   1.528  13.066  0.00  0.00    +0.000 NA
ATOM     27  N   UNL     1      44.158  -0.180  12.194  0.00  0.00    +0.000 NA
ATOM     28  N   UNL     1      42.048  -0.757  13.104  0.00  0.00    +0.000 NA
ATOM     29  N   UNL     1      41.061   0.262  14.904  0.00  0.00    +0.000 N 
ATOM     30  N   UNL     1      42.935  -1.869  11.294  0.00  0.00    +0.000 N 
ATOM     31  C   UNL     1      44.484   2.694  15.175  0.00  0.00    +0.000 C 
ATOM     32  C   UNL     1      45.365   2.382  14.095  0.00  0.00    +0.000 C 
ATOM     33  C   UNL     1      43.305   1.006  14.160  0.00  0.00    +0.000 C 
ATOM     34  C   UNL     1      44.368   0.803  13.106  0.00  0.00    +0.000 C 
ATOM     35  C   UNL     1      42.115   0.143  14.036  0.00  0.00    +0.000 C 
ATOM     36  C   UNL     1      43.083  -0.898  12.227  0.00  0.00    +0.000 C 
ATOM     37  H   UNL     1      40.464  -0.554  14.949  0.00  0.00    +0.000 HD
ATOM     38  H   UNL     1      41.268   0.698  15.796  0.00  0.00    +0.000 HD
ATOM     39  H   UNL     1      41.967  -2.082  11.093  0.00  0.00    +0.000 HD
ATOM     40  H   UNL     1      43.513  -1.716  10.478  0.00  0.00    +0.000 HD
ENDBRANCH  24  31
ENDBRANCH  22  24
ENDBRANCH   1  22
TORSDOF 9
ENDMDL
MODEL 5
REMARK VINA RESULT:      -7.7     16.742     20.123
REMARK  Name = Methotrexate.pdbqt.pdb
REMARK  9 active torsions:
REMARK  status: ('A' for Active; 'I' for Inactive)
REMARK    1  A    between atoms: C_1  and  N_22
REMARK    2  A    between atoms: C_2  and  C_9
REMARK    3  A    between atoms: CA_11  and  C_13
REMARK    4  A    between atoms: CA_11  and  CB_16
REMARK    5  A    between atoms: C_13  and  O_14
REMARK    6  A    between atoms: CG_17  and  CD_19
REMARK    7  A    between atoms: CD_19  and  OE1_20
REMARK    8  A    between atoms: N_22  and  C_24
REMARK    9  A    between atoms: C_24  and  C_31
REMARK                            x       y       z     vdW  Elec       q    Type
REMARK                         _______ _______ _______ _____ _____    ______ ____
ROOT
ATOM      1  C   UNL     1      43.675  -6.225  10.872  0.00  0.00    +0.000 A 
ATOM      2  C   UNL     1      45.050  -7.438   8.719  0.00  0.00    +0.000 A 
ATOM      3  C   UNL     1      43.028  -6.517   9.664  0.00  0.00    +0.000 A 
ATOM      4  C   UNL     1      45.035  -6.553  10.967  0.00  0.00    +0.000 A 
ATOM      5  C   UNL     1      43.701  -7.117   8.599  0.00  0.00    +0.000 A 
ATOM      6  C   UNL     1      45.718  -7.153   9.908  0.00  0.00    +0.000 A 
ENDROOT
BRANCH   2   9
ATOM      7  O   UNL     1      45.274  -8.179   6.519  0.00  0.00    +0.000 OA
ATOM      8  N   UNL     1      47.088  -8.505   7.923  0.00  0.00    +0.000 N 
ATOM      9  C   ACE A   0      45.811  -8.075   7.615  0.00  0.00    +0.000 C 
ATOM     10  H   UNL     1      47.448  -8.375   8.865  0.00  0.00    +0.000 HD
ATOM     11  CA  UNL     1      47.986  -9.127   7.073  0.00  0.00    +0.000 C 
BRANCH  11  13
ATOM     12  OXT UNL     1      50.334  -9.560   7.032  0.00  0.00    +0.000 OA
ATOM     13  C   UNL     1      49.296  -9.485   7.670  0.00  0.00    +0.000 C 
BRANCH  13  14
ATOM     14  O   UNL     1      49.252  -9.726   8.989  0.00  0.00    +0.000 OA
ATOM     15  H   UNL     1      48.478 -10.313   9.116  0.00  0.00    +0.000 HD
ENDBRANCH  13  14
ENDBRANCH  11  13
BRANCH  11  16
ATOM     16  CB  UNL     1      47.675  -9.410   5.716  0.00  0.00    +0.000 C 
ATOM     17  CG  UNL     1      47.353  -9.720   4.250  0.00  0.00    +0.000 C 
BRANCH  17  19
ATOM     18  OE2 UNL     1      47.153  -9.195   1.981  0.00  0.00    +0.000 OA
ATOM     19  CD  UNL     1      47.070 -10.016   2.879  0.00  0.00    +0.000 C 
BRANCH  19  20
ATOM     20  OE1 UNL     1      46.682 -11.286   2.660  0.00  0.00    +0.000 OA
ATOM     21  HE1 UNL     1      46.875 -11.731   3.509  0.00  0.00    +0.000 HD
ENDBRANCH  19  20
ENDBRANCH  17  19
ENDBRANCH  11  16
ENDBRANCH   2   9
BRANCH   1  22
ATOM     22  N   UNL     1      42.983  -5.598  11.935  0.00  0.00    +0.000 N 
ATOM     23  C   UNL     1      41.650  -6.022  12.323  0.00  0.00    +0.000 C 
BRANCH  22  24
ATOM     24  C   UNL     1      43.368  -4.275  12.380  0.00  0.00    +0.000 C 
BRANCH  24  31
ATOM     25  N   UNL     1      42.773  -2.127  13.009  0.00  0.00    +0.000 NA
ATOM     26  N   UNL     1      45.601  -1.258  13.403  0.00  0.00    +0.000 NA
ATOM     27  N   UNL     1      44.851   0.858  13.966  0.00  0.00    +0.000 NA
ATOM     28  N   UNL     1      42.545   1.389  14.094  0.00  0.00    +0.000 NA
ATOM     29  N   UNL     1      40.827  -0.071  13.684  0.00  0.00    +0.000 N 
ATOM     30  N   UNL     1      44.179   2.954  14.522  0.00  0.00    +0.000 N 
ATOM     31  C   UNL     1      43.743  -2.977  12.816  0.00  0.00    +0.000 C 
ATOM     32  C   UNL     1      45.038  -2.422  13.047  0.00  0.00    +0.000 C 
ATOM     33  C   UNL     1      43.169  -0.843  13.436  0.00  0.00    +0.000 C 
ATOM     34  C   UNL     1      44.612  -0.428  13.604  0.00  0.00    +0.000 C 
ATOM     35  C   UNL     1      42.170   0.196  13.752  0.00  0.00    +0.000 C 
ATOM     36  C   UNL     1      43.875   1.682  14.170  0.00  0.00    +0.000 C 
ATOM     37  H   UNL     1      40.243   0.752  13.597  0.00  0.00    +0.000 HD
ATOM     38  H   UNL     1      40.560  -0.857  13.101  0.00  0.00    +0.000 HD
ATOM     39  H   UNL     1      43.451   3.399  15.067  0.00  0.00    +0.000 HD
ATOM     40  H   UNL     1      45.109   3.040  14.909  0.00  0.00    +0.000 HD
ENDBRANCH  24  31
ENDBRANCH  22  24
ENDBRANCH   1  22
TORSDOF 9
ENDMDL
MODEL 6
REMARK VINA RESULT:      -7.2     15.966     20.048
REMARK  Name = Methotrexate.pdbqt.pdb
REMARK  9 active torsions:
REMARK  status: ('A' for Active; 'I' for Inactive)
REMARK    1  A    between atoms: C_1  and  N_22
REMARK    2  A    between atoms: C_2  and  C_9
REMARK    3  A    between atoms: CA_11  and  C_13
REMARK    4  A    between atoms: CA_11  and  CB_16
REMARK    5  A    between atoms: C_13  and  O_14
REMARK    6  A    between atoms: CG_17  and  CD_19
REMARK    7  A    between atoms: CD_19  and  OE1_20
REMARK    8  A    between atoms: N_22  and  C_24
REMARK    9  A    between atoms: C_24  and  C_31
REMARK                            x       y       z     vdW  Elec       q    Type
REMARK                         _______ _______ _______ _____ _____    ______ ____
ROOT
ATOM      1  C   UNL     1      43.940   3.615  20.455  0.00  0.00    +0.000 A 
ATOM      2  C   UNL     1      43.429   1.846  22.601  0.00  0.00    +0.000 A 
ATOM      3  C   UNL     1      43.048   3.952  21.482  0.00  0.00    +0.000 A 
ATOM      4  C   UNL     1      44.563   2.361  20.531  0.00  0.00    +0.000 A 
ATOM      5  C   UNL     1      42.794   3.084  22.544  0.00  0.00    +0.000 A 
ATOM      6  C   UNL     1      44.316   1.486  21.588  0.00  0.00    +0.000 A 
ENDROOT
BRANCH   2   9
ATOM      7  O   UNL     1      43.593   1.175  24.828  0.00  0.00    +0.000 OA
ATOM      8  N   UNL     1      42.520  -0.276  23.375  0.00  0.00    +0.000 N 
ATOM      9  C   ACE A   0      43.191   0.886  23.708  0.00  0.00    +0.000 C 
ATOM     10  H   UNL     1      42.226  -0.427  22.414  0.00  0.00    +0.000 HD
ATOM     11  CA  UNL     1      42.185  -1.317  24.223  0.00  0.00    +0.000 C 
BRANCH  11  13
ATOM     12  OXT UNL     1      40.264  -2.648  23.731  0.00  0.00    +0.000 OA
ATOM     13  C   UNL     1      41.462  -2.450  23.595  0.00  0.00    +0.000 C 
BRANCH  13  14
ATOM     14  O   UNL     1      42.238  -3.256  22.855  0.00  0.00    +0.000 OA
ATOM     15  H   UNL     1      42.756  -2.655  22.281  0.00  0.00    +0.000 HD
ENDBRANCH  13  14
ENDBRANCH  11  13
BRANCH  11  16
ATOM     16  CB  UNL     1      42.514  -1.306  25.604  0.00  0.00    +0.000 C 
ATOM     17  CG  UNL     1      42.882  -1.291  27.092  0.00  0.00    +0.000 C 
BRANCH  17  19
ATOM     18  OE2 UNL     1      42.454  -1.487  29.382  0.00  0.00    +0.000 OA
ATOM     19  CD  UNL     1      43.243  -1.273  28.477  0.00  0.00    +0.000 C 
BRANCH  19  20
ATOM     20  OE1 UNL     1      44.536  -0.979  28.703  0.00  0.00    +0.000 OA
ATOM     21  HE1 UNL     1      44.610  -0.048  28.416  0.00  0.00    +0.000 HD
ENDBRANCH  19  20
ENDBRANCH  17  19
ENDBRANCH  11  16
ENDBRANCH   2   9
BRANCH   1  22
ATOM     22  N   UNL     1      44.172   4.499  19.374  0.00  0.00    +0.000 N 
ATOM     23  C   UNL     1      43.754   5.889  19.432  0.00  0.00    +0.000 C 
BRANCH  22  24
ATOM     24  C   UNL     1      44.425   3.982  18.046  0.00  0.00    +0.000 C 
BRANCH  24  31
ATOM     25  N   UNL     1      43.769   2.682  16.245  0.00  0.00    +0.000 NA
ATOM     26  N   UNL     1      46.247   3.257  14.686  0.00  0.00    +0.000 NA
ATOM     27  N   UNL     1      45.473   1.887  12.989  0.00  0.00    +0.000 NA
ATOM     28  N   UNL     1      43.351   0.837  13.081  0.00  0.00    +0.000 NA
ATOM     29  N   UNL     1      41.853   1.031  14.804  0.00  0.00    +0.000 N 
ATOM     30  N   UNL     1      44.771   0.552  11.291  0.00  0.00    +0.000 N 
ATOM     31  C   UNL     1      44.676   3.474  16.744  0.00  0.00    +0.000 C 
ATOM     32  C   UNL     1      45.802   3.660  15.884  0.00  0.00    +0.000 C 
ATOM     33  C   UNL     1      44.041   2.186  14.953  0.00  0.00    +0.000 C 
ATOM     34  C   UNL     1      45.317   2.478  14.201  0.00  0.00    +0.000 C 
ATOM     35  C   UNL     1      43.069   1.331  14.246  0.00  0.00    +0.000 C 
ATOM     36  C   UNL     1      44.553   1.119  12.502  0.00  0.00    +0.000 C 
ATOM     37  H   UNL     1      41.409   0.207  14.417  0.00  0.00    +0.000 HD
ATOM     38  H   UNL     1      41.793   1.123  15.813  0.00  0.00    +0.000 HD
ATOM     39  H   UNL     1      43.916   0.346  10.790  0.00  0.00    +0.000 HD
ATOM     40  H   UNL     1      45.470   1.044  10.750  0.00  0.00    +0.000 HD
ENDBRANCH  24  31
ENDBRANCH  22  24
ENDBRANCH   1  22
TORSDOF 9
ENDMDL
MODEL 7
REMARK VINA RESULT:      -7.0     16.793     19.925
REMARK  Name = Methotrexate.pdbqt.pdb
REMARK  9 active torsions:
REMARK  status: ('A' for Active; 'I' for Inactive)
REMARK    1  A    between atoms: C_1  and  N_22
REMARK    2  A    between atoms: C_2  and  C_9
REMARK    3  A    between atoms: CA_11  and  C_13
REMARK    4  A    between atoms: CA_11  and  CB_16
REMARK    5  A    between atoms: C_13  and  O_14
REMARK    6  A    between atoms: CG_17  and  CD_19
REMARK    7  A    between atoms: CD_19  and  OE1_20
REMARK    8  A    between atoms: N_22  and  C_24
REMARK    9  A    between atoms: C_24  and  C_31
REMARK                            x       y       z     vdW  Elec       q    Type
REMARK                         _______ _______ _______ _____ _____    ______ ____
ROOT
ATOM      1  C   UNL     1      43.618   5.627  17.719  0.00  0.00    +0.000 A 
ATOM      2  C   UNL     1      41.260   6.705  18.847  0.00  0.00    +0.000 A 
ATOM      3  C   UNL     1      42.724   4.828  18.445  0.00  0.00    +0.000 A 
ATOM      4  C   UNL     1      43.299   6.986  17.582  0.00  0.00    +0.000 A 
ATOM      5  C   UNL     1      41.558   5.354  19.002  0.00  0.00    +0.000 A 
ATOM      6  C   UNL     1      42.135   7.522  18.135  0.00  0.00    +0.000 A 
ENDROOT
BRANCH   2   9
ATOM      7  O   UNL     1      39.082   7.524  18.679  0.00  0.00    +0.000 OA
ATOM      8  N   UNL     1      40.068   7.596  20.775  0.00  0.00    +0.000 N 
ATOM      9  C   ACE A   0      40.033   7.313  19.422  0.00  0.00    +0.000 C 
ATOM     10  H   UNL     1      40.907   7.385  21.309  0.00  0.00    +0.000 HD
ATOM     11  CA  UNL     1      39.060   8.162  21.534  0.00  0.00    +0.000 C 
BRANCH  11  13
ATOM     12  OXT UNL     1      38.991   7.599  23.854  0.00  0.00    +0.000 OA
ATOM     13  C   UNL     1      39.368   8.355  22.972  0.00  0.00    +0.000 C 
BRANCH  13  14
ATOM     14  O   UNL     1      40.106   9.444  23.235  0.00  0.00    +0.000 OA
ATOM     15  H   UNL     1      39.501  10.055  23.704  0.00  0.00    +0.000 HD
ENDBRANCH  13  14
ENDBRANCH  11  13
BRANCH  11  16
ATOM     16  CB  UNL     1      37.810   8.539  20.976  0.00  0.00    +0.000 C 
ATOM     17  CG  UNL     1      36.454   8.945  20.386  0.00  0.00    +0.000 C 
BRANCH  17  19
ATOM     18  OE2 UNL     1      34.194   8.607  19.893  0.00  0.00    +0.000 OA
ATOM     19  CD  UNL     1      35.181   9.322  19.852  0.00  0.00    +0.000 C 
BRANCH  19  20
ATOM     20  OE1 UNL     1      35.165  10.538  19.276  0.00  0.00    +0.000 OA
ATOM     21  HE1 UNL     1      35.411  10.352  18.348  0.00  0.00    +0.000 HD
ENDBRANCH  19  20
ENDBRANCH  17  19
ENDBRANCH  11  16
ENDBRANCH   2   9
BRANCH   1  22
ATOM     22  N   UNL     1      44.807   5.082  17.179  0.00  0.00    +0.000 N 
ATOM     23  C   UNL     1      46.078   5.772  17.300  0.00  0.00    +0.000 C 
BRANCH  22  24
ATOM     24  C   UNL     1      44.745   4.073  16.142  0.00  0.00    +0.000 C 
BRANCH  24  31
ATOM     25  N   UNL     1      45.707   3.021  14.317  0.00  0.00    +0.000 NA
ATOM     26  N   UNL     1      43.382   1.197  13.905  0.00  0.00    +0.000 NA
ATOM     27  N   UNL     1      44.455   0.276  12.073  0.00  0.00    +0.000 NA
ATOM     28  N   UNL     1      46.633   0.941  11.417  0.00  0.00    +0.000 NA
ATOM     29  N   UNL     1      47.904   2.529  12.473  0.00  0.00    +0.000 N 
ATOM     30  N   UNL     1      45.454  -0.664  10.263  0.00  0.00    +0.000 N 
ATOM     31  C   UNL     1      44.686   3.084  15.125  0.00  0.00    +0.000 C 
ATOM     32  C   UNL     1      43.654   2.149  14.809  0.00  0.00    +0.000 C 
ATOM     33  C   UNL     1      45.625   2.035  13.312  0.00  0.00    +0.000 C 
ATOM     34  C   UNL     1      44.423   1.143  13.117  0.00  0.00    +0.000 C 
ATOM     35  C   UNL     1      46.739   1.814  12.370  0.00  0.00    +0.000 C 
ATOM     36  C   UNL     1      45.485   0.216  11.292  0.00  0.00    +0.000 C 
ATOM     37  H   UNL     1      48.457   2.549  11.624  0.00  0.00    +0.000 HD
ATOM     38  H   UNL     1      47.842   3.411  12.970  0.00  0.00    +0.000 HD
ATOM     39  H   UNL     1      46.374  -0.975   9.979  0.00  0.00    +0.000 HD
ATOM     40  H   UNL     1      44.782  -1.407  10.405  0.00  0.00    +0.000 HD
ENDBRANCH  24  31
ENDBRANCH  22  24
ENDBRANCH   1  22
TORSDOF 9
ENDMDL
MODEL 8
REMARK VINA RESULT:      -7.0     20.393     25.090
REMARK  Name = Methotrexate.pdbqt.pdb
REMARK  9 active torsions:
REMARK  status: ('A' for Active; 'I' for Inactive)
REMARK    1  A    between atoms: C_1  and  N_22
REMARK    2  A    between atoms: C_2  and  C_9
REMARK    3  A    between atoms: CA_11  and  C_13
REMARK    4  A    between atoms: CA_11  and  CB_16
REMARK    5  A    between atoms: C_13  and  O_14
REMARK    6  A    between atoms: CG_17  and  CD_19
REMARK    7  A    between atoms: CD_19  and  OE1_20
REMARK    8  A    between atoms: N_22  and  C_24
REMARK    9  A    between atoms: C_24  and  C_31
REMARK                            x       y       z     vdW  Elec       q    Type
REMARK                         _______ _______ _______ _____ _____    ______ ____
ROOT
ATOM      1  C   UNL     1      49.462   0.798   9.412  0.00  0.00    +0.000 A 
ATOM      2  C   UNL     1      47.006   0.044  10.593  0.00  0.00    +0.000 A 
ATOM      3  C   UNL     1      48.767  -0.342   8.986  0.00  0.00    +0.000 A 
ATOM      4  C   UNL     1      48.894   1.545  10.454  0.00  0.00    +0.000 A 
ATOM      5  C   UNL     1      47.554  -0.717   9.564  0.00  0.00    +0.000 A 
ATOM      6  C   UNL     1      47.681   1.179  11.038  0.00  0.00    +0.000 A 
ENDROOT
BRANCH   2   9
ATOM      7  O   UNL     1      45.252   0.451  12.076  0.00  0.00    +0.000 OA
ATOM      8  N   UNL     1      45.145  -1.506  10.840  0.00  0.00    +0.000 N 
ATOM      9  C   ACE A   0      45.719  -0.315  11.241  0.00  0.00    +0.000 C 
ATOM     10  H   UNL     1      45.611  -2.076  10.139  0.00  0.00    +0.000 HD
ATOM     11  CA  UNL     1      43.960  -2.055  11.296  0.00  0.00    +0.000 C 
BRANCH  11  13
ATOM     12  OXT UNL     1      42.444  -3.622  10.321  0.00  0.00    +0.000 OA
ATOM     13  C   UNL     1      43.577  -3.354  10.690  0.00  0.00    +0.000 C 
BRANCH  13  14
ATOM     14  O   UNL     1      44.588  -4.228  10.577  0.00  0.00    +0.000 OA
ATOM     15  H   UNL     1      45.027  -4.002   9.731  0.00  0.00    +0.000 HD
ENDBRANCH  13  14
ENDBRANCH  11  13
BRANCH  11  16
ATOM     16  CB  UNL     1      43.160  -1.421  12.282  0.00  0.00    +0.000 C 
ATOM     17  CG  UNL     1      42.306  -0.726  13.349  0.00  0.00    +0.000 C 
BRANCH  17  19
ATOM     18  OE2 UNL     1      41.692   1.097  14.678  0.00  0.00    +0.000 OA
ATOM     19  CD  UNL     1      41.522  -0.064  14.348  0.00  0.00    +0.000 C 
BRANCH  19  20
ATOM     20  OE1 UNL     1      40.582  -0.843  14.913  0.00  0.00    +0.000 OA
ATOM     21  HE1 UNL     1      40.363  -0.370  15.740  0.00  0.00    +0.000 HD
ENDBRANCH  19  20
ENDBRANCH  17  19
ENDBRANCH  11  16
ENDBRANCH   2   9
BRANCH   1  22
ATOM     22  N   UNL     1      50.702   1.154   8.829  0.00  0.00    +0.000 N 
ATOM     23  C   UNL     1      51.932   1.138   9.601  0.00  0.00    +0.000 C 
BRANCH  22  24
ATOM     24  C   UNL     1      50.742   1.940   7.614  0.00  0.00    +0.000 C 
BRANCH  24  31
ATOM     25  N   UNL     1      51.072   3.972   6.555  0.00  0.00    +0.000 NA
ATOM     26  N   UNL     1      50.454   2.877   3.849  0.00  0.00    +0.000 NA
ATOM     27  N   UNL     1      50.775   4.984   2.946  0.00  0.00    +0.000 NA
ATOM     28  N   UNL     1      51.453   6.834   4.262  0.00  0.00    +0.000 NA
ATOM     29  N   UNL     1      51.854   6.776   6.517  0.00  0.00    +0.000 N 
ATOM     30  N   UNL     1      51.072   7.026   1.999  0.00  0.00    +0.000 N 
ATOM     31  C   UNL     1      50.782   2.709   6.421  0.00  0.00    +0.000 C 
ATOM     32  C   UNL     1      50.516   2.328   5.070  0.00  0.00    +0.000 C 
ATOM     33  C   UNL     1      51.103   4.717   5.358  0.00  0.00    +0.000 C 
ATOM     34  C   UNL     1      50.762   4.137   4.007  0.00  0.00    +0.000 C 
ATOM     35  C   UNL     1      51.479   6.144   5.360  0.00  0.00    +0.000 C 
ATOM     36  C   UNL     1      51.083   6.231   3.095  0.00  0.00    +0.000 C 
ATOM     37  H   UNL     1      51.776   7.785   6.485  0.00  0.00    +0.000 HD
ATOM     38  H   UNL     1      51.542   6.343   7.380  0.00  0.00    +0.000 HD
ATOM     39  H   UNL     1      51.702   7.814   2.074  0.00  0.00    +0.000 HD
ATOM     40  H   UNL     1      51.149   6.504   1.137  0.00  0.00    +0.000 HD
ENDBRANCH  24  31
ENDBRANCH  22  24
ENDBRANCH   1  22
TORSDOF 9
ENDMDL
MODEL 9
REMARK VINA RESULT:      -6.8     29.091     32.166
REMARK  Name = Methotrexate.pdbqt.pdb
REMARK  9 active torsions:
REMARK  status: ('A' for Active; 'I' for Inactive)
REMARK    1  A    between atoms: C_1  and  N_22
REMARK    2  A    between atoms: C_2  and  C_9
REMARK    3  A    between atoms: CA_11  and  C_13
REMARK    4  A    between atoms: CA_11  and  CB_16
REMARK    5  A    between atoms: C_13  and  O_14
REMARK    6  A    between atoms: CG_17  and  CD_19
REMARK    7  A    between atoms: CD_19  and  OE1_20
REMARK    8  A    between atoms: N_22  and  C_24
REMARK    9  A    between atoms: C_24  and  C_31
REMARK                            x       y       z     vdW  Elec       q    Type
REMARK                         _______ _______ _______ _____ _____    ______ ____
ROOT
ATOM      1  C   UNL     1      21.666  24.649  31.142  0.00  0.00    +0.000 A 
ATOM      2  C   UNL     1      22.179  21.879  30.899  0.00  0.00    +0.000 A 
ATOM      3  C   UNL     1      20.779  23.799  30.467  0.00  0.00    +0.000 A 
ATOM      4  C   UNL     1      22.822  24.071  31.686  0.00  0.00    +0.000 A 
ATOM      5  C   UNL     1      21.027  22.431  30.347  0.00  0.00    +0.000 A 
ATOM      6  C   UNL     1      23.079  22.705  31.570  0.00  0.00    +0.000 A 
ENDROOT
BRANCH   2   9
ATOM      7  O   UNL     1      21.573  19.652  30.561  0.00  0.00    +0.000 OA
ATOM      8  N   UNL     1      23.812  20.075  30.978  0.00  0.00    +0.000 N 
ATOM      9  C   ACE A   0      22.489  20.431  30.796  0.00  0.00    +0.000 C 
ATOM     10  H   UNL     1      24.503  20.795  31.170  0.00  0.00    +0.000 HD
ATOM     11  CA  UNL     1      24.345  18.799  30.934  0.00  0.00    +0.000 C 
BRANCH  11  13
ATOM     12  OXT UNL     1      26.307  18.129  32.121  0.00  0.00    +0.000 OA
ATOM     13  C   UNL     1      25.808  18.705  31.166  0.00  0.00    +0.000 C 
BRANCH  13  14
ATOM     14  O   UNL     1      26.554  19.313  30.232  0.00  0.00    +0.000 OA
ATOM     15  H   UNL     1      26.666  18.647  29.522  0.00  0.00    +0.000 HD
ENDBRANCH  13  14
ENDBRANCH  11  13
BRANCH  11  16
ATOM     16  CB  UNL     1      23.548  17.651  30.686  0.00  0.00    +0.000 C 
ATOM     17  CG  UNL     1      22.678  16.419  30.411  0.00  0.00    +0.000 C 
BRANCH  17  19
ATOM     18  OE2 UNL     1      22.088  14.163  30.574  0.00  0.00    +0.000 OA
ATOM     19  CD  UNL     1      21.853  15.280  30.144  0.00  0.00    +0.000 C 
BRANCH  19  20
ATOM     20  OE1 UNL     1      20.795  15.540  29.355  0.00  0.00    +0.000 OA
ATOM     21  HE1 UNL     1      20.655  14.697  28.880  0.00  0.00    +0.000 HD
ENDBRANCH  19  20
ENDBRANCH  17  19
ENDBRANCH  11  16
ENDBRANCH   2   9
BRANCH   1  22
ATOM     22  N   UNL     1      21.410  26.038  31.238  0.00  0.00    +0.000 N 
ATOM     23  C   UNL     1      20.371  26.556  32.110  0.00  0.00    +0.000 C 
BRANCH  22  24
ATOM     24  C   UNL     1      21.849  26.938  30.192  0.00  0.00    +0.000 C 
BRANCH  24  31
ATOM     25  N   UNL     1      21.454  28.005  28.175  0.00  0.00    +0.000 NA
ATOM     26  N   UNL     1      24.116  29.352  28.151  0.00  0.00    +0.000 NA
ATOM     27  N   UNL     1      23.590  30.309  26.111  0.00  0.00    +0.000 NA
ATOM     28  N   UNL     1      21.485  29.994  25.072  0.00  0.00    +0.000 NA
ATOM     29  N   UNL     1      19.766  28.740  25.922  0.00  0.00    +0.000 N 
ATOM     30  N   UNL     1      23.137  31.275  24.106  0.00  0.00    +0.000 N 
ATOM     31  C   UNL     1      22.279  27.822  29.168  0.00  0.00    +0.000 C 
ATOM     32  C   UNL     1      23.509  28.534  29.022  0.00  0.00    +0.000 C 
ATOM     33  C   UNL     1      21.903  28.883  27.168  0.00  0.00    +0.000 C 
ATOM     34  C   UNL     1      23.267  29.531  27.175  0.00  0.00    +0.000 C 
ATOM     35  C   UNL     1      21.043  29.227  26.019  0.00  0.00    +0.000 C 
ATOM     36  C   UNL     1      22.752  30.493  25.143  0.00  0.00    +0.000 C 
ATOM     37  H   UNL     1      19.385  28.755  24.983  0.00  0.00    +0.000 HD
ATOM     38  H   UNL     1      19.568  27.900  26.456  0.00  0.00    +0.000 HD
ATOM     39  H   UNL     1      22.360  31.721  23.636  0.00  0.00    +0.000 HD
ATOM     40  H   UNL     1      23.898  31.895  24.346  0.00  0.00    +0.000 HD
ENDBRANCH  24  31
ENDBRANCH  22  24
ENDBRANCH   1  22
TORSDOF 9
ENDMDL
