MODEL 1
REMARK VINA RESULT:      -7.2      0.000      0.000
REMARK  Name = 
REMARK  21 active torsions:
REMARK  status: ('A' for Active; 'I' for Inactive)
REMARK    1  A    between atoms: O_3  and  C_27
REMARK    2  A    between atoms: O_3  and  C_28
REMARK    3  A    between atoms: N_6  and  CA_9
REMARK    4  A    between atoms: N_7  and  CA_15
REMARK    5  A    between atoms: N_8  and  CA_12
REMARK    6  A    between atoms: CA_9  and  CB_10
REMARK    7  A    between atoms: CA_9  and  C_16
REMARK    8  A    between atoms: CB_10  and  CG_11
REMARK    9  A    between atoms: CG_11  and  CD1_20
REMARK   10  A    between atoms: CG_11  and  CD2_21
REMARK   11  A    between atoms: CA_12  and  CB_13
REMARK   12  A    between atoms: CA_12  and  C_18
REMARK   13  A    between atoms: CB_13  and  CG_14
REMARK   14  A    between atoms: CG_14  and  CD1_22
REMARK   15  A    between atoms: CG_14  and  CD2_23
REMARK   16  A    between atoms: CA_15  and  CB_17
REMARK   17  A    between atoms: CA_15  and  C_26
REMARK   18  A    between atoms: CB_17  and  CG_19
REMARK   19  A    between atoms: CG_19  and  CD1_24
REMARK   20  A    between atoms: CG_19  and  CD2_25
REMARK   21  A    between atoms: C_28  and  C_29
REMARK                            x       y       z     vdW  Elec       q    Type
REMARK                         _______ _______ _______ _____ _____    ______ ____
ROOT
ATOM      1  O   UNL     1      43.731  -3.098  14.941  0.00  0.00    +0.000 OA
ATOM      2  N   UNL     1      43.735  -2.985  12.663  0.00  0.00    +0.000 N 
ATOM      3  C   UNL     1      43.599  -2.427  13.922  0.00  0.00    +0.000 C 
ATOM      4  H   UNL     1      44.098  -2.341  11.964  0.00  0.00    +0.000 HD
ENDROOT
BRANCH   2   5
ATOM      5  CA  UNL     1      44.178  -4.374  12.532  0.00  0.00    +0.000 C 
BRANCH   5   8
ATOM      6  O   UNL     1      41.901  -5.025  13.010  0.00  0.00    +0.000 OA
ATOM      7  N   UNL     1      42.811  -6.107  11.291  0.00  0.00    +0.000 N 
ATOM      8  C   UNL     1      42.891  -5.183  12.288  0.00  0.00    +0.000 C 
ATOM      9  H   UNL     1      41.886  -6.522  11.253  0.00  0.00    +0.000 HD
BRANCH   7  10
ATOM     10  CA  UNL     1      43.645  -6.256  10.099  0.00  0.00    +0.000 C 
BRANCH  10  12
ATOM     11  O   UNL     1      43.063  -7.406   8.032  0.00  0.00    +0.000 OA
ATOM     12  C   UNL     1      42.773  -6.569   8.883  0.00  0.00    +0.000 C 
ENDBRANCH  10  12
BRANCH  10  13
ATOM     13  CB  UNL     1      44.790  -7.259  10.313  0.00  0.00    +0.000 C 
BRANCH  13  14
ATOM     14  CG  UNL     1      46.230  -6.760  10.062  0.00  0.00    +0.000 C 
ATOM     15  CD1 UNL     1      47.001  -7.603   9.048  0.00  0.00    +0.000 C 
ATOM     16  CD2 UNL     1      46.188  -5.303   9.588  0.00  0.00    +0.000 C 
ENDBRANCH  13  14
ENDBRANCH  10  13
ENDBRANCH   7  10
ENDBRANCH   5   8
BRANCH   5  17
ATOM     17  CB  UNL     1      44.856  -4.831  13.832  0.00  0.00    +0.000 C 
BRANCH  17  18
ATOM     18  CG  UNL     1      46.393  -4.925  13.757  0.00  0.00    +0.000 C 
ATOM     19  CD1 UNL     1      46.994  -3.875  12.821  0.00  0.00    +0.000 C 
ATOM     20  CD2 UNL     1      46.990  -4.756  15.157  0.00  0.00    +0.000 C 
ENDBRANCH  17  18
ENDBRANCH   5  17
ENDBRANCH   2   5
BRANCH   3  21
ATOM     21  CA  UNL     1      43.353  -0.898  13.929  0.00  0.00    +0.000 C 
BRANCH  21  23
ATOM     22  O   UNL     1      45.835   0.023  14.909  0.00  0.00    +0.000 OA
ATOM     23  N   UNL     1      44.394  -0.224  13.142  0.00  0.00    +0.000 N 
ATOM     24  C   ACE A   0      45.548   0.212  13.737  0.00  0.00    +0.000 C 
ATOM     25  H   UNL     1      44.104   0.273  12.311  0.00  0.00    +0.000 HD
BRANCH  24  26
ATOM     26  O   UNL     1      46.303   0.981  12.918  0.00  0.00    +0.000 OA
BRANCH  26  27
ATOM     27  C   UNL     1      45.852   1.067  11.561  0.00  0.00    +0.000 C 
BRANCH  27  28
ATOM     28  C   UNL     1      46.767   0.262  10.670  0.00  0.00    +0.000 A 
ATOM     29  C   UNL     1      46.351  -0.974  10.157  0.00  0.00    +0.000 A 
ATOM     30  C   UNL     1      48.067   0.706  10.390  0.00  0.00    +0.000 A 
ATOM     31  C   UNL     1      47.208  -1.736   9.359  0.00  0.00    +0.000 A 
ATOM     32  C   UNL     1      48.923  -0.056   9.593  0.00  0.00    +0.000 A 
ATOM     33  C   UNL     1      48.492  -1.277   9.076  0.00  0.00    +0.000 A 
ENDBRANCH  27  28
ENDBRANCH  26  27
ENDBRANCH  24  26
ENDBRANCH  21  23
BRANCH  21  34
ATOM     34  CB  UNL     1      41.964  -0.548  13.365  0.00  0.00    +0.000 C 
BRANCH  34  35
ATOM     35  CG  UNL     1      41.105   0.402  14.225  0.00  0.00    +0.000 C 
ATOM     36  CD1 UNL     1      39.889  -0.299  14.833  0.00  0.00    +0.000 C 
ATOM     37  CD2 UNL     1      41.966   0.996  15.345  0.00  0.00    +0.000 C 
ENDBRANCH  34  35
ENDBRANCH  21  34
ENDBRANCH   3  21
TORSDOF 15
ENDMDL
MODEL 2
REMARK VINA RESULT:      -6.8      1.849      3.150
REMARK  Name = 
REMARK  21 active torsions:
REMARK  status: ('A' for Active; 'I' for Inactive)
REMARK    1  A    between atoms: O_3  and  C_27
REMARK    2  A    between atoms: O_3  and  C_28
REMARK    3  A    between atoms: N_6  and  CA_9
REMARK    4  A    between atoms: N_7  and  CA_15
REMARK    5  A    between atoms: N_8  and  CA_12
REMARK    6  A    between atoms: CA_9  and  CB_10
REMARK    7  A    between atoms: CA_9  and  C_16
REMARK    8  A    between atoms: CB_10  and  CG_11
REMARK    9  A    between atoms: CG_11  and  CD1_20
REMARK   10  A    between atoms: CG_11  and  CD2_21
REMARK   11  A    between atoms: CA_12  and  CB_13
REMARK   12  A    between atoms: CA_12  and  C_18
REMARK   13  A    between atoms: CB_13  and  CG_14
REMARK   14  A    between atoms: CG_14  and  CD1_22
REMARK   15  A    between atoms: CG_14  and  CD2_23
REMARK   16  A    between atoms: CA_15  and  CB_17
REMARK   17  A    between atoms: CA_15  and  C_26
REMARK   18  A    between atoms: CB_17  and  CG_19
REMARK   19  A    between atoms: CG_19  and  CD1_24
REMARK   20  A    between atoms: CG_19  and  CD2_25
REMARK   21  A    between atoms: C_28  and  C_29
REMARK                            x       y       z     vdW  Elec       q    Type
REMARK                         _______ _______ _______ _____ _____    ______ ____
ROOT
ATOM      1  O   UNL     1      44.023  -3.454  14.172  0.00  0.00    +0.000 OA
ATOM      2  N   UNL     1      43.535  -2.584  12.120  0.00  0.00    +0.000 N 
ATOM      3  C   UNL     1      43.661  -2.496  13.496  0.00  0.00    +0.000 C 
ATOM      4  H   UNL     1      43.726  -1.712  11.632  0.00  0.00    +0.000 HD
ENDROOT
BRANCH   2   5
ATOM      5  CA  UNL     1      43.968  -3.801  11.432  0.00  0.00    +0.000 C 
BRANCH   5   8
ATOM      6  O   UNL     1      45.398  -2.231  10.280  0.00  0.00    +0.000 OA
ATOM      7  N   UNL     1      46.208  -4.301  10.363  0.00  0.00    +0.000 N 
ATOM      8  C   UNL     1      45.239  -3.394  10.663  0.00  0.00    +0.000 C 
ATOM      9  H   UNL     1      46.985  -3.859   9.882  0.00  0.00    +0.000 HD
BRANCH   7  10
ATOM     10  CA  UNL     1      46.470  -5.609  10.964  0.00  0.00    +0.000 C 
BRANCH  10  12
ATOM     11  O   UNL     1      46.820  -4.968  13.288  0.00  0.00    +0.000 OA
ATOM     12  C   UNL     1      47.277  -5.444  12.251  0.00  0.00    +0.000 C 
ENDBRANCH  10  12
BRANCH  10  13
ATOM     13  CB  UNL     1      47.098  -6.593   9.964  0.00  0.00    +0.000 C 
BRANCH  13  14
ATOM     14  CG  UNL     1      46.204  -7.733   9.429  0.00  0.00    +0.000 C 
ATOM     15  CD1 UNL     1      44.953  -7.240   8.705  0.00  0.00    +0.000 C 
ATOM     16  CD2 UNL     1      47.023  -8.621   8.485  0.00  0.00    +0.000 C 
ENDBRANCH  13  14
ENDBRANCH  10  13
ENDBRANCH   7  10
ENDBRANCH   5   8
BRANCH   5  17
ATOM     17  CB  UNL     1      42.879  -4.266  10.454  0.00  0.00    +0.000 C 
BRANCH  17  18
ATOM     18  CG  UNL     1      42.323  -5.676  10.734  0.00  0.00    +0.000 C 
ATOM     19  CD1 UNL     1      42.107  -5.929  12.226  0.00  0.00    +0.000 C 
ATOM     20  CD2 UNL     1      40.997  -5.865   9.990  0.00  0.00    +0.000 C 
ENDBRANCH  17  18
ENDBRANCH   5  17
ENDBRANCH   2   5
BRANCH   3  21
ATOM     21  CA  UNL     1      43.392  -1.087  14.081  0.00  0.00    +0.000 C 
BRANCH  21  23
ATOM     22  O   UNL     1      44.315   0.396  11.863  0.00  0.00    +0.000 OA
ATOM     23  N   UNL     1      44.622  -0.285  14.032  0.00  0.00    +0.000 N 
ATOM     24  C   ACE A   0      44.986   0.365  12.883  0.00  0.00    +0.000 C 
ATOM     25  H   UNL     1      45.372  -0.541  14.658  0.00  0.00    +0.000 HD
BRANCH  24  26
ATOM     26  O   UNL     1      46.234   0.886  12.949  0.00  0.00    +0.000 OA
BRANCH  26  27
ATOM     27  C   UNL     1      46.777   1.351  11.706  0.00  0.00    +0.000 C 
BRANCH  27  28
ATOM     28  C   UNL     1      47.551   0.238  11.043  0.00  0.00    +0.000 A 
ATOM     29  C   UNL     1      48.149  -0.768  11.814  0.00  0.00    +0.000 A 
ATOM     30  C   UNL     1      47.736   0.224   9.653  0.00  0.00    +0.000 A 
ATOM     31  C   UNL     1      48.893  -1.781  11.204  0.00  0.00    +0.000 A 
ATOM     32  C   UNL     1      48.479  -0.789   9.045  0.00  0.00    +0.000 A 
ATOM     33  C   UNL     1      49.057  -1.792   9.821  0.00  0.00    +0.000 A 
ENDBRANCH  27  28
ENDBRANCH  26  27
ENDBRANCH  24  26
ENDBRANCH  21  23
BRANCH  21  34
ATOM     34  CB  UNL     1      42.268  -0.365  13.316  0.00  0.00    +0.000 C 
BRANCH  34  35
ATOM     35  CG  UNL     1      41.246   0.401  14.181  0.00  0.00    +0.000 C 
ATOM     36  CD1 UNL     1      40.348  -0.533  14.992  0.00  0.00    +0.000 C 
ATOM     37  CD2 UNL     1      41.989   1.348  15.130  0.00  0.00    +0.000 C 
ENDBRANCH  34  35
ENDBRANCH  21  34
ENDBRANCH   3  21
TORSDOF 15
ENDMDL
MODEL 3
REMARK VINA RESULT:      -6.6      2.440      4.818
REMARK  Name = 
REMARK  21 active torsions:
REMARK  status: ('A' for Active; 'I' for Inactive)
REMARK    1  A    between atoms: O_3  and  C_27
REMARK    2  A    between atoms: O_3  and  C_28
REMARK    3  A    between atoms: N_6  and  CA_9
REMARK    4  A    between atoms: N_7  and  CA_15
REMARK    5  A    between atoms: N_8  and  CA_12
REMARK    6  A    between atoms: CA_9  and  CB_10
REMARK    7  A    between atoms: CA_9  and  C_16
REMARK    8  A    between atoms: CB_10  and  CG_11
REMARK    9  A    between atoms: CG_11  and  CD1_20
REMARK   10  A    between atoms: CG_11  and  CD2_21
REMARK   11  A    between atoms: CA_12  and  CB_13
REMARK   12  A    between atoms: CA_12  and  C_18
REMARK   13  A    between atoms: CB_13  and  CG_14
REMARK   14  A    between atoms: CG_14  and  CD1_22
REMARK   15  A    between atoms: CG_14  and  CD2_23
REMARK   16  A    between atoms: CA_15  and  CB_17
REMARK   17  A    between atoms: CA_15  and  C_26
REMARK   18  A    between atoms: CB_17  and  CG_19
REMARK   19  A    between atoms: CG_19  and  CD1_24
REMARK   20  A    between atoms: CG_19  and  CD2_25
REMARK   21  A    between atoms: C_28  and  C_29
REMARK                            x       y       z     vdW  Elec       q    Type
REMARK                         _______ _______ _______ _____ _____    ______ ____
ROOT
ATOM      1  O   UNL     1      45.954  -4.308  11.978  0.00  0.00    +0.000 OA
ATOM      2  N   UNL     1      44.251  -4.688  10.509  0.00  0.00    +0.000 N 
ATOM      3  C   UNL     1      45.102  -3.858  11.218  0.00  0.00    +0.000 C 
ATOM      4  H   UNL     1      43.968  -4.313   9.607  0.00  0.00    +0.000 HD
ENDROOT
BRANCH   2   5
ATOM      5  CA  UNL     1      44.451  -6.137  10.556  0.00  0.00    +0.000 C 
BRANCH   5   8
ATOM      6  O   UNL     1      42.816  -6.102   8.776  0.00  0.00    +0.000 OA
ATOM      7  N   UNL     1      44.255  -7.795   8.652  0.00  0.00    +0.000 N 
ATOM      8  C   UNL     1      43.795  -6.672   9.269  0.00  0.00    +0.000 C 
ATOM      9  H   UNL     1      43.729  -7.987   7.805  0.00  0.00    +0.000 HD
BRANCH   7  10
ATOM     10  CA  UNL     1      45.555  -8.454   8.778  0.00  0.00    +0.000 C 
BRANCH  10  12
ATOM     11  O   UNL     1      47.603  -7.222   9.253  0.00  0.00    +0.000 OA
ATOM     12  C   UNL     1      46.678  -7.461   8.480  0.00  0.00    +0.000 C 
ENDBRANCH  10  12
BRANCH  10  13
ATOM     13  CB  UNL     1      45.636  -9.744   7.948  0.00  0.00    +0.000 C 
BRANCH  13  14
ATOM     14  CG  UNL     1      46.896  -9.954   7.078  0.00  0.00    +0.000 C 
ATOM     15  CD1 UNL     1      47.812 -11.065   7.587  0.00  0.00    +0.000 C 
ATOM     16  CD2 UNL     1      46.473 -10.261   5.637  0.00  0.00    +0.000 C 
ENDBRANCH  13  14
ENDBRANCH  10  13
ENDBRANCH   7  10
ENDBRANCH   5   8
BRANCH   5  17
ATOM     17  CB  UNL     1      43.753  -6.722  11.792  0.00  0.00    +0.000 C 
BRANCH  17  18
ATOM     18  CG  UNL     1      42.315  -6.215  12.018  0.00  0.00    +0.000 C 
ATOM     19  CD1 UNL     1      41.290  -7.349  12.008  0.00  0.00    +0.000 C 
ATOM     20  CD2 UNL     1      42.234  -5.470  13.354  0.00  0.00    +0.000 C 
ENDBRANCH  17  18
ENDBRANCH   5  17
ENDBRANCH   2   5
BRANCH   3  21
ATOM     21  CA  UNL     1      44.940  -2.349  10.908  0.00  0.00    +0.000 C 
BRANCH  21  23
ATOM     22  O   UNL     1      42.550  -1.578  12.196  0.00  0.00    +0.000 OA
ATOM     23  N   UNL     1      44.843  -1.592  12.163  0.00  0.00    +0.000 N 
ATOM     24  C   ACE A   0      43.622  -1.243  12.675  0.00  0.00    +0.000 C 
ATOM     25  H   UNL     1      45.619  -0.993  12.409  0.00  0.00    +0.000 HD
BRANCH  24  26
ATOM     26  O   UNL     1      43.716  -0.384  13.718  0.00  0.00    +0.000 OA
BRANCH  26  27
ATOM     27  C   UNL     1      43.313   0.964  13.447  0.00  0.00    +0.000 C 
BRANCH  27  28
ATOM     28  C   UNL     1      44.529   1.857  13.400  0.00  0.00    +0.000 A 
ATOM     29  C   UNL     1      45.269   1.988  12.217  0.00  0.00    +0.000 A 
ATOM     30  C   UNL     1      44.973   2.524  14.552  0.00  0.00    +0.000 A 
ATOM     31  C   UNL     1      46.413   2.789  12.180  0.00  0.00    +0.000 A 
ATOM     32  C   UNL     1      46.117   3.323  14.514  0.00  0.00    +0.000 A 
ATOM     33  C   UNL     1      46.836   3.456  13.327  0.00  0.00    +0.000 A 
ENDBRANCH  27  28
ENDBRANCH  26  27
ENDBRANCH  24  26
ENDBRANCH  21  23
BRANCH  21  34
ATOM     34  CB  UNL     1      46.115  -1.818  10.068  0.00  0.00    +0.000 C 
BRANCH  34  35
ATOM     35  CG  UNL     1      47.127  -0.921  10.812  0.00  0.00    +0.000 C 
ATOM     36  CD1 UNL     1      48.317  -1.712  11.358  0.00  0.00    +0.000 C 
ATOM     37  CD2 UNL     1      47.631   0.174   9.866  0.00  0.00    +0.000 C 
ENDBRANCH  34  35
ENDBRANCH  21  34
ENDBRANCH   3  21
TORSDOF 15
ENDMDL
MODEL 4
REMARK VINA RESULT:      -6.5      2.849      5.335
REMARK  Name = 
REMARK  21 active torsions:
REMARK  status: ('A' for Active; 'I' for Inactive)
REMARK    1  A    between atoms: O_3  and  C_27
REMARK    2  A    between atoms: O_3  and  C_28
REMARK    3  A    between atoms: N_6  and  CA_9
REMARK    4  A    between atoms: N_7  and  CA_15
REMARK    5  A    between atoms: N_8  and  CA_12
REMARK    6  A    between atoms: CA_9  and  CB_10
REMARK    7  A    between atoms: CA_9  and  C_16
REMARK    8  A    between atoms: CB_10  and  CG_11
REMARK    9  A    between atoms: CG_11  and  CD1_20
REMARK   10  A    between atoms: CG_11  and  CD2_21
REMARK   11  A    between atoms: CA_12  and  CB_13
REMARK   12  A    between atoms: CA_12  and  C_18
REMARK   13  A    between atoms: CB_13  and  CG_14
REMARK   14  A    between atoms: CG_14  and  CD1_22
REMARK   15  A    between atoms: CG_14  and  CD2_23
REMARK   16  A    between atoms: CA_15  and  CB_17
REMARK   17  A    between atoms: CA_15  and  C_26
REMARK   18  A    between atoms: CB_17  and  CG_19
REMARK   19  A    between atoms: CG_19  and  CD1_24
REMARK   20  A    between atoms: CG_19  and  CD2_25
REMARK   21  A    between atoms: C_28  and  C_29
REMARK                            x       y       z     vdW  Elec       q    Type
REMARK                         _______ _______ _______ _____ _____    ______ ____
ROOT
ATOM      1  O   UNL     1      45.713  -4.216  12.594  0.00  0.00    +0.000 OA
ATOM      2  N   UNL     1      44.929  -4.681  10.503  0.00  0.00    +0.000 N 
ATOM      3  C   UNL     1      45.198  -3.820  11.553  0.00  0.00    +0.000 C 
ATOM      4  H   UNL     1      44.990  -4.244   9.586  0.00  0.00    +0.000 HD
ENDROOT
BRANCH   2   5
ATOM      5  CA  UNL     1      45.387  -6.069  10.572  0.00  0.00    +0.000 C 
BRANCH   5   8
ATOM      6  O   UNL     1      45.789  -6.715   8.279  0.00  0.00    +0.000 OA
ATOM      7  N   UNL     1      47.596  -5.964   9.338  0.00  0.00    +0.000 N 
ATOM      8  C   UNL     1      46.267  -6.262   9.323  0.00  0.00    +0.000 C 
ATOM      9  H   UNL     1      48.014  -6.121   8.427  0.00  0.00    +0.000 HD
BRANCH   7  10
ATOM     10  CA  UNL     1      48.343  -5.112  10.263  0.00  0.00    +0.000 C 
BRANCH  10  12
ATOM     11  O   UNL     1      48.942  -3.183   8.900  0.00  0.00    +0.000 OA
ATOM     12  C   UNL     1      49.296  -4.202   9.488  0.00  0.00    +0.000 C 
ENDBRANCH  10  12
BRANCH  10  13
ATOM     13  CB  UNL     1      49.030  -5.923  11.373  0.00  0.00    +0.000 C 
BRANCH  13  14
ATOM     14  CG  UNL     1      50.511  -6.308  11.160  0.00  0.00    +0.000 C 
ATOM     15  CD1 UNL     1      51.309  -6.408  12.458  0.00  0.00    +0.000 C 
ATOM     16  CD2 UNL     1      50.586  -7.643  10.410  0.00  0.00    +0.000 C 
ENDBRANCH  13  14
ENDBRANCH  10  13
ENDBRANCH   7  10
ENDBRANCH   5   8
BRANCH   5  17
ATOM     17  CB  UNL     1      44.183  -7.021  10.527  0.00  0.00    +0.000 C 
BRANCH  17  18
ATOM     18  CG  UNL     1      42.823  -6.326  10.316  0.00  0.00    +0.000 C 
ATOM     19  CD1 UNL     1      42.325  -6.449   8.875  0.00  0.00    +0.000 C 
ATOM     20  CD2 UNL     1      41.783  -6.929  11.265  0.00  0.00    +0.000 C 
ENDBRANCH  17  18
ENDBRANCH   5  17
ENDBRANCH   2   5
BRANCH   3  21
ATOM     21  CA  UNL     1      44.874  -2.332  11.268  0.00  0.00    +0.000 C 
BRANCH  21  23
ATOM     22  O   UNL     1      42.430  -1.229  12.151  0.00  0.00    +0.000 OA
ATOM     23  N   UNL     1      44.657  -1.620  12.535  0.00  0.00    +0.000 N 
ATOM     24  C   ACE A   0      43.429  -1.095  12.839  0.00  0.00    +0.000 C 
ATOM     25  H   UNL     1      45.454  -1.168  12.959  0.00  0.00    +0.000 HD
BRANCH  24  26
ATOM     26  O   UNL     1      43.454  -0.306  13.939  0.00  0.00    +0.000 OA
BRANCH  26  27
ATOM     27  C   UNL     1      43.048   1.053  13.735  0.00  0.00    +0.000 C 
BRANCH  27  28
ATOM     28  C   UNL     1      44.255   1.958  13.790  0.00  0.00    +0.000 A 
ATOM     29  C   UNL     1      44.494   2.755  14.918  0.00  0.00    +0.000 A 
ATOM     30  C   UNL     1      45.122   2.061  12.693  0.00  0.00    +0.000 A 
ATOM     31  C   UNL     1      45.592   3.617  14.957  0.00  0.00    +0.000 A 
ATOM     32  C   UNL     1      46.220   2.923  12.733  0.00  0.00    +0.000 A 
ATOM     33  C   UNL     1      46.455   3.700  13.866  0.00  0.00    +0.000 A 
ENDBRANCH  27  28
ENDBRANCH  26  27
ENDBRANCH  24  26
ENDBRANCH  21  23
BRANCH  21  34
ATOM     34  CB  UNL     1      46.003  -1.652  10.474  0.00  0.00    +0.000 C 
BRANCH  34  35
ATOM     35  CG  UNL     1      46.977  -0.781  11.295  0.00  0.00    +0.000 C 
ATOM     36  CD1 UNL     1      48.136  -1.590  11.877  0.00  0.00    +0.000 C 
ATOM     37  CD2 UNL     1      47.529   0.341  10.409  0.00  0.00    +0.000 C 
ENDBRANCH  34  35
ENDBRANCH  21  34
ENDBRANCH   3  21
TORSDOF 15
ENDMDL
MODEL 5
REMARK VINA RESULT:      -6.3     16.400     20.896
REMARK  Name = 
REMARK  21 active torsions:
REMARK  status: ('A' for Active; 'I' for Inactive)
REMARK    1  A    between atoms: O_3  and  C_27
REMARK    2  A    between atoms: O_3  and  C_28
REMARK    3  A    between atoms: N_6  and  CA_9
REMARK    4  A    between atoms: N_7  and  CA_15
REMARK    5  A    between atoms: N_8  and  CA_12
REMARK    6  A    between atoms: CA_9  and  CB_10
REMARK    7  A    between atoms: CA_9  and  C_16
REMARK    8  A    between atoms: CB_10  and  CG_11
REMARK    9  A    between atoms: CG_11  and  CD1_20
REMARK   10  A    between atoms: CG_11  and  CD2_21
REMARK   11  A    between atoms: CA_12  and  CB_13
REMARK   12  A    between atoms: CA_12  and  C_18
REMARK   13  A    between atoms: CB_13  and  CG_14
REMARK   14  A    between atoms: CG_14  and  CD1_22
REMARK   15  A    between atoms: CG_14  and  CD2_23
REMARK   16  A    between atoms: CA_15  and  CB_17
REMARK   17  A    between atoms: CA_15  and  C_26
REMARK   18  A    between atoms: CB_17  and  CG_19
REMARK   19  A    between atoms: CG_19  and  CD1_24
REMARK   20  A    between atoms: CG_19  and  CD2_25
REMARK   21  A    between atoms: C_28  and  C_29
REMARK                            x       y       z     vdW  Elec       q    Type
REMARK                         _______ _______ _______ _____ _____    ______ ____
ROOT
ATOM      1  O   UNL     1      24.689  -5.247  15.339  0.00  0.00    +0.000 OA
ATOM      2  N   UNL     1      25.509  -3.313  16.228  0.00  0.00    +0.000 N 
ATOM      3  C   UNL     1      25.658  -4.568  15.664  0.00  0.00    +0.000 C 
ATOM      4  H   UNL     1      26.263  -2.668  16.003  0.00  0.00    +0.000 HD
ENDROOT
BRANCH   2   5
ATOM      5  CA  UNL     1      24.175  -2.716  16.320  0.00  0.00    +0.000 C 
BRANCH   5   8
ATOM      6  O   UNL     1      24.738  -0.436  16.887  0.00  0.00    +0.000 OA
ATOM      7  N   UNL     1      24.161  -0.723  14.758  0.00  0.00    +0.000 N 
ATOM      8  C   UNL     1      24.383  -1.223  16.004  0.00  0.00    +0.000 C 
ATOM      9  H   UNL     1      24.374   0.268  14.719  0.00  0.00    +0.000 HD
BRANCH   7  10
ATOM     10  CA  UNL     1      24.090  -1.428  13.477  0.00  0.00    +0.000 C 
BRANCH  10  12
ATOM     11  O   UNL     1      25.234   0.158  12.025  0.00  0.00    +0.000 OA
ATOM     12  C   UNL     1      25.209  -0.951  12.552  0.00  0.00    +0.000 C 
ENDBRANCH  10  12
BRANCH  10  13
ATOM     13  CB  UNL     1      22.691  -1.346  12.846  0.00  0.00    +0.000 C 
BRANCH  13  14
ATOM     14  CG  UNL     1      21.750  -2.555  13.041  0.00  0.00    +0.000 C 
ATOM     15  CD1 UNL     1      20.560  -2.565  12.083  0.00  0.00    +0.000 C 
ATOM     16  CD2 UNL     1      22.549  -3.853  12.875  0.00  0.00    +0.000 C 
ENDBRANCH  13  14
ENDBRANCH  10  13
ENDBRANCH   7  10
ENDBRANCH   5   8
BRANCH   5  17
ATOM     17  CB  UNL     1      23.622  -2.888  17.743  0.00  0.00    +0.000 C 
BRANCH  17  18
ATOM     18  CG  UNL     1      22.242  -3.569  17.817  0.00  0.00    +0.000 C 
ATOM     19  CD1 UNL     1      21.697  -3.625  19.244  0.00  0.00    +0.000 C 
ATOM     20  CD2 UNL     1      21.248  -2.820  16.923  0.00  0.00    +0.000 C 
ENDBRANCH  17  18
ENDBRANCH   5  17
ENDBRANCH   2   5
BRANCH   3  21
ATOM     21  CA  UNL     1      27.126  -4.992  15.408  0.00  0.00    +0.000 C 
BRANCH  21  23
ATOM     22  O   UNL     1      29.269  -5.090  17.244  0.00  0.00    +0.000 OA
ATOM     23  N   UNL     1      27.471  -6.130  16.270  0.00  0.00    +0.000 N 
ATOM     24  C   ACE A   0      28.561  -6.073  17.098  0.00  0.00    +0.000 C 
ATOM     25  H   UNL     1      27.190  -7.051  15.964  0.00  0.00    +0.000 HD
BRANCH  24  26
ATOM     26  O   UNL     1      28.849  -7.268  17.668  0.00  0.00    +0.000 OA
BRANCH  26  27
ATOM     27  C   UNL     1      29.576  -7.205  18.901  0.00  0.00    +0.000 C 
BRANCH  27  28
ATOM     28  C   UNL     1      28.613  -7.278  20.062  0.00  0.00    +0.000 A 
ATOM     29  C   UNL     1      27.542  -8.182  20.041  0.00  0.00    +0.000 A 
ATOM     30  C   UNL     1      28.737  -6.403  21.151  0.00  0.00    +0.000 A 
ATOM     31  C   UNL     1      26.632  -8.228  21.098  0.00  0.00    +0.000 A 
ATOM     32  C   UNL     1      27.827  -6.450  22.208  0.00  0.00    +0.000 A 
ATOM     33  C   UNL     1      26.774  -7.363  22.181  0.00  0.00    +0.000 A 
ENDBRANCH  27  28
ENDBRANCH  26  27
ENDBRANCH  24  26
ENDBRANCH  21  23
BRANCH  21  34
ATOM     34  CB  UNL     1      27.356  -5.366  13.933  0.00  0.00    +0.000 C 
BRANCH  34  35
ATOM     35  CG  UNL     1      28.823  -5.361  13.456  0.00  0.00    +0.000 C 
ATOM     36  CD1 UNL     1      28.955  -5.690  11.969  0.00  0.00    +0.000 C 
ATOM     37  CD2 UNL     1      29.447  -3.989  13.734  0.00  0.00    +0.000 C 
ENDBRANCH  34  35
ENDBRANCH  21  34
ENDBRANCH   3  21
TORSDOF 15
ENDMDL
MODEL 6
REMARK VINA RESULT:      -6.3     33.869     37.129
REMARK  Name = 
REMARK  21 active torsions:
REMARK  status: ('A' for Active; 'I' for Inactive)
REMARK    1  A    between atoms: O_3  and  C_27
REMARK    2  A    between atoms: O_3  and  C_28
REMARK    3  A    between atoms: N_6  and  CA_9
REMARK    4  A    between atoms: N_7  and  CA_15
REMARK    5  A    between atoms: N_8  and  CA_12
REMARK    6  A    between atoms: CA_9  and  CB_10
REMARK    7  A    between atoms: CA_9  and  C_16
REMARK    8  A    between atoms: CB_10  and  CG_11
REMARK    9  A    between atoms: CG_11  and  CD1_20
REMARK   10  A    between atoms: CG_11  and  CD2_21
REMARK   11  A    between atoms: CA_12  and  CB_13
REMARK   12  A    between atoms: CA_12  and  C_18
REMARK   13  A    between atoms: CB_13  and  CG_14
REMARK   14  A    between atoms: CG_14  and  CD1_22
REMARK   15  A    between atoms: CG_14  and  CD2_23
REMARK   16  A    between atoms: CA_15  and  CB_17
REMARK   17  A    between atoms: CA_15  and  C_26
REMARK   18  A    between atoms: CB_17  and  CG_19
REMARK   19  A    between atoms: CG_19  and  CD1_24
REMARK   20  A    between atoms: CG_19  and  CD2_25
REMARK   21  A    between atoms: C_28  and  C_29
REMARK                            x       y       z     vdW  Elec       q    Type
REMARK                         _______ _______ _______ _____ _____    ______ ____
ROOT
ATOM      1  O   UNL     1      22.134  18.330  33.121  0.00  0.00    +0.000 OA
ATOM      2  N   UNL     1      22.511  17.836  30.925  0.00  0.00    +0.000 N 
ATOM      3  C   UNL     1      21.839  17.675  32.125  0.00  0.00    +0.000 C 
ATOM      4  H   UNL     1      21.933  17.671  30.105  0.00  0.00    +0.000 HD
ENDROOT
BRANCH   2   5
ATOM      5  CA  UNL     1      23.506  18.901  30.793  0.00  0.00    +0.000 C 
BRANCH   5   8
ATOM      6  O   UNL     1      22.184  19.696  28.933  0.00  0.00    +0.000 OA
ATOM      7  N   UNL     1      22.897  21.308  30.292  0.00  0.00    +0.000 N 
ATOM      8  C   UNL     1      22.815  19.992  29.953  0.00  0.00    +0.000 C 
ATOM      9  H   UNL     1      22.361  21.883  29.650  0.00  0.00    +0.000 HD
BRANCH   7  10
ATOM     10  CA  UNL     1      23.247  21.912  31.577  0.00  0.00    +0.000 C 
BRANCH  10  12
ATOM     11  O   UNL     1      21.560  21.987  33.333  0.00  0.00    +0.000 OA
ATOM     12  C   UNL     1      21.990  22.434  32.272  0.00  0.00    +0.000 C 
ENDBRANCH  10  12
BRANCH  10  13
ATOM     13  CB  UNL     1      24.358  22.965  31.441  0.00  0.00    +0.000 C 
BRANCH  13  14
ATOM     14  CG  UNL     1      24.115  24.345  32.092  0.00  0.00    +0.000 C 
ATOM     15  CD1 UNL     1      25.098  24.673  33.214  0.00  0.00    +0.000 C 
ATOM     16  CD2 UNL     1      24.188  25.434  31.015  0.00  0.00    +0.000 C 
ENDBRANCH  13  14
ENDBRANCH  10  13
ENDBRANCH   7  10
ENDBRANCH   5   8
BRANCH   5  17
ATOM     17  CB  UNL     1      24.747  18.370  30.059  0.00  0.00    +0.000 C 
BRANCH  17  18
ATOM     18  CG  UNL     1      26.082  18.973  30.537  0.00  0.00    +0.000 C 
ATOM     19  CD1 UNL     1      26.544  20.134  29.656  0.00  0.00    +0.000 C 
ATOM     20  CD2 UNL     1      25.941  19.458  31.983  0.00  0.00    +0.000 C 
ENDBRANCH  17  18
ENDBRANCH   5  17
ENDBRANCH   2   5
BRANCH   3  21
ATOM     21  CA  UNL     1      20.654  16.679  32.074  0.00  0.00    +0.000 C 
BRANCH  21  23
ATOM     22  O   UNL     1      21.842  14.934  30.199  0.00  0.00    +0.000 OA
ATOM     23  N   UNL     1      21.137  15.319  32.348  0.00  0.00    +0.000 N 
ATOM     24  C   ACE A   0      21.665  14.550  31.344  0.00  0.00    +0.000 C 
ATOM     25  H   UNL     1      20.717  14.820  33.119  0.00  0.00    +0.000 HD
BRANCH  24  26
ATOM     26  O   UNL     1      21.873  13.266  31.722  0.00  0.00    +0.000 OA
BRANCH  26  27
ATOM     27  C   UNL     1      21.149  12.838  32.882  0.00  0.00    +0.000 C 
BRANCH  27  28
ATOM     28  C   UNL     1      22.026  11.945  33.726  0.00  0.00    +0.000 A 
ATOM     29  C   UNL     1      23.398  11.840  33.460  0.00  0.00    +0.000 A 
ATOM     30  C   UNL     1      21.475  11.162  34.751  0.00  0.00    +0.000 A 
ATOM     31  C   UNL     1      24.205  10.990  34.219  0.00  0.00    +0.000 A 
ATOM     32  C   UNL     1      22.282  10.312  35.509  0.00  0.00    +0.000 A 
ATOM     33  C   UNL     1      23.648  10.228  35.243  0.00  0.00    +0.000 A 
ENDBRANCH  27  28
ENDBRANCH  26  27
ENDBRANCH  24  26
ENDBRANCH  21  23
BRANCH  21  34
ATOM     34  CB  UNL     1      19.557  17.056  33.085  0.00  0.00    +0.000 C 
BRANCH  34  35
ATOM     35  CG  UNL     1      18.103  16.913  32.588  0.00  0.00    +0.000 C 
ATOM     36  CD1 UNL     1      17.276  15.970  33.463  0.00  0.00    +0.000 C 
ATOM     37  CD2 UNL     1      17.437  18.293  32.552  0.00  0.00    +0.000 C 
ENDBRANCH  34  35
ENDBRANCH  21  34
ENDBRANCH   3  21
TORSDOF 15
ENDMDL
MODEL 7
REMARK VINA RESULT:      -6.2     33.598     37.589
REMARK  Name = 
REMARK  21 active torsions:
REMARK  status: ('A' for Active; 'I' for Inactive)
REMARK    1  A    between atoms: O_3  and  C_27
REMARK    2  A    between atoms: O_3  and  C_28
REMARK    3  A    between atoms: N_6  and  CA_9
REMARK    4  A    between atoms: N_7  and  CA_15
REMARK    5  A    between atoms: N_8  and  CA_12
REMARK    6  A    between atoms: CA_9  and  CB_10
REMARK    7  A    between atoms: CA_9  and  C_16
REMARK    8  A    between atoms: CB_10  and  CG_11
REMARK    9  A    between atoms: CG_11  and  CD1_20
REMARK   10  A    between atoms: CG_11  and  CD2_21
REMARK   11  A    between atoms: CA_12  and  CB_13
REMARK   12  A    between atoms: CA_12  and  C_18
REMARK   13  A    between atoms: CB_13  and  CG_14
REMARK   14  A    between atoms: CG_14  and  CD1_22
REMARK   15  A    between atoms: CG_14  and  CD2_23
REMARK   16  A    between atoms: CA_15  and  CB_17
REMARK   17  A    between atoms: CA_15  and  C_26
REMARK   18  A    between atoms: CB_17  and  CG_19
REMARK   19  A    between atoms: CG_19  and  CD1_24
REMARK   20  A    between atoms: CG_19  and  CD2_25
REMARK   21  A    between atoms: C_28  and  C_29
REMARK                            x       y       z     vdW  Elec       q    Type
REMARK                         _______ _______ _______ _____ _____    ______ ____
ROOT
ATOM      1  O   UNL     1      21.896  18.271  33.128  0.00  0.00    +0.000 OA
ATOM      2  N   UNL     1      21.189  17.618  31.060  0.00  0.00    +0.000 N 
ATOM      3  C   UNL     1      21.823  18.495  31.924  0.00  0.00    +0.000 C 
ATOM      4  H   UNL     1      21.585  17.605  30.123  0.00  0.00    +0.000 HD
ENDROOT
BRANCH   2   5
ATOM      5  CA  UNL     1      20.710  16.330  31.562  0.00  0.00    +0.000 C 
BRANCH   5   8
ATOM      6  O   UNL     1      21.239  15.624  29.312  0.00  0.00    +0.000 OA
ATOM      7  N   UNL     1      21.414  14.009  30.833  0.00  0.00    +0.000 N 
ATOM      8  C   UNL     1      21.145  15.302  30.501  0.00  0.00    +0.000 C 
ATOM      9  H   UNL     1      21.714  13.480  30.021  0.00  0.00    +0.000 HD
BRANCH   7  10
ATOM     10  CA  UNL     1      21.730  13.436  32.141  0.00  0.00    +0.000 C 
BRANCH  10  12
ATOM     11  O   UNL     1      22.572  11.491  30.940  0.00  0.00    +0.000 OA
ATOM     12  C   UNL     1      22.551  12.158  31.971  0.00  0.00    +0.000 C 
ENDBRANCH  10  12
BRANCH  10  13
ATOM     13  CB  UNL     1      20.477  13.252  33.013  0.00  0.00    +0.000 C 
BRANCH  13  14
ATOM     14  CG  UNL     1      20.640  13.423  34.539  0.00  0.00    +0.000 C 
ATOM     15  CD1 UNL     1      21.077  14.826  34.955  0.00  0.00    +0.000 C 
ATOM     16  CD2 UNL     1      19.319  13.073  35.233  0.00  0.00    +0.000 C 
ENDBRANCH  13  14
ENDBRANCH  10  13
ENDBRANCH   7  10
ENDBRANCH   5   8
BRANCH   5  17
ATOM     17  CB  UNL     1      19.180  16.352  31.687  0.00  0.00    +0.000 C 
BRANCH  17  18
ATOM     18  CG  UNL     1      18.653  16.888  33.033  0.00  0.00    +0.000 C 
ATOM     19  CD1 UNL     1      18.078  18.299  32.912  0.00  0.00    +0.000 C 
ATOM     20  CD2 UNL     1      17.574  15.946  33.577  0.00  0.00    +0.000 C 
ENDBRANCH  17  18
ENDBRANCH   5  17
ENDBRANCH   2   5
BRANCH   3  21
ATOM     21  CA  UNL     1      22.487  19.713  31.236  0.00  0.00    +0.000 C 
BRANCH  21  23
ATOM     22  O   UNL     1      20.258  21.128  30.237  0.00  0.00    +0.000 OA
ATOM     23  N   UNL     1      21.937  20.958  31.790  0.00  0.00    +0.000 N 
ATOM     24  C   ACE A   0      20.869  21.575  31.194  0.00  0.00    +0.000 C 
ATOM     25  H   UNL     1      22.563  21.554  32.312  0.00  0.00    +0.000 HD
BRANCH  24  26
ATOM     26  O   UNL     1      20.619  22.803  31.708  0.00  0.00    +0.000 OA
BRANCH  26  27
ATOM     27  C   UNL     1      21.758  23.497  32.233  0.00  0.00    +0.000 C 
BRANCH  27  28
ATOM     28  C   UNL     1      22.147  24.614  31.296  0.00  0.00    +0.000 A 
ATOM     29  C   UNL     1      23.476  25.056  31.231  0.00  0.00    +0.000 A 
ATOM     30  C   UNL     1      21.180  25.267  30.518  0.00  0.00    +0.000 A 
ATOM     31  C   UNL     1      23.833  26.112  30.389  0.00  0.00    +0.000 A 
ATOM     32  C   UNL     1      21.537  26.322  29.677  0.00  0.00    +0.000 A 
ATOM     33  C   UNL     1      22.864  26.743  29.611  0.00  0.00    +0.000 A 
ENDBRANCH  27  28
ENDBRANCH  26  27
ENDBRANCH  24  26
ENDBRANCH  21  23
BRANCH  21  34
ATOM     34  CB  UNL     1      24.016  19.695  31.412  0.00  0.00    +0.000 C 
BRANCH  34  35
ATOM     35  CG  UNL     1      24.833  19.259  30.178  0.00  0.00    +0.000 C 
ATOM     36  CD1 UNL     1      24.913  20.353  29.113  0.00  0.00    +0.000 C 
ATOM     37  CD2 UNL     1      26.248  18.866  30.615  0.00  0.00    +0.000 C 
ENDBRANCH  34  35
ENDBRANCH  21  34
ENDBRANCH   3  21
TORSDOF 15
ENDMDL
MODEL 8
REMARK VINA RESULT:      -6.0     33.757     37.110
REMARK  Name = 
REMARK  21 active torsions:
REMARK  status: ('A' for Active; 'I' for Inactive)
REMARK    1  A    between atoms: O_3  and  C_27
REMARK    2  A    between atoms: O_3  and  C_28
REMARK    3  A    between atoms: N_6  and  CA_9
REMARK    4  A    between atoms: N_7  and  CA_15
REMARK    5  A    between atoms: N_8  and  CA_12
REMARK    6  A    between atoms: CA_9  and  CB_10
REMARK    7  A    between atoms: CA_9  and  C_16
REMARK    8  A    between atoms: CB_10  and  CG_11
REMARK    9  A    between atoms: CG_11  and  CD1_20
REMARK   10  A    between atoms: CG_11  and  CD2_21
REMARK   11  A    between atoms: CA_12  and  CB_13
REMARK   12  A    between atoms: CA_12  and  C_18
REMARK   13  A    between atoms: CB_13  and  CG_14
REMARK   14  A    between atoms: CG_14  and  CD1_22
REMARK   15  A    between atoms: CG_14  and  CD2_23
REMARK   16  A    between atoms: CA_15  and  CB_17
REMARK   17  A    between atoms: CA_15  and  C_26
REMARK   18  A    between atoms: CB_17  and  CG_19
REMARK   19  A    between atoms: CG_19  and  CD1_24
REMARK   20  A    between atoms: CG_19  and  CD2_25
REMARK   21  A    between atoms: C_28  and  C_29
REMARK                            x       y       z     vdW  Elec       q    Type
REMARK                         _______ _______ _______ _____ _____    ______ ____
ROOT
ATOM      1  O   UNL     1      22.921  23.679   5.033  0.00  0.00    +0.000 OA
ATOM      2  N   UNL     1      24.036  25.085   3.625  0.00  0.00    +0.000 N 
ATOM      3  C   UNL     1      23.445  23.874   3.940  0.00  0.00    +0.000 C 
ATOM      4  H   UNL     1      23.980  25.325   2.637  0.00  0.00    +0.000 HD
ENDROOT
BRANCH   2   5
ATOM      5  CA  UNL     1      23.921  26.209   4.555  0.00  0.00    +0.000 C 
BRANCH   5   8
ATOM      6  O   UNL     1      22.302  26.917   2.907  0.00  0.00    +0.000 OA
ATOM      7  N   UNL     1      22.003  27.822   4.918  0.00  0.00    +0.000 N 
ATOM      8  C   UNL     1      22.688  26.998   4.078  0.00  0.00    +0.000 C 
ATOM      9  H   UNL     1      21.204  28.238   4.449  0.00  0.00    +0.000 HD
BRANCH   7  10
ATOM     10  CA  UNL     1      21.992  27.851   6.380  0.00  0.00    +0.000 C 
BRANCH  10  12
ATOM     11  O   UNL     1      19.618  27.724   6.915  0.00  0.00    +0.000 OA
ATOM     12  C   UNL     1      20.652  28.386   6.885  0.00  0.00    +0.000 C 
ENDBRANCH  10  12
BRANCH  10  13
ATOM     13  CB  UNL     1      23.209  28.592   6.956  0.00  0.00    +0.000 C 
BRANCH  13  14
ATOM     14  CG  UNL     1      23.300  30.113   6.706  0.00  0.00    +0.000 C 
ATOM     15  CD1 UNL     1      23.321  30.943   7.988  0.00  0.00    +0.000 C 
ATOM     16  CD2 UNL     1      24.555  30.418   5.880  0.00  0.00    +0.000 C 
ENDBRANCH  13  14
ENDBRANCH  10  13
ENDBRANCH   7  10
ENDBRANCH   5   8
BRANCH   5  17
ATOM     17  CB  UNL     1      25.179  27.086   4.474  0.00  0.00    +0.000 C 
BRANCH  17  18
ATOM     18  CG  UNL     1      25.968  26.958   3.157  0.00  0.00    +0.000 C 
ATOM     19  CD1 UNL     1      25.625  28.068   2.163  0.00  0.00    +0.000 C 
ATOM     20  CD2 UNL     1      27.471  26.987   3.450  0.00  0.00    +0.000 C 
ENDBRANCH  17  18
ENDBRANCH   5  17
ENDBRANCH   2   5
BRANCH   3  21
ATOM     21  CA  UNL     1      23.432  22.840   2.787  0.00  0.00    +0.000 C 
BRANCH  21  23
ATOM     22  O   UNL     1      23.647  20.109   2.106  0.00  0.00    +0.000 OA
ATOM     23  N   UNL     1      22.430  21.802   3.061  0.00  0.00    +0.000 N 
ATOM     24  C   ACE A   0      22.631  20.512   2.649  0.00  0.00    +0.000 C 
ATOM     25  H   UNL     1      21.468  22.095   3.161  0.00  0.00    +0.000 HD
BRANCH  24  26
ATOM     26  O   UNL     1      21.532  19.735   2.803  0.00  0.00    +0.000 OA
BRANCH  26  27
ATOM     27  C   UNL     1      20.858  19.860   4.061  0.00  0.00    +0.000 C 
BRANCH  27  28
ATOM     28  C   UNL     1      19.408  19.473   3.901  0.00  0.00    +0.000 A 
ATOM     29  C   UNL     1      18.510  19.628   4.966  0.00  0.00    +0.000 A 
ATOM     30  C   UNL     1      18.947  18.898   2.708  0.00  0.00    +0.000 A 
ATOM     31  C   UNL     1      17.175  19.241   4.831  0.00  0.00    +0.000 A 
ATOM     32  C   UNL     1      17.613  18.510   2.573  0.00  0.00    +0.000 A 
ATOM     33  C   UNL     1      16.727  18.683   3.635  0.00  0.00    +0.000 A 
ENDBRANCH  27  28
ENDBRANCH  26  27
ENDBRANCH  24  26
ENDBRANCH  21  23
BRANCH  21  34
ATOM     34  CB  UNL     1      23.133  23.510   1.434  0.00  0.00    +0.000 C 
BRANCH  34  35
ATOM     35  CG  UNL     1      24.299  23.545   0.424  0.00  0.00    +0.000 C 
ATOM     36  CD1 UNL     1      24.710  24.970   0.054  0.00  0.00    +0.000 C 
ATOM     37  CD2 UNL     1      25.504  22.800   1.009  0.00  0.00    +0.000 C 
ENDBRANCH  34  35
ENDBRANCH  21  34
ENDBRANCH   3  21
TORSDOF 15
ENDMDL
MODEL 9
REMARK VINA RESULT:      -6.0     40.157     42.746
REMARK  Name = 
REMARK  21 active torsions:
REMARK  status: ('A' for Active; 'I' for Inactive)
REMARK    1  A    between atoms: O_3  and  C_27
REMARK    2  A    between atoms: O_3  and  C_28
REMARK    3  A    between atoms: N_6  and  CA_9
REMARK    4  A    between atoms: N_7  and  CA_15
REMARK    5  A    between atoms: N_8  and  CA_12
REMARK    6  A    between atoms: CA_9  and  CB_10
REMARK    7  A    between atoms: CA_9  and  C_16
REMARK    8  A    between atoms: CB_10  and  CG_11
REMARK    9  A    between atoms: CG_11  and  CD1_20
REMARK   10  A    between atoms: CG_11  and  CD2_21
REMARK   11  A    between atoms: CA_12  and  CB_13
REMARK   12  A    between atoms: CA_12  and  C_18
REMARK   13  A    between atoms: CB_13  and  CG_14
REMARK   14  A    between atoms: CG_14  and  CD1_22
REMARK   15  A    between atoms: CG_14  and  CD2_23
REMARK   16  A    between atoms: CA_15  and  CB_17
REMARK   17  A    between atoms: CA_15  and  C_26
REMARK   18  A    between atoms: CB_17  and  CG_19
REMARK   19  A    between atoms: CG_19  and  CD1_24
REMARK   20  A    between atoms: CG_19  and  CD2_25
REMARK   21  A    between atoms: C_28  and  C_29
REMARK                            x       y       z     vdW  Elec       q    Type
REMARK                         _______ _______ _______ _____ _____    ______ ____
ROOT
ATOM      1  O   UNL     1      22.319  31.844  26.273  0.00  0.00    +0.000 OA
ATOM      2  N   UNL     1      22.561  30.172  24.740  0.00  0.00    +0.000 N 
ATOM      3  C   UNL     1      23.061  31.146  25.589  0.00  0.00    +0.000 C 
ATOM      4  H   UNL     1      23.178  29.372  24.624  0.00  0.00    +0.000 HD
ENDROOT
BRANCH   2   5
ATOM      5  CA  UNL     1      21.129  29.870  24.752  0.00  0.00    +0.000 C 
BRANCH   5   8
ATOM      6  O   UNL     1      21.117  27.474  24.433  0.00  0.00    +0.000 OA
ATOM      7  N   UNL     1      20.832  28.108  26.547  0.00  0.00    +0.000 N 
ATOM      8  C   UNL     1      21.034  28.410  25.235  0.00  0.00    +0.000 C 
ATOM      9  H   UNL     1      20.825  27.104  26.692  0.00  0.00    +0.000 HD
BRANCH   7  10
ATOM     10  CA  UNL     1      21.045  28.940  27.731  0.00  0.00    +0.000 C 
BRANCH  10  12
ATOM     11  O   UNL     1      23.274  27.958  27.785  0.00  0.00    +0.000 OA
ATOM     12  C   UNL     1      22.427  28.665  28.324  0.00  0.00    +0.000 C 
ENDBRANCH  10  12
BRANCH  10  13
ATOM     13  CB  UNL     1      19.900  28.807  28.748  0.00  0.00    +0.000 C 
BRANCH  13  14
ATOM     14  CG  UNL     1      18.788  29.878  28.711  0.00  0.00    +0.000 C 
ATOM     15  CD1 UNL     1      19.272  31.247  28.238  0.00  0.00    +0.000 C 
ATOM     16  CD2 UNL     1      17.650  29.398  27.804  0.00  0.00    +0.000 C 
ENDBRANCH  13  14
ENDBRANCH  10  13
ENDBRANCH   7  10
ENDBRANCH   5   8
BRANCH   5  17
ATOM     17  CB  UNL     1      20.555  30.000  23.334  0.00  0.00    +0.000 C 
BRANCH  17  18
ATOM     18  CG  UNL     1      19.316  30.911  23.224  0.00  0.00    +0.000 C 
ATOM     19  CD1 UNL     1      19.044  31.680  24.517  0.00  0.00    +0.000 C 
ATOM     20  CD2 UNL     1      19.506  31.904  22.074  0.00  0.00    +0.000 C 
ENDBRANCH  17  18
ENDBRANCH   5  17
ENDBRANCH   2   5
BRANCH   3  21
ATOM     21  CA  UNL     1      24.606  31.214  25.656  0.00  0.00    +0.000 C 
BRANCH  21  23
ATOM     22  O   UNL     1      25.846  31.202  23.120  0.00  0.00    +0.000 OA
ATOM     23  N   UNL     1      25.084  32.395  24.924  0.00  0.00    +0.000 N 
ATOM     24  C   ACE A   0      25.705  32.260  23.711  0.00  0.00    +0.000 C 
ATOM     25  H   UNL     1      25.331  33.211  25.465  0.00  0.00    +0.000 HD
BRANCH  24  26
ATOM     26  O   UNL     1      26.256  33.418  23.273  0.00  0.00    +0.000 OA
BRANCH  26  27
ATOM     27  C   UNL     1      26.838  33.368  21.964  0.00  0.00    +0.000 C 
BRANCH  27  28
ATOM     28  C   UNL     1      26.105  34.317  21.047  0.00  0.00    +0.000 A 
ATOM     29  C   UNL     1      26.636  34.642  19.791  0.00  0.00    +0.000 A 
ATOM     30  C   UNL     1      24.914  34.934  21.457  0.00  0.00    +0.000 A 
ATOM     31  C   UNL     1      25.976  35.544  18.953  0.00  0.00    +0.000 A 
ATOM     32  C   UNL     1      24.256  35.836  20.620  0.00  0.00    +0.000 A 
ATOM     33  C   UNL     1      24.786  36.140  19.367  0.00  0.00    +0.000 A 
ENDBRANCH  27  28
ENDBRANCH  26  27
ENDBRANCH  24  26
ENDBRANCH  21  23
BRANCH  21  34
ATOM     34  CB  UNL     1      25.105  31.265  27.111  0.00  0.00    +0.000 C 
BRANCH  34  35
ATOM     35  CG  UNL     1      26.396  30.474  27.411  0.00  0.00    +0.000 C 
ATOM     36  CD1 UNL     1      26.355  29.784  28.774  0.00  0.00    +0.000 C 
ATOM     37  CD2 UNL     1      26.621  29.429  26.313  0.00  0.00    +0.000 C 
ENDBRANCH  34  35
ENDBRANCH  21  34
ENDBRANCH   3  21
TORSDOF 15
ENDMDL
