MODEL 1
REMARK VINA RESULT:      -5.9      0.000      0.000
REMARK  Name = Monobenzone.pdbqt.pdb
REMARK  4 active torsions:
REMARK  status: ('A' for Active; 'I' for Inactive)
REMARK    1  A    between atoms: C_1  and  O_7
REMARK    2  A    between atoms: C_6  and  O_15
REMARK    3  A    between atoms: O_7  and  C_8
REMARK    4  A    between atoms: C_8  and  C_9
REMARK                            x       y       z     vdW  Elec       q    Type
REMARK                         _______ _______ _______ _____ _____    ______ ____
ROOT
ATOM      1  C   UNL     1      43.060  -5.108  11.181  0.00  0.00    +0.000 A 
ATOM      2  C   UNL     1      43.920  -6.208  11.156  0.00  0.00    +0.000 A 
ATOM      3  C   UNL     1      42.247  -4.841  10.078  0.00  0.00    +0.000 A 
ATOM      4  C   UNL     1      43.969  -7.036  10.037  0.00  0.00    +0.000 A 
ATOM      5  C   UNL     1      42.292  -5.665   8.956  0.00  0.00    +0.000 A 
ATOM      6  C   UNL     1      43.153  -6.757   8.945  0.00  0.00    +0.000 A 
ENDROOT
BRANCH   6   7
ATOM      7  O   UNL     1      43.180  -7.551   7.836  0.00  0.00    +0.000 OA
ATOM      8  H   UNL     1      42.278  -7.602   7.475  0.00  0.00    +0.000 HD
ENDBRANCH   6   7
BRANCH   1   9
ATOM      9  O   UNL     1      42.942  -4.238  12.236  0.00  0.00    +0.000 OA
BRANCH   9  10
ATOM     10  C   UNL     1      43.519  -3.053  12.050  0.00  0.00    +0.000 C 
BRANCH  10  11
ATOM     11  C   UNL     1      44.151  -1.789  11.856  0.00  0.00    +0.000 A 
ATOM     12  C   UNL     1      43.622  -0.650  12.458  0.00  0.00    +0.000 A 
ATOM     13  C   UNL     1      44.237   0.586  12.264  0.00  0.00    +0.000 A 
ATOM     14  C   UNL     1      45.377   0.678  11.471  0.00  0.00    +0.000 A 
ATOM     15  C   UNL     1      45.905  -0.463  10.871  0.00  0.00    +0.000 A 
ATOM     16  C   UNL     1      45.292  -1.698  11.063  0.00  0.00    +0.000 A 
ENDBRANCH  10  11
ENDBRANCH   9  10
ENDBRANCH   1   9
TORSDOF 4
ENDMDL
MODEL 2
REMARK VINA RESULT:      -5.8     16.334     17.967
REMARK  Name = Monobenzone.pdbqt.pdb
REMARK  4 active torsions:
REMARK  status: ('A' for Active; 'I' for Inactive)
REMARK    1  A    between atoms: C_1  and  O_7
REMARK    2  A    between atoms: C_6  and  O_15
REMARK    3  A    between atoms: O_7  and  C_8
REMARK    4  A    between atoms: C_8  and  C_9
REMARK                            x       y       z     vdW  Elec       q    Type
REMARK                         _______ _______ _______ _____ _____    ______ ____
ROOT
ATOM      1  C   UNL     1      26.759  -2.241  12.869  0.00  0.00    +0.000 A 
ATOM      2  C   UNL     1      25.829  -2.179  13.909  0.00  0.00    +0.000 A 
ATOM      3  C   UNL     1      26.654  -1.359  11.792  0.00  0.00    +0.000 A 
ATOM      4  C   UNL     1      24.800  -1.241  13.874  0.00  0.00    +0.000 A 
ATOM      5  C   UNL     1      25.626  -0.420  11.753  0.00  0.00    +0.000 A 
ATOM      6  C   UNL     1      24.707  -0.368  12.795  0.00  0.00    +0.000 A 
ENDROOT
BRANCH   6   7
ATOM      7  O   UNL     1      23.709   0.560  12.735  0.00  0.00    +0.000 OA
ATOM      8  H   UNL     1      23.627   0.977  13.611  0.00  0.00    +0.000 HD
ENDBRANCH   6   7
BRANCH   1   9
ATOM      9  O   UNL     1      27.805  -3.129  12.814  0.00  0.00    +0.000 OA
BRANCH   9  10
ATOM     10  C   UNL     1      28.020  -3.810  13.937  0.00  0.00    +0.000 C 
BRANCH  10  11
ATOM     11  C   UNL     1      28.233  -4.541  15.143  0.00  0.00    +0.000 A 
ATOM     12  C   UNL     1      27.302  -5.493  15.550  0.00  0.00    +0.000 A 
ATOM     13  C   UNL     1      27.508  -6.204  16.731  0.00  0.00    +0.000 A 
ATOM     14  C   UNL     1      28.643  -5.962  17.500  0.00  0.00    +0.000 A 
ATOM     15  C   UNL     1      29.574  -5.010  17.090  0.00  0.00    +0.000 A 
ATOM     16  C   UNL     1      29.370  -4.298  15.910  0.00  0.00    +0.000 A 
ENDBRANCH  10  11
ENDBRANCH   9  10
ENDBRANCH   1   9
TORSDOF 4
ENDMDL
MODEL 3
REMARK VINA RESULT:      -5.8      2.281      3.152
REMARK  Name = Monobenzone.pdbqt.pdb
REMARK  4 active torsions:
REMARK  status: ('A' for Active; 'I' for Inactive)
REMARK    1  A    between atoms: C_1  and  O_7
REMARK    2  A    between atoms: C_6  and  O_15
REMARK    3  A    between atoms: O_7  and  C_8
REMARK    4  A    between atoms: C_8  and  C_9
REMARK                            x       y       z     vdW  Elec       q    Type
REMARK                         _______ _______ _______ _____ _____    ______ ____
ROOT
ATOM      1  C   UNL     1      42.728  -5.292  13.504  0.00  0.00    +0.000 A 
ATOM      2  C   UNL     1      41.689  -5.926  12.819  0.00  0.00    +0.000 A 
ATOM      3  C   UNL     1      44.037  -5.408  13.034  0.00  0.00    +0.000 A 
ATOM      4  C   UNL     1      41.955  -6.669  11.672  0.00  0.00    +0.000 A 
ATOM      5  C   UNL     1      44.309  -6.151  11.889  0.00  0.00    +0.000 A 
ATOM      6  C   UNL     1      43.264  -6.776  11.216  0.00  0.00    +0.000 A 
ENDROOT
BRANCH   6   7
ATOM      7  O   UNL     1      43.554  -7.498  10.095  0.00  0.00    +0.000 OA
ATOM      8  H   UNL     1      43.895  -6.888   9.419  0.00  0.00    +0.000 HD
ENDBRANCH   6   7
BRANCH   1   9
ATOM      9  O   UNL     1      42.564  -4.539  14.640  0.00  0.00    +0.000 OA
BRANCH   9  10
ATOM     10  C   UNL     1      42.630  -3.223  14.452  0.00  0.00    +0.000 C 
BRANCH  10  11
ATOM     11  C   UNL     1      42.692  -1.814  14.238  0.00  0.00    +0.000 A 
ATOM     12  C   UNL     1      43.878  -1.232  13.798  0.00  0.00    +0.000 A 
ATOM     13  C   UNL     1      43.941   0.145  13.594  0.00  0.00    +0.000 A 
ATOM     14  C   UNL     1      42.818   0.935  13.828  0.00  0.00    +0.000 A 
ATOM     15  C   UNL     1      41.632   0.350  14.267  0.00  0.00    +0.000 A 
ATOM     16  C   UNL     1      41.568  -1.026  14.472  0.00  0.00    +0.000 A 
ENDBRANCH  10  11
ENDBRANCH   9  10
ENDBRANCH   1   9
TORSDOF 4
ENDMDL
MODEL 4
REMARK VINA RESULT:      -5.5      2.912      6.550
REMARK  Name = Monobenzone.pdbqt.pdb
REMARK  4 active torsions:
REMARK  status: ('A' for Active; 'I' for Inactive)
REMARK    1  A    between atoms: C_1  and  O_7
REMARK    2  A    between atoms: C_6  and  O_15
REMARK    3  A    between atoms: O_7  and  C_8
REMARK    4  A    between atoms: C_8  and  C_9
REMARK                            x       y       z     vdW  Elec       q    Type
REMARK                         _______ _______ _______ _____ _____    ______ ____
ROOT
ATOM      1  C   UNL     1      43.518  -1.984  14.319  0.00  0.00    +0.000 A 
ATOM      2  C   UNL     1      44.696  -1.259  14.124  0.00  0.00    +0.000 A 
ATOM      3  C   UNL     1      42.286  -1.329  14.266  0.00  0.00    +0.000 A 
ATOM      4  C   UNL     1      44.645   0.110  13.878  0.00  0.00    +0.000 A 
ATOM      5  C   UNL     1      42.229   0.040  14.021  0.00  0.00    +0.000 A 
ATOM      6  C   UNL     1      43.410   0.750  13.828  0.00  0.00    +0.000 A 
ENDROOT
BRANCH   6   7
ATOM      7  O   UNL     1      43.330   2.090  13.588  0.00  0.00    +0.000 OA
ATOM      8  H   UNL     1      42.736   2.230  12.830  0.00  0.00    +0.000 HD
ENDBRANCH   6   7
BRANCH   1   9
ATOM      9  O   UNL     1      43.468  -3.333  14.566  0.00  0.00    +0.000 OA
BRANCH   9  10
ATOM     10  C   UNL     1      43.087  -4.078  13.532  0.00  0.00    +0.000 C 
BRANCH  10  11
ATOM     11  C   UNL     1      42.663  -4.875  12.427  0.00  0.00    +0.000 A 
ATOM     12  C   UNL     1      41.933  -6.039  12.652  0.00  0.00    +0.000 A 
ATOM     13  C   UNL     1      41.523  -6.820  11.573  0.00  0.00    +0.000 A 
ATOM     14  C   UNL     1      41.845  -6.435  10.274  0.00  0.00    +0.000 A 
ATOM     15  C   UNL     1      42.575  -5.269  10.051  0.00  0.00    +0.000 A 
ATOM     16  C   UNL     1      42.985  -4.488  11.128  0.00  0.00    +0.000 A 
ENDBRANCH  10  11
ENDBRANCH   9  10
ENDBRANCH   1   9
TORSDOF 4
ENDMDL
MODEL 5
REMARK VINA RESULT:      -5.5      2.699      5.974
REMARK  Name = Monobenzone.pdbqt.pdb
REMARK  4 active torsions:
REMARK  status: ('A' for Active; 'I' for Inactive)
REMARK    1  A    between atoms: C_1  and  O_7
REMARK    2  A    between atoms: C_6  and  O_15
REMARK    3  A    between atoms: O_7  and  C_8
REMARK    4  A    between atoms: C_8  and  C_9
REMARK                            x       y       z     vdW  Elec       q    Type
REMARK                         _______ _______ _______ _____ _____    ______ ____
ROOT
ATOM      1  C   UNL     1      46.383  -3.305  10.695  0.00  0.00    +0.000 A 
ATOM      2  C   UNL     1      45.763  -2.061  10.841  0.00  0.00    +0.000 A 
ATOM      3  C   UNL     1      47.442  -3.448   9.797  0.00  0.00    +0.000 A 
ATOM      4  C   UNL     1      46.199  -0.968  10.097  0.00  0.00    +0.000 A 
ATOM      5  C   UNL     1      47.882  -2.359   9.050  0.00  0.00    +0.000 A 
ATOM      6  C   UNL     1      47.256  -1.126   9.206  0.00  0.00    +0.000 A 
ENDROOT
BRANCH   6   7
ATOM      7  O   UNL     1      47.704  -0.073   8.464  0.00  0.00    +0.000 OA
ATOM      8  H   UNL     1      47.731  -0.346   7.531  0.00  0.00    +0.000 HD
ENDBRANCH   6   7
BRANCH   1   9
ATOM      9  O   UNL     1      46.024  -4.437  11.383  0.00  0.00    +0.000 OA
BRANCH   9  10
ATOM     10  C   UNL     1      44.798  -4.884  11.125  0.00  0.00    +0.000 C 
BRANCH  10  11
ATOM     11  C   UNL     1      43.487  -5.364  10.833  0.00  0.00    +0.000 A 
ATOM     12  C   UNL     1      43.012  -6.510  11.467  0.00  0.00    +0.000 A 
ATOM     13  C   UNL     1      41.733  -6.982  11.177  0.00  0.00    +0.000 A 
ATOM     14  C   UNL     1      40.934  -6.309  10.256  0.00  0.00    +0.000 A 
ATOM     15  C   UNL     1      41.412  -5.163   9.624  0.00  0.00    +0.000 A 
ATOM     16  C   UNL     1      42.689  -4.689   9.912  0.00  0.00    +0.000 A 
ENDBRANCH  10  11
ENDBRANCH   9  10
ENDBRANCH   1   9
TORSDOF 4
ENDMDL
MODEL 6
REMARK VINA RESULT:      -5.4      4.056      5.721
REMARK  Name = Monobenzone.pdbqt.pdb
REMARK  4 active torsions:
REMARK  status: ('A' for Active; 'I' for Inactive)
REMARK    1  A    between atoms: C_1  and  O_7
REMARK    2  A    between atoms: C_6  and  O_15
REMARK    3  A    between atoms: O_7  and  C_8
REMARK    4  A    between atoms: C_8  and  C_9
REMARK                            x       y       z     vdW  Elec       q    Type
REMARK                         _______ _______ _______ _____ _____    ______ ____
ROOT
ATOM      1  C   UNL     1      44.897  -8.013   7.796  0.00  0.00    +0.000 A 
ATOM      2  C   UNL     1      45.187  -9.009   6.860  0.00  0.00    +0.000 A 
ATOM      3  C   UNL     1      45.925  -7.472   8.570  0.00  0.00    +0.000 A 
ATOM      4  C   UNL     1      46.495  -9.459   6.697  0.00  0.00    +0.000 A 
ATOM      5  C   UNL     1      47.234  -7.920   8.413  0.00  0.00    +0.000 A 
ATOM      6  C   UNL     1      47.508  -8.911   7.476  0.00  0.00    +0.000 A 
ENDROOT
BRANCH   6   7
ATOM      7  O   UNL     1      48.798  -9.333   7.338  0.00  0.00    +0.000 OA
ATOM      8  H   UNL     1      48.978  -9.462   6.390  0.00  0.00    +0.000 HD
ENDBRANCH   6   7
BRANCH   1   9
ATOM      9  O   UNL     1      43.643  -7.505   8.027  0.00  0.00    +0.000 OA
BRANCH   9  10
ATOM     10  C   UNL     1      43.418  -7.119   9.280  0.00  0.00    +0.000 C 
BRANCH  10  11
ATOM     11  C   UNL     1      43.176  -6.721  10.628  0.00  0.00    +0.000 A 
ATOM     12  C   UNL     1      44.239  -6.322  11.434  0.00  0.00    +0.000 A 
ATOM     13  C   UNL     1      44.003  -5.938  12.753  0.00  0.00    +0.000 A 
ATOM     14  C   UNL     1      42.706  -5.954  13.261  0.00  0.00    +0.000 A 
ATOM     15  C   UNL     1      41.644  -6.353  12.452  0.00  0.00    +0.000 A 
ATOM     16  C   UNL     1      41.878  -6.737  11.135  0.00  0.00    +0.000 A 
ENDBRANCH  10  11
ENDBRANCH   9  10
ENDBRANCH   1   9
TORSDOF 4
ENDMDL
MODEL 7
REMARK VINA RESULT:      -5.4      2.969      6.487
REMARK  Name = Monobenzone.pdbqt.pdb
REMARK  4 active torsions:
REMARK  status: ('A' for Active; 'I' for Inactive)
REMARK    1  A    between atoms: C_1  and  O_7
REMARK    2  A    between atoms: C_6  and  O_15
REMARK    3  A    between atoms: O_7  and  C_8
REMARK    4  A    between atoms: C_8  and  C_9
REMARK                            x       y       z     vdW  Elec       q    Type
REMARK                         _______ _______ _______ _____ _____    ______ ____
ROOT
ATOM      1  C   UNL     1      43.981  -1.719  14.099  0.00  0.00    +0.000 A 
ATOM      2  C   UNL     1      45.241  -1.168  14.344  0.00  0.00    +0.000 A 
ATOM      3  C   UNL     1      43.145  -1.137  13.145  0.00  0.00    +0.000 A 
ATOM      4  C   UNL     1      45.664  -0.043  13.641  0.00  0.00    +0.000 A 
ATOM      5  C   UNL     1      43.562  -0.011  12.440  0.00  0.00    +0.000 A 
ATOM      6  C   UNL     1      44.820   0.527  12.693  0.00  0.00    +0.000 A 
ENDROOT
BRANCH   6   7
ATOM      7  O   UNL     1      45.207   1.629  11.990  0.00  0.00    +0.000 OA
ATOM      8  H   UNL     1      44.437   2.214  11.889  0.00  0.00    +0.000 HD
ENDBRANCH   6   7
BRANCH   1   9
ATOM      9  O   UNL     1      43.479  -2.824  14.740  0.00  0.00    +0.000 OA
BRANCH   9  10
ATOM     10  C   UNL     1      43.312  -3.893  13.965  0.00  0.00    +0.000 C 
BRANCH  10  11
ATOM     11  C   UNL     1      43.148  -5.041  13.134  0.00  0.00    +0.000 A 
ATOM     12  C   UNL     1      44.207  -5.479  12.342  0.00  0.00    +0.000 A 
ATOM     13  C   UNL     1      44.045  -6.597  11.526  0.00  0.00    +0.000 A 
ATOM     14  C   UNL     1      42.828  -7.274  11.506  0.00  0.00    +0.000 A 
ATOM     15  C   UNL     1      41.771  -6.834  12.300  0.00  0.00    +0.000 A 
ATOM     16  C   UNL     1      41.931  -5.717  13.115  0.00  0.00    +0.000 A 
ENDBRANCH  10  11
ENDBRANCH   9  10
ENDBRANCH   1   9
TORSDOF 4
ENDMDL
MODEL 8
REMARK VINA RESULT:      -5.3     27.895     29.136
REMARK  Name = Monobenzone.pdbqt.pdb
REMARK  4 active torsions:
REMARK  status: ('A' for Active; 'I' for Inactive)
REMARK    1  A    between atoms: C_1  and  O_7
REMARK    2  A    between atoms: C_6  and  O_15
REMARK    3  A    between atoms: O_7  and  C_8
REMARK    4  A    between atoms: C_8  and  C_9
REMARK                            x       y       z     vdW  Elec       q    Type
REMARK                         _______ _______ _______ _____ _____    ______ ____
ROOT
ATOM      1  C   UNL     1      15.933   4.738   7.707  0.00  0.00    +0.000 A 
ATOM      2  C   UNL     1      16.866   5.763   7.885  0.00  0.00    +0.000 A 
ATOM      3  C   UNL     1      15.867   4.067   6.485  0.00  0.00    +0.000 A 
ATOM      4  C   UNL     1      17.729   6.113   6.850  0.00  0.00    +0.000 A 
ATOM      5  C   UNL     1      16.727   4.415   5.446  0.00  0.00    +0.000 A 
ATOM      6  C   UNL     1      17.652   5.436   5.638  0.00  0.00    +0.000 A 
ENDROOT
BRANCH   6   7
ATOM      7  O   UNL     1      18.485   5.759   4.607  0.00  0.00    +0.000 OA
ATOM      8  H   UNL     1      18.948   4.952   4.323  0.00  0.00    +0.000 HD
ENDBRANCH   6   7
BRANCH   1   9
ATOM      9  O   UNL     1      15.044   4.322   8.667  0.00  0.00    +0.000 OA
BRANCH   9  10
ATOM     10  C   UNL     1      15.136   3.036   8.995  0.00  0.00    +0.000 C 
BRANCH  10  11
ATOM     11  C   UNL     1      15.242   1.654   9.332  0.00  0.00    +0.000 A 
ATOM     12  C   UNL     1      16.101   1.254  10.353  0.00  0.00    +0.000 A 
ATOM     13  C   UNL     1      16.209  -0.096  10.679  0.00  0.00    +0.000 A 
ATOM     14  C   UNL     1      15.459  -1.042   9.984  0.00  0.00    +0.000 A 
ATOM     15  C   UNL     1      14.600  -0.639   8.963  0.00  0.00    +0.000 A 
ATOM     16  C   UNL     1      14.491   0.710   8.636  0.00  0.00    +0.000 A 
ENDBRANCH  10  11
ENDBRANCH   9  10
ENDBRANCH   1   9
TORSDOF 4
ENDMDL
MODEL 9
REMARK VINA RESULT:      -5.2     22.117     23.438
REMARK  Name = Monobenzone.pdbqt.pdb
REMARK  4 active torsions:
REMARK  status: ('A' for Active; 'I' for Inactive)
REMARK    1  A    between atoms: C_1  and  O_7
REMARK    2  A    between atoms: C_6  and  O_15
REMARK    3  A    between atoms: O_7  and  C_8
REMARK    4  A    between atoms: C_8  and  C_9
REMARK                            x       y       z     vdW  Elec       q    Type
REMARK                         _______ _______ _______ _____ _____    ______ ____
ROOT
ATOM      1  C   UNL     1      29.424  -3.046  27.311  0.00  0.00    +0.000 A 
ATOM      2  C   UNL     1      28.260  -3.739  26.968  0.00  0.00    +0.000 A 
ATOM      3  C   UNL     1      30.420  -2.850  26.353  0.00  0.00    +0.000 A 
ATOM      4  C   UNL     1      28.091  -4.231  25.677  0.00  0.00    +0.000 A 
ATOM      5  C   UNL     1      30.256  -3.340  25.060  0.00  0.00    +0.000 A 
ATOM      6  C   UNL     1      29.092  -4.027  24.732  0.00  0.00    +0.000 A 
ENDROOT
BRANCH   6   7
ATOM      7  O   UNL     1      28.953  -4.498  23.459  0.00  0.00    +0.000 OA
ATOM      8  H   UNL     1      29.539  -3.983  22.878  0.00  0.00    +0.000 HD
ENDBRANCH   6   7
BRANCH   1   9
ATOM      9  O   UNL     1      29.680  -2.525  28.555  0.00  0.00    +0.000 OA
BRANCH   9  10
ATOM     10  C   UNL     1      28.662  -1.869  29.107  0.00  0.00    +0.000 C 
BRANCH  10  11
ATOM     11  C   UNL     1      27.562  -1.169  29.685  0.00  0.00    +0.000 A 
ATOM     12  C   UNL     1      27.073  -1.555  30.931  0.00  0.00    +0.000 A 
ATOM     13  C   UNL     1      25.995  -0.874  31.493  0.00  0.00    +0.000 A 
ATOM     14  C   UNL     1      25.409   0.188  30.810  0.00  0.00    +0.000 A 
ATOM     15  C   UNL     1      25.901   0.572  29.563  0.00  0.00    +0.000 A 
ATOM     16  C   UNL     1      26.978  -0.107  29.000  0.00  0.00    +0.000 A 
ENDBRANCH  10  11
ENDBRANCH   9  10
ENDBRANCH   1   9
TORSDOF 4
ENDMDL
