MODEL 1
REMARK VINA RESULT:      -8.8      0.000      0.000
REMARK  Name = OTSSP167.pdbqt.pdb
REMARK  7 active torsions:
REMARK  status: ('A' for Active; 'I' for Inactive)
REMARK    1  A    between atoms: C_5  and  N_19
REMARK    2  A    between atoms: C_7  and  C_31
REMARK    3  A    between atoms: C_11  and  C_13
REMARK    4  A    between atoms: C_18  and  O_34
REMARK    5  A    between atoms: N_19  and  C_21
REMARK    6  A    between atoms: C_24  and  C_27
REMARK    7  A    between atoms: C_27  and  N_28
REMARK                            x       y       z     vdW  Elec       q    Type
REMARK                         _______ _______ _______ _____ _____    ______ ____
ROOT
ATOM      1  N   UNL     1      44.440  -4.171  11.720  0.00  0.00    +0.000 NA
ATOM      2  N   UNL     1      42.060  -3.371  14.375  0.00  0.00    +0.000 NA
ATOM      3  C   UNL     1      43.671  -2.002  12.515  0.00  0.00    +0.000 A 
ATOM      4  C   UNL     1      43.668  -3.422  12.546  0.00  0.00    +0.000 A 
ATOM      5  C   UNL     1      42.855  -1.312  13.436  0.00  0.00    +0.000 A 
ATOM      6  C   UNL     1      42.838  -4.038  13.507  0.00  0.00    +0.000 A 
ATOM      7  C   UNL     1      42.084  -2.027  14.325  0.00  0.00    +0.000 A 
ATOM      8  C   UNL     1      42.836  -5.420  13.553  0.00  0.00    +0.000 A 
ATOM      9  C   UNL     1      44.412  -5.525  11.781  0.00  0.00    +0.000 A 
ATOM     10  C   UNL     1      43.615  -6.184  12.696  0.00  0.00    +0.000 A 
ENDROOT
BRANCH   9  13
ATOM     11 CL   UNL     1      49.177  -6.794  10.240  0.00  0.00    +0.000 Cl
ATOM     12 CL   UNL     1      44.749  -8.412   7.506  0.00  0.00    +0.000 Cl
ATOM     13  C   UNL     1      45.257  -6.231  10.815  0.00  0.00    +0.000 A 
ATOM     14  C   UNL     1      44.712  -6.926   9.728  0.00  0.00    +0.000 A 
ATOM     15  C   UNL     1      46.652  -6.224  10.941  0.00  0.00    +0.000 A 
ATOM     16  C   UNL     1      47.471  -6.875  10.022  0.00  0.00    +0.000 A 
ATOM     17  C   UNL     1      45.523  -7.587   8.805  0.00  0.00    +0.000 A 
ATOM     18  C   UNL     1      46.910  -7.563   8.947  0.00  0.00    +0.000 A 
BRANCH  18  19
ATOM     19  O   UNL     1      47.702  -8.210   8.035  0.00  0.00    +0.000 OA
ATOM     20  H   UNL     1      48.469  -7.642   7.838  0.00  0.00    +0.000 HD
ENDBRANCH  18  19
ENDBRANCH   9  13
BRANCH   5  21
ATOM     21  C   UNL     1      42.812   0.145  13.528  0.00  0.00    +0.000 C 
ATOM     22  O   UNL     1      43.613   0.904  13.007  0.00  0.00    +0.000 OA
ATOM     23  C   UNL     1      41.793   0.903  14.324  0.00  0.00    +0.000 C 
ENDBRANCH   5  21
BRANCH   3  24
ATOM     24  N   UNL     1      44.380  -1.245  11.528  0.00  0.00    +0.000 N 
ATOM     25  H   UNL     1      43.905  -0.390  11.226  0.00  0.00    +0.000 HD
BRANCH  24  26
ATOM     26  C   UNL     1      45.727  -1.233  11.289  0.00  0.00    +0.000 A 
ATOM     27  C   UNL     1      46.439  -0.007  11.548  0.00  0.00    +0.000 A 
ATOM     28  C   UNL     1      47.560   0.602  10.667  0.00  0.00    +0.000 A 
ATOM     29  C   UNL     1      48.049   0.026   9.438  0.00  0.00    +0.000 A 
ATOM     30  C   UNL     1      47.320  -1.187   9.162  0.00  0.00    +0.000 A 
ATOM     31  C   UNL     1      46.200  -1.791  10.045  0.00  0.00    +0.000 A 
BRANCH  29  32
ATOM     32  C   UNL     1      49.158   0.494   8.699  0.00  0.00    +0.000 C 
BRANCH  32  33
ATOM     33  N   UNL     1      50.310   0.966   7.951  0.00  0.00    +0.000 NA
ATOM     34  C   UNL     1      51.433   1.026   8.873  0.00  0.00    +0.000 C 
ATOM     35  C   UNL     1      50.028   2.330   7.535  0.00  0.00    +0.000 C 
ENDBRANCH  32  33
ENDBRANCH  29  32
ENDBRANCH  24  26
ENDBRANCH   3  24
TORSDOF 7
ENDMDL
MODEL 2
REMARK VINA RESULT:      -8.4      1.794      2.640
REMARK  Name = OTSSP167.pdbqt.pdb
REMARK  7 active torsions:
REMARK  status: ('A' for Active; 'I' for Inactive)
REMARK    1  A    between atoms: C_5  and  N_19
REMARK    2  A    between atoms: C_7  and  C_31
REMARK    3  A    between atoms: C_11  and  C_13
REMARK    4  A    between atoms: C_18  and  O_34
REMARK    5  A    between atoms: N_19  and  C_21
REMARK    6  A    between atoms: C_24  and  C_27
REMARK    7  A    between atoms: C_27  and  N_28
REMARK                            x       y       z     vdW  Elec       q    Type
REMARK                         _______ _______ _______ _____ _____    ______ ____
ROOT
ATOM      1  N   UNL     1      44.587  -4.139  11.704  0.00  0.00    +0.000 NA
ATOM      2  N   UNL     1      42.271  -3.381  14.427  0.00  0.00    +0.000 NA
ATOM      3  C   UNL     1      43.766  -1.986  12.492  0.00  0.00    +0.000 A 
ATOM      4  C   UNL     1      43.816  -3.404  12.545  0.00  0.00    +0.000 A 
ATOM      5  C   UNL     1      42.958  -1.311  13.430  0.00  0.00    +0.000 A 
ATOM      6  C   UNL     1      43.043  -4.034  13.543  0.00  0.00    +0.000 A 
ATOM      7  C   UNL     1      42.244  -2.038  14.357  0.00  0.00    +0.000 A 
ATOM      8  C   UNL     1      43.093  -5.415  13.610  0.00  0.00    +0.000 A 
ATOM      9  C   UNL     1      44.610  -5.491  11.786  0.00  0.00    +0.000 A 
ATOM     10  C   UNL     1      43.869  -6.164  12.739  0.00  0.00    +0.000 A 
ENDROOT
BRANCH   9  13
ATOM     11 CL   UNL     1      44.855  -8.374   7.506  0.00  0.00    +0.000 Cl
ATOM     12 CL   UNL     1      49.339  -6.839  10.194  0.00  0.00    +0.000 Cl
ATOM     13  C   UNL     1      45.446  -6.184  10.802  0.00  0.00    +0.000 A 
ATOM     14  C   UNL     1      46.842  -6.205  10.907  0.00  0.00    +0.000 A 
ATOM     15  C   UNL     1      44.869  -6.865   9.723  0.00  0.00    +0.000 A 
ATOM     16  C   UNL     1      45.648  -7.544   8.788  0.00  0.00    +0.000 A 
ATOM     17  C   UNL     1      47.632  -6.877   9.973  0.00  0.00    +0.000 A 
ATOM     18  C   UNL     1      47.037  -7.552   8.907  0.00  0.00    +0.000 A 
BRANCH  18  19
ATOM     19  O   UNL     1      47.817  -8.213   7.996  0.00  0.00    +0.000 OA
ATOM     20  H   UNL     1      47.235  -8.599   7.316  0.00  0.00    +0.000 HD
ENDBRANCH  18  19
ENDBRANCH   9  13
BRANCH   5  21
ATOM     21  C   UNL     1      42.865   0.146  13.501  0.00  0.00    +0.000 C 
ATOM     22  O   UNL     1      43.666   0.923  13.009  0.00  0.00    +0.000 OA
ATOM     23  C   UNL     1      41.786   0.880  14.239  0.00  0.00    +0.000 C 
ENDBRANCH   5  21
BRANCH   3  24
ATOM     24  N   UNL     1      44.414  -1.220  11.470  0.00  0.00    +0.000 N 
ATOM     25  H   UNL     1      43.853  -0.448  11.098  0.00  0.00    +0.000 HD
BRANCH  24  26
ATOM     26  C   UNL     1      45.756  -1.070  11.258  0.00  0.00    +0.000 A 
ATOM     27  C   UNL     1      46.282  -1.488   9.984  0.00  0.00    +0.000 A 
ATOM     28  C   UNL     1      47.616  -2.241   9.748  0.00  0.00    +0.000 A 
ATOM     29  C   UNL     1      48.531  -2.646  10.789  0.00  0.00    +0.000 A 
ATOM     30  C   UNL     1      47.995  -2.252  12.067  0.00  0.00    +0.000 A 
ATOM     31  C   UNL     1      46.660  -1.500  12.297  0.00  0.00    +0.000 A 
BRANCH  29  32
ATOM     32  C   UNL     1      49.809  -3.209  10.581  0.00  0.00    +0.000 C 
BRANCH  32  33
ATOM     33  N   UNL     1      51.131  -3.778  10.383  0.00  0.00    +0.000 NA
ATOM     34  C   UNL     1      52.101  -2.784  10.810  0.00  0.00    +0.000 C 
ATOM     35  C   UNL     1      51.313  -3.964   8.953  0.00  0.00    +0.000 C 
ENDBRANCH  32  33
ENDBRANCH  29  32
ENDBRANCH  24  26
ENDBRANCH   3  24
TORSDOF 7
ENDMDL
MODEL 3
REMARK VINA RESULT:      -8.2      3.546      8.250
REMARK  Name = OTSSP167.pdbqt.pdb
REMARK  7 active torsions:
REMARK  status: ('A' for Active; 'I' for Inactive)
REMARK    1  A    between atoms: C_5  and  N_19
REMARK    2  A    between atoms: C_7  and  C_31
REMARK    3  A    between atoms: C_11  and  C_13
REMARK    4  A    between atoms: C_18  and  O_34
REMARK    5  A    between atoms: N_19  and  C_21
REMARK    6  A    between atoms: C_24  and  C_27
REMARK    7  A    between atoms: C_27  and  N_28
REMARK                            x       y       z     vdW  Elec       q    Type
REMARK                         _______ _______ _______ _____ _____    ______ ____
ROOT
ATOM      1  N   UNL     1      46.922  -1.993  11.635  0.00  0.00    +0.000 NA
ATOM      2  N   UNL     1      49.414  -0.559   9.380  0.00  0.00    +0.000 NA
ATOM      3  C   UNL     1      49.018  -2.938  10.834  0.00  0.00    +0.000 A 
ATOM      4  C   UNL     1      48.048  -1.902  10.883  0.00  0.00    +0.000 A 
ATOM      5  C   UNL     1      50.171  -2.735  10.047  0.00  0.00    +0.000 A 
ATOM      6  C   UNL     1      48.316  -0.739  10.132  0.00  0.00    +0.000 A 
ATOM      7  C   UNL     1      50.319  -1.555   9.353  0.00  0.00    +0.000 A 
ATOM      8  C   UNL     1      47.382   0.281  10.182  0.00  0.00    +0.000 A 
ATOM      9  C   UNL     1      46.019  -0.983  11.658  0.00  0.00    +0.000 A 
ATOM     10  C   UNL     1      46.224   0.178  10.938  0.00  0.00    +0.000 A 
ENDROOT
BRANCH   9  13
ATOM     11 CL   UNL     1      42.835  -4.363  13.924  0.00  0.00    +0.000 Cl
ATOM     12 CL   UNL     1      41.985   1.013  14.201  0.00  0.00    +0.000 Cl
ATOM     13  C   UNL     1      44.822  -1.206  12.472  0.00  0.00    +0.000 A 
ATOM     14  C   UNL     1      44.031  -0.144  12.927  0.00  0.00    +0.000 A 
ATOM     15  C   UNL     1      44.417  -2.503  12.813  0.00  0.00    +0.000 A 
ATOM     16  C   UNL     1      43.272  -2.735  13.571  0.00  0.00    +0.000 A 
ATOM     17  C   UNL     1      42.885  -0.364  13.691  0.00  0.00    +0.000 A 
ATOM     18  C   UNL     1      42.498  -1.665  14.017  0.00  0.00    +0.000 A 
BRANCH  18  19
ATOM     19  O   UNL     1      41.370  -1.875  14.764  0.00  0.00    +0.000 OA
ATOM     20  H   UNL     1      40.735  -1.161  14.569  0.00  0.00    +0.000 HD
ENDBRANCH  18  19
ENDBRANCH   9  13
BRANCH   5  21
ATOM     21  C   UNL     1      51.257  -3.709   9.957  0.00  0.00    +0.000 C 
ATOM     22  O   UNL     1      51.889  -4.142  10.906  0.00  0.00    +0.000 OA
ATOM     23  C   UNL     1      51.771  -4.270   8.666  0.00  0.00    +0.000 C 
ENDBRANCH   5  21
BRANCH   3  24
ATOM     24  N   UNL     1      48.832  -4.212  11.460  0.00  0.00    +0.000 N 
ATOM     25  H   UNL     1      49.145  -4.257  12.433  0.00  0.00    +0.000 HD
BRANCH  24  26
ATOM     26  C   UNL     1      47.923  -5.181  11.136  0.00  0.00    +0.000 A 
ATOM     27  C   UNL     1      47.232  -5.054   9.877  0.00  0.00    +0.000 A 
ATOM     28  C   UNL     1      45.730  -5.343   9.626  0.00  0.00    +0.000 A 
ATOM     29  C   UNL     1      44.793  -5.777  10.634  0.00  0.00    +0.000 A 
ATOM     30  C   UNL     1      45.475  -5.880  11.899  0.00  0.00    +0.000 A 
ATOM     31  C   UNL     1      46.976  -5.589  12.145  0.00  0.00    +0.000 A 
BRANCH  29  32
ATOM     32  C   UNL     1      43.459  -6.175  10.394  0.00  0.00    +0.000 C 
BRANCH  32  33
ATOM     33  N   UNL     1      42.082  -6.567  10.150  0.00  0.00    +0.000 NA
ATOM     34  C   UNL     1      41.368  -5.385   9.693  0.00  0.00    +0.000 C 
ATOM     35  C   UNL     1      41.505  -6.943  11.430  0.00  0.00    +0.000 C 
ENDBRANCH  32  33
ENDBRANCH  29  32
ENDBRANCH  24  26
ENDBRANCH   3  24
TORSDOF 7
ENDMDL
MODEL 4
REMARK VINA RESULT:      -8.1      3.341      7.166
REMARK  Name = OTSSP167.pdbqt.pdb
REMARK  7 active torsions:
REMARK  status: ('A' for Active; 'I' for Inactive)
REMARK    1  A    between atoms: C_5  and  N_19
REMARK    2  A    between atoms: C_7  and  C_31
REMARK    3  A    between atoms: C_11  and  C_13
REMARK    4  A    between atoms: C_18  and  O_34
REMARK    5  A    between atoms: N_19  and  C_21
REMARK    6  A    between atoms: C_24  and  C_27
REMARK    7  A    between atoms: C_27  and  N_28
REMARK                            x       y       z     vdW  Elec       q    Type
REMARK                         _______ _______ _______ _____ _____    ______ ____
ROOT
ATOM      1  N   UNL     1      44.665  -2.728  11.777  0.00  0.00    +0.000 NA
ATOM      2  N   UNL     1      42.235  -4.045  14.167  0.00  0.00    +0.000 NA
ATOM      3  C   UNL     1      43.255  -4.708  11.628  0.00  0.00    +0.000 A 
ATOM      4  C   UNL     1      43.735  -3.558  12.311  0.00  0.00    +0.000 A 
ATOM      5  C   UNL     1      42.263  -5.491  12.254  0.00  0.00    +0.000 A 
ATOM      6  C   UNL     1      43.174  -3.288  13.577  0.00  0.00    +0.000 A 
ATOM      7  C   UNL     1      41.797  -5.126  13.497  0.00  0.00    +0.000 A 
ATOM      8  C   UNL     1      43.626  -2.164  14.246  0.00  0.00    +0.000 A 
ATOM      9  C   UNL     1      45.097  -1.639  12.458  0.00  0.00    +0.000 A 
ATOM     10  C   UNL     1      44.590  -1.326  13.704  0.00  0.00    +0.000 A 
ENDROOT
BRANCH   9  13
ATOM     11 CL   UNL     1      47.270   3.000  11.790  0.00  0.00    +0.000 Cl
ATOM     12 CL   UNL     1      49.066  -1.418   9.154  0.00  0.00    +0.000 Cl
ATOM     13  C   UNL     1      46.133  -0.837  11.803  0.00  0.00    +0.000 A 
ATOM     14  C   UNL     1      47.032  -1.398  10.889  0.00  0.00    +0.000 A 
ATOM     15  C   UNL     1      46.248   0.536  12.060  0.00  0.00    +0.000 A 
ATOM     16  C   UNL     1      47.215   1.317  11.432  0.00  0.00    +0.000 A 
ATOM     17  C   UNL     1      48.009  -0.626  10.259  0.00  0.00    +0.000 A 
ATOM     18  C   UNL     1      48.104   0.739  10.528  0.00  0.00    +0.000 A 
BRANCH  18  19
ATOM     19  O   UNL     1      49.062   1.494   9.903  0.00  0.00    +0.000 OA
ATOM     20  H   UNL     1      49.246   2.275  10.456  0.00  0.00    +0.000 HD
ENDBRANCH  18  19
ENDBRANCH   9  13
BRANCH   5  21
ATOM     21  C   UNL     1      41.663  -6.667  11.629  0.00  0.00    +0.000 C 
ATOM     22  O   UNL     1      41.010  -6.656  10.599  0.00  0.00    +0.000 OA
ATOM     23  C   UNL     1      41.731  -8.048  12.207  0.00  0.00    +0.000 C 
ENDBRANCH   5  21
BRANCH   3  24
ATOM     24  N   UNL     1      43.804  -5.163  10.386  0.00  0.00    +0.000 N 
ATOM     25  H   UNL     1      44.106  -4.414   9.756  0.00  0.00    +0.000 HD
BRANCH  24  26
ATOM     26  C   UNL     1      44.393  -6.368  10.121  0.00  0.00    +0.000 A 
ATOM     27  C   UNL     1      45.779  -6.527  10.479  0.00  0.00    +0.000 A 
ATOM     28  C   UNL     1      46.865  -7.244   9.636  0.00  0.00    +0.000 A 
ATOM     29  C   UNL     1      46.640  -7.855   8.348  0.00  0.00    +0.000 A 
ATOM     30  C   UNL     1      45.260  -7.675   7.975  0.00  0.00    +0.000 A 
ATOM     31  C   UNL     1      44.179  -6.956   8.820  0.00  0.00    +0.000 A 
BRANCH  29  32
ATOM     32  C   UNL     1      47.582  -8.628   7.633  0.00  0.00    +0.000 C 
BRANCH  32  33
ATOM     33  N   UNL     1      48.552  -9.434   6.913  0.00  0.00    +0.000 NA
ATOM     34  C   UNL     1      47.924  -9.870   5.677  0.00  0.00    +0.000 C 
ATOM     35  C   UNL     1      48.801 -10.625   7.708  0.00  0.00    +0.000 C 
ENDBRANCH  32  33
ENDBRANCH  29  32
ENDBRANCH  24  26
ENDBRANCH   3  24
TORSDOF 7
ENDMDL
MODEL 5
REMARK VINA RESULT:      -8.0      2.797      4.348
REMARK  Name = OTSSP167.pdbqt.pdb
REMARK  7 active torsions:
REMARK  status: ('A' for Active; 'I' for Inactive)
REMARK    1  A    between atoms: C_5  and  N_19
REMARK    2  A    between atoms: C_7  and  C_31
REMARK    3  A    between atoms: C_11  and  C_13
REMARK    4  A    between atoms: C_18  and  O_34
REMARK    5  A    between atoms: N_19  and  C_21
REMARK    6  A    between atoms: C_24  and  C_27
REMARK    7  A    between atoms: C_27  and  N_28
REMARK                            x       y       z     vdW  Elec       q    Type
REMARK                         _______ _______ _______ _____ _____    ______ ____
ROOT
ATOM      1  N   UNL     1      44.950  -1.935  11.607  0.00  0.00    +0.000 NA
ATOM      2  N   UNL     1      44.640   0.533  14.283  0.00  0.00    +0.000 NA
ATOM      3  C   UNL     1      45.997   0.252  11.832  0.00  0.00    +0.000 A 
ATOM      4  C   UNL     1      45.137  -0.780  12.293  0.00  0.00    +0.000 A 
ATOM      5  C   UNL     1      46.149   1.402  12.634  0.00  0.00    +0.000 A 
ATOM      6  C   UNL     1      44.493  -0.570  13.532  0.00  0.00    +0.000 A 
ATOM      7  C   UNL     1      45.463   1.494  13.824  0.00  0.00    +0.000 A 
ATOM      8  C   UNL     1      43.662  -1.574  13.995  0.00  0.00    +0.000 A 
ATOM      9  C   UNL     1      44.123  -2.898  12.080  0.00  0.00    +0.000 A 
ATOM     10  C   UNL     1      43.461  -2.747  13.283  0.00  0.00    +0.000 A 
ENDROOT
BRANCH   9  13
ATOM     11 CL   UNL     1      46.356  -6.450   9.064  0.00  0.00    +0.000 Cl
ATOM     12 CL   UNL     1      40.982  -6.417   9.965  0.00  0.00    +0.000 Cl
ATOM     13  C   UNL     1      43.966  -4.086  11.236  0.00  0.00    +0.000 A 
ATOM     14  C   UNL     1      42.713  -4.663  11.001  0.00  0.00    +0.000 A 
ATOM     15  C   UNL     1      45.075  -4.680  10.620  0.00  0.00    +0.000 A 
ATOM     16  C   UNL     1      44.943  -5.798   9.800  0.00  0.00    +0.000 A 
ATOM     17  C   UNL     1      42.569  -5.786  10.186  0.00  0.00    +0.000 A 
ATOM     18  C   UNL     1      43.686  -6.360   9.580  0.00  0.00    +0.000 A 
BRANCH  18  19
ATOM     19  O   UNL     1      43.538  -7.461   8.778  0.00  0.00    +0.000 OA
ATOM     20  H   UNL     1      42.906  -8.069   9.205  0.00  0.00    +0.000 HD
ENDBRANCH  18  19
ENDBRANCH   9  13
BRANCH   5  21
ATOM     21  C   UNL     1      47.040   2.506  12.285  0.00  0.00    +0.000 C 
ATOM     22  O   UNL     1      48.205   2.384  11.944  0.00  0.00    +0.000 OA
ATOM     23  C   UNL     1      46.648   3.951  12.349  0.00  0.00    +0.000 C 
ENDBRANCH   5  21
BRANCH   3  24
ATOM     24  N   UNL     1      46.632   0.223  10.549  0.00  0.00    +0.000 N 
ATOM     25  H   UNL     1      46.526   1.082  10.003  0.00  0.00    +0.000 HD
BRANCH  24  26
ATOM     26  C   UNL     1      47.694  -0.544  10.156  0.00  0.00    +0.000 A 
ATOM     27  C   UNL     1      47.460  -1.534   9.136  0.00  0.00    +0.000 A 
ATOM     28  C   UNL     1      48.039  -2.972   9.109  0.00  0.00    +0.000 A 
ATOM     29  C   UNL     1      48.898  -3.536  10.122  0.00  0.00    +0.000 A 
ATOM     30  C   UNL     1      49.112  -2.556  11.157  0.00  0.00    +0.000 A 
ATOM     31  C   UNL     1      48.531  -1.121  11.180  0.00  0.00    +0.000 A 
BRANCH  29  32
ATOM     32  C   UNL     1      49.541  -4.791  10.044  0.00  0.00    +0.000 C 
BRANCH  32  33
ATOM     33  N   UNL     1      50.218  -6.073   9.958  0.00  0.00    +0.000 NA
ATOM     34  C   UNL     1      50.334  -6.595  11.310  0.00  0.00    +0.000 C 
ATOM     35  C   UNL     1      51.568  -5.819   9.482  0.00  0.00    +0.000 C 
ENDBRANCH  32  33
ENDBRANCH  29  32
ENDBRANCH  24  26
ENDBRANCH   3  24
TORSDOF 7
ENDMDL
MODEL 6
REMARK VINA RESULT:      -7.8      2.464      3.617
REMARK  Name = OTSSP167.pdbqt.pdb
REMARK  7 active torsions:
REMARK  status: ('A' for Active; 'I' for Inactive)
REMARK    1  A    between atoms: C_5  and  N_19
REMARK    2  A    between atoms: C_7  and  C_31
REMARK    3  A    between atoms: C_11  and  C_13
REMARK    4  A    between atoms: C_18  and  O_34
REMARK    5  A    between atoms: N_19  and  C_21
REMARK    6  A    between atoms: C_24  and  C_27
REMARK    7  A    between atoms: C_27  and  N_28
REMARK                            x       y       z     vdW  Elec       q    Type
REMARK                         _______ _______ _______ _____ _____    ______ ____
ROOT
ATOM      1  N   UNL     1      45.144  -2.374  11.523  0.00  0.00    +0.000 NA
ATOM      2  N   UNL     1      45.611  -0.404  14.566  0.00  0.00    +0.000 NA
ATOM      3  C   UNL     1      46.212  -0.206  11.822  0.00  0.00    +0.000 A 
ATOM      4  C   UNL     1      45.519  -1.342  12.320  0.00  0.00    +0.000 A 
ATOM      5  C   UNL     1      46.587   0.800  12.736  0.00  0.00    +0.000 A 
ATOM      6  C   UNL     1      45.256  -1.373  13.706  0.00  0.00    +0.000 A 
ATOM      7  C   UNL     1      46.269   0.659  14.068  0.00  0.00    +0.000 A 
ATOM      8  C   UNL     1      44.591  -2.479  14.202  0.00  0.00    +0.000 A 
ATOM      9  C   UNL     1      44.485  -3.442  12.035  0.00  0.00    +0.000 A 
ATOM     10  C   UNL     1      44.194  -3.526  13.383  0.00  0.00    +0.000 A 
ENDROOT
BRANCH   9  13
ATOM     11 CL   UNL     1      45.951  -6.897   8.484  0.00  0.00    +0.000 Cl
ATOM     12 CL   UNL     1      40.709  -6.149   9.771  0.00  0.00    +0.000 Cl
ATOM     13  C   UNL     1      44.094  -4.479  11.077  0.00  0.00    +0.000 A 
ATOM     14  C   UNL     1      42.753  -4.823  10.870  0.00  0.00    +0.000 A 
ATOM     15  C   UNL     1      45.058  -5.156  10.319  0.00  0.00    +0.000 A 
ATOM     16  C   UNL     1      44.703  -6.131   9.390  0.00  0.00    +0.000 A 
ATOM     17  C   UNL     1      42.386  -5.802   9.946  0.00  0.00    +0.000 A 
ATOM     18  C   UNL     1      43.362  -6.462   9.199  0.00  0.00    +0.000 A 
BRANCH  18  19
ATOM     19  O   UNL     1      42.996  -7.420   8.291  0.00  0.00    +0.000 OA
ATOM     20  H   UNL     1      42.043  -7.320   8.107  0.00  0.00    +0.000 HD
ENDBRANCH  18  19
ENDBRANCH   9  13
BRANCH   5  21
ATOM     21  C   UNL     1      47.342   1.989  12.347  0.00  0.00    +0.000 C 
ATOM     22  O   UNL     1      48.504   1.990  11.978  0.00  0.00    +0.000 OA
ATOM     23  C   UNL     1      46.794   3.383  12.400  0.00  0.00    +0.000 C 
ENDBRANCH   5  21
BRANCH   3  24
ATOM     24  N   UNL     1      46.455   0.010  10.428  0.00  0.00    +0.000 N 
ATOM     25  H   UNL     1      46.045   0.871  10.054  0.00  0.00    +0.000 HD
BRANCH  24  26
ATOM     26  C   UNL     1      47.483  -0.477   9.670  0.00  0.00    +0.000 A 
ATOM     27  C   UNL     1      48.473  -1.288  10.331  0.00  0.00    +0.000 A 
ATOM     28  C   UNL     1      50.005  -1.234  10.096  0.00  0.00    +0.000 A 
ATOM     29  C   UNL     1      50.668  -0.343   9.175  0.00  0.00    +0.000 A 
ATOM     30  C   UNL     1      49.682   0.488   8.531  0.00  0.00    +0.000 A 
ATOM     31  C   UNL     1      48.153   0.431   8.770  0.00  0.00    +0.000 A 
BRANCH  29  32
ATOM     32  C   UNL     1      52.042  -0.375   8.851  0.00  0.00    +0.000 C 
BRANCH  32  33
ATOM     33  N   UNL     1      53.452  -0.397   8.503  0.00  0.00    +0.000 NA
ATOM     34  C   UNL     1      54.201  -0.052   9.700  0.00  0.00    +0.000 C 
ATOM     35  C   UNL     1      53.677   0.668   7.539  0.00  0.00    +0.000 C 
ENDBRANCH  32  33
ENDBRANCH  29  32
ENDBRANCH  24  26
ENDBRANCH   3  24
TORSDOF 7
ENDMDL
MODEL 7
REMARK VINA RESULT:      -7.6      2.471      3.859
REMARK  Name = OTSSP167.pdbqt.pdb
REMARK  7 active torsions:
REMARK  status: ('A' for Active; 'I' for Inactive)
REMARK    1  A    between atoms: C_5  and  N_19
REMARK    2  A    between atoms: C_7  and  C_31
REMARK    3  A    between atoms: C_11  and  C_13
REMARK    4  A    between atoms: C_18  and  O_34
REMARK    5  A    between atoms: N_19  and  C_21
REMARK    6  A    between atoms: C_24  and  C_27
REMARK    7  A    between atoms: C_27  and  N_28
REMARK                            x       y       z     vdW  Elec       q    Type
REMARK                         _______ _______ _______ _____ _____    ______ ____
ROOT
ATOM      1  N   UNL     1      45.100  -6.806  10.276  0.00  0.00    +0.000 NA
ATOM      2  N   UNL     1      41.765  -5.512  11.019  0.00  0.00    +0.000 NA
ATOM      3  C   UNL     1      44.288  -5.652  12.260  0.00  0.00    +0.000 A 
ATOM      4  C   UNL     1      44.103  -6.190  10.959  0.00  0.00    +0.000 A 
ATOM      5  C   UNL     1      43.181  -5.058  12.901  0.00  0.00    +0.000 A 
ATOM      6  C   UNL     1      42.811  -6.086  10.403  0.00  0.00    +0.000 A 
ATOM      7  C   UNL     1      41.967  -5.012  12.252  0.00  0.00    +0.000 A 
ATOM      8  C   UNL     1      42.617  -6.617   9.140  0.00  0.00    +0.000 A 
ATOM      9  C   UNL     1      44.885  -7.310   9.036  0.00  0.00    +0.000 A 
ATOM     10  C   UNL     1      43.642  -7.232   8.437  0.00  0.00    +0.000 A 
ENDROOT
BRANCH   9  13
ATOM     11 CL   UNL     1      46.804  -9.664   4.857  0.00  0.00    +0.000 Cl
ATOM     12 CL   UNL     1      49.863  -8.682   9.258  0.00  0.00    +0.000 Cl
ATOM     13  C   UNL     1      46.043  -7.918   8.376  0.00  0.00    +0.000 A 
ATOM     14  C   UNL     1      47.285  -8.019   9.014  0.00  0.00    +0.000 A 
ATOM     15  C   UNL     1      45.940  -8.435   7.079  0.00  0.00    +0.000 A 
ATOM     16  C   UNL     1      47.025  -9.033   6.443  0.00  0.00    +0.000 A 
ATOM     17  C   UNL     1      48.381  -8.610   8.384  0.00  0.00    +0.000 A 
ATOM     18  C   UNL     1      48.255  -9.123   7.093  0.00  0.00    +0.000 A 
BRANCH  18  19
ATOM     19  O   UNL     1      49.334  -9.706   6.481  0.00  0.00    +0.000 OA
ATOM     20  H   UNL     1      49.230 -10.674   6.535  0.00  0.00    +0.000 HD
ENDBRANCH  18  19
ENDBRANCH   9  13
BRANCH   5  21
ATOM     21  C   UNL     1      43.241  -4.514  14.255  0.00  0.00    +0.000 C 
ATOM     22  O   UNL     1      43.656  -5.113  15.233  0.00  0.00    +0.000 OA
ATOM     23  C   UNL     1      42.748  -3.149  14.631  0.00  0.00    +0.000 C 
ENDBRANCH   5  21
BRANCH   3  24
ATOM     24  N   UNL     1      45.565  -5.593  12.905  0.00  0.00    +0.000 N 
ATOM     25  H   UNL     1      45.900  -6.490  13.266  0.00  0.00    +0.000 HD
BRANCH  24  26
ATOM     26  C   UNL     1      46.563  -4.679  12.708  0.00  0.00    +0.000 A 
ATOM     27  C   UNL     1      46.181  -3.300  12.535  0.00  0.00    +0.000 A 
ATOM     28  C   UNL     1      46.797  -2.301  11.522  0.00  0.00    +0.000 A 
ATOM     29  C   UNL     1      47.850  -2.617  10.587  0.00  0.00    +0.000 A 
ATOM     30  C   UNL     1      48.216  -4.002  10.740  0.00  0.00    +0.000 A 
ATOM     31  C   UNL     1      47.597  -4.997  11.753  0.00  0.00    +0.000 A 
BRANCH  29  32
ATOM     32  C   UNL     1      48.513  -1.687   9.757  0.00  0.00    +0.000 C 
BRANCH  32  33
ATOM     33  N   UNL     1      49.207  -0.726   8.918  0.00  0.00    +0.000 NA
ATOM     34  C   UNL     1      50.287  -0.158   9.708  0.00  0.00    +0.000 C 
ATOM     35  C   UNL     1      48.276   0.353   8.632  0.00  0.00    +0.000 C 
ENDBRANCH  32  33
ENDBRANCH  29  32
ENDBRANCH  24  26
ENDBRANCH   3  24
TORSDOF 7
ENDMDL
MODEL 8
REMARK VINA RESULT:      -7.6      2.419      4.019
REMARK  Name = OTSSP167.pdbqt.pdb
REMARK  7 active torsions:
REMARK  status: ('A' for Active; 'I' for Inactive)
REMARK    1  A    between atoms: C_5  and  N_19
REMARK    2  A    between atoms: C_7  and  C_31
REMARK    3  A    between atoms: C_11  and  C_13
REMARK    4  A    between atoms: C_18  and  O_34
REMARK    5  A    between atoms: N_19  and  C_21
REMARK    6  A    between atoms: C_24  and  C_27
REMARK    7  A    between atoms: C_27  and  N_28
REMARK                            x       y       z     vdW  Elec       q    Type
REMARK                         _______ _______ _______ _____ _____    ______ ____
ROOT
ATOM      1  N   UNL     1      45.382  -1.986  11.616  0.00  0.00    +0.000 NA
ATOM      2  N   UNL     1      44.650   1.347  12.923  0.00  0.00    +0.000 NA
ATOM      3  C   UNL     1      46.887  -0.121  12.048  0.00  0.00    +0.000 A 
ATOM      4  C   UNL     1      45.595  -0.710  12.026  0.00  0.00    +0.000 A 
ATOM      5  C   UNL     1      47.009   1.202  12.521  0.00  0.00    +0.000 A 
ATOM      6  C   UNL     1      44.522   0.085  12.482  0.00  0.00    +0.000 A 
ATOM      7  C   UNL     1      45.885   1.880  12.937  0.00  0.00    +0.000 A 
ATOM      8  C   UNL     1      43.261  -0.483  12.475  0.00  0.00    +0.000 A 
ATOM      9  C   UNL     1      44.133  -2.514  11.611  0.00  0.00    +0.000 A 
ATOM     10  C   UNL     1      43.044  -1.782  12.040  0.00  0.00    +0.000 A 
ENDROOT
BRANCH   9  13
ATOM     11 CL   UNL     1      46.513  -6.881  10.212  0.00  0.00    +0.000 Cl
ATOM     12 CL   UNL     1      41.097  -6.348   9.938  0.00  0.00    +0.000 Cl
ATOM     13  C   UNL     1      44.016  -3.886  11.111  0.00  0.00    +0.000 A 
ATOM     14  C   UNL     1      42.776  -4.449  10.788  0.00  0.00    +0.000 A 
ATOM     15  C   UNL     1      45.153  -4.682  10.924  0.00  0.00    +0.000 A 
ATOM     16  C   UNL     1      45.062  -5.982  10.433  0.00  0.00    +0.000 A 
ATOM     17  C   UNL     1      42.671  -5.753  10.301  0.00  0.00    +0.000 A 
ATOM     18  C   UNL     1      43.818  -6.527  10.120  0.00  0.00    +0.000 A 
BRANCH  18  19
ATOM     19  O   UNL     1      43.710  -7.804   9.637  0.00  0.00    +0.000 OA
ATOM     20  H   UNL     1      44.537  -8.027   9.171  0.00  0.00    +0.000 HD
ENDBRANCH  18  19
ENDBRANCH   9  13
BRANCH   5  21
ATOM     21  C   UNL     1      48.292   1.893  12.633  0.00  0.00    +0.000 C 
ATOM     22  O   UNL     1      48.925   2.350  11.696  0.00  0.00    +0.000 OA
ATOM     23  C   UNL     1      49.026   2.089  13.925  0.00  0.00    +0.000 C 
ENDBRANCH   5  21
BRANCH   3  24
ATOM     24  N   UNL     1      48.049  -0.770  11.519  0.00  0.00    +0.000 N 
ATOM     25  H   UNL     1      48.306  -1.637  12.000  0.00  0.00    +0.000 HD
BRANCH  24  26
ATOM     26  C   UNL     1      48.559  -0.676  10.255  0.00  0.00    +0.000 A 
ATOM     27  C   UNL     1      49.972  -0.427  10.122  0.00  0.00    +0.000 A 
ATOM     28  C   UNL     1      50.641   0.525   9.097  0.00  0.00    +0.000 A 
ATOM     29  C   UNL     1      49.931   1.317   8.122  0.00  0.00    +0.000 A 
ATOM     30  C   UNL     1      48.516   1.090   8.269  0.00  0.00    +0.000 A 
ATOM     31  C   UNL     1      47.853   0.138   9.296  0.00  0.00    +0.000 A 
BRANCH  29  32
ATOM     32  C   UNL     1      50.530   2.081   7.096  0.00  0.00    +0.000 C 
BRANCH  32  33
ATOM     33  N   UNL     1      51.131   2.877   6.040  0.00  0.00    +0.000 NA
ATOM     34  C   UNL     1      50.486   2.501   4.792  0.00  0.00    +0.000 C 
ATOM     35  C   UNL     1      52.525   2.479   5.935  0.00  0.00    +0.000 C 
ENDBRANCH  32  33
ENDBRANCH  29  32
ENDBRANCH  24  26
ENDBRANCH   3  24
TORSDOF 7
ENDMDL
MODEL 9
REMARK VINA RESULT:      -7.5      4.208      5.974
REMARK  Name = OTSSP167.pdbqt.pdb
REMARK  7 active torsions:
REMARK  status: ('A' for Active; 'I' for Inactive)
REMARK    1  A    between atoms: C_5  and  N_19
REMARK    2  A    between atoms: C_7  and  C_31
REMARK    3  A    between atoms: C_11  and  C_13
REMARK    4  A    between atoms: C_18  and  O_34
REMARK    5  A    between atoms: N_19  and  C_21
REMARK    6  A    between atoms: C_24  and  C_27
REMARK    7  A    between atoms: C_27  and  N_28
REMARK                            x       y       z     vdW  Elec       q    Type
REMARK                         _______ _______ _______ _____ _____    ______ ____
ROOT
ATOM      1  N   UNL     1      46.573  -6.773  10.156  0.00  0.00    +0.000 NA
ATOM      2  N   UNL     1      43.917  -7.764   7.851  0.00  0.00    +0.000 NA
ATOM      3  C   UNL     1      44.190  -6.279  10.227  0.00  0.00    +0.000 A 
ATOM      4  C   UNL     1      45.331  -6.870   9.621  0.00  0.00    +0.000 A 
ATOM      5  C   UNL     1      42.936  -6.463   9.610  0.00  0.00    +0.000 A 
ATOM      6  C   UNL     1      45.116  -7.602   8.434  0.00  0.00    +0.000 A 
ATOM      7  C   UNL     1      42.853  -7.196   8.447  0.00  0.00    +0.000 A 
ATOM      8  C   UNL     1      46.219  -8.191   7.841  0.00  0.00    +0.000 A 
ATOM      9  C   UNL     1      47.638  -7.353   9.549  0.00  0.00    +0.000 A 
ATOM     10  C   UNL     1      47.491  -8.077   8.382  0.00  0.00    +0.000 A 
ENDROOT
BRANCH   9  13
ATOM     11 CL   UNL     1      50.387  -4.921  13.185  0.00  0.00    +0.000 Cl
ATOM     12 CL   UNL     1      52.678  -8.480   9.754  0.00  0.00    +0.000 Cl
ATOM     13  C   UNL     1      48.938  -7.150  10.194  0.00  0.00    +0.000 A 
ATOM     14  C   UNL     1      50.089  -7.816   9.758  0.00  0.00    +0.000 A 
ATOM     15  C   UNL     1      49.074  -6.264  11.271  0.00  0.00    +0.000 A 
ATOM     16  C   UNL     1      50.306  -6.045  11.884  0.00  0.00    +0.000 A 
ATOM     17  C   UNL     1      51.326  -7.609  10.368  0.00  0.00    +0.000 A 
ATOM     18  C   UNL     1      51.441  -6.719  11.437  0.00  0.00    +0.000 A 
BRANCH  18  19
ATOM     19  O   UNL     1      52.659  -6.517  12.030  0.00  0.00    +0.000 OA
ATOM     20  H   UNL     1      52.828  -7.257  12.643  0.00  0.00    +0.000 HD
ENDBRANCH  18  19
ENDBRANCH   9  13
BRANCH   5  21
ATOM     21  C   UNL     1      41.689  -5.942  10.166  0.00  0.00    +0.000 C 
ATOM     22  O   UNL     1      41.197  -6.289  11.226  0.00  0.00    +0.000 OA
ATOM     23  C   UNL     1      40.820  -4.936   9.473  0.00  0.00    +0.000 C 
ENDBRANCH   5  21
BRANCH   3  24
ATOM     24  N   UNL     1      44.271  -5.424  11.373  0.00  0.00    +0.000 N 
ATOM     25  H   UNL     1      44.454  -5.912  12.254  0.00  0.00    +0.000 HD
BRANCH  24  26
ATOM     26  C   UNL     1      44.597  -4.097  11.408  0.00  0.00    +0.000 A 
ATOM     27  C   UNL     1      45.812  -3.726  12.088  0.00  0.00    +0.000 A 
ATOM     28  C   UNL     1      46.003  -2.496  13.013  0.00  0.00    +0.000 A 
ATOM     29  C   UNL     1      44.973  -1.539  13.337  0.00  0.00    +0.000 A 
ATOM     30  C   UNL     1      43.750  -1.922  12.678  0.00  0.00    +0.000 A 
ATOM     31  C   UNL     1      43.564  -3.152  11.756  0.00  0.00    +0.000 A 
BRANCH  29  32
ATOM     32  C   UNL     1      45.167  -0.343  14.063  0.00  0.00    +0.000 C 
BRANCH  32  33
ATOM     33  N   UNL     1      45.384   0.884  14.810  0.00  0.00    +0.000 NA
ATOM     34  C   UNL     1      44.774   1.966  14.055  0.00  0.00    +0.000 C 
ATOM     35  C   UNL     1      46.816   1.131  14.828  0.00  0.00    +0.000 C 
ENDBRANCH  32  33
ENDBRANCH  29  32
ENDBRANCH  24  26
ENDBRANCH   3  24
TORSDOF 7
ENDMDL
