REMARK  Name = OTSSP167.pdbqt.pdb
REMARK  7 active torsions:
REMARK  status: ('A' for Active; 'I' for Inactive)
REMARK    1  A    between atoms: C_5  and  N_19
REMARK    2  A    between atoms: C_7  and  C_31
REMARK    3  A    between atoms: C_11  and  C_13
REMARK    4  A    between atoms: C_18  and  O_34
REMARK    5  A    between atoms: N_19  and  C_21
REMARK    6  A    between atoms: C_24  and  C_27
REMARK    7  A    between atoms: C_27  and  N_28
REMARK                            x       y       z     vdW  Elec       q    Type
REMARK                         _______ _______ _______ _____ _____    ______ ____
ROOT
ATOM      1  N   UNL     1      -0.989  -1.348  -0.127  0.00  0.00    +0.000 NA
ATOM      2  N   UNL     1      -0.387  -4.920   0.352  0.00  0.00    +0.000 NA
ATOM      3  C   UNL     1       1.040  -2.644  -0.491  0.00  0.00    +0.000 A 
ATOM      4  C   UNL     1      -0.319  -2.527  -0.095  0.00  0.00    +0.000 A 
ATOM      5  C   UNL     1       1.639  -3.920  -0.452  0.00  0.00    +0.000 A 
ATOM      6  C   UNL     1      -0.970  -3.711   0.312  0.00  0.00    +0.000 A 
ATOM      7  C   UNL     1       0.900  -5.003  -0.031  0.00  0.00    +0.000 A 
ATOM      8  C   UNL     1      -2.297  -3.610   0.689  0.00  0.00    +0.000 A 
ATOM      9  C   UNL     1      -2.287  -1.276   0.257  0.00  0.00    +0.000 A 
ATOM     10  C   UNL     1      -2.975  -2.400   0.671  0.00  0.00    +0.000 A 
ENDROOT
BRANCH   9  13
ATOM     11 CL   UNL     1      -1.681   3.798  -0.505  0.00  0.00    +0.000 Cl
ATOM     12 CL   UNL     1      -6.500   1.656   0.867  0.00  0.00    +0.000 Cl
ATOM     13  C   UNL     1      -2.898   0.055   0.220  0.00  0.00    +0.000 A 
ATOM     14  C   UNL     1      -4.252   0.253   0.515  0.00  0.00    +0.000 A 
ATOM     15  C   UNL     1      -2.136   1.186  -0.101  0.00  0.00    +0.000 A 
ATOM     16  C   UNL     1      -2.696   2.461  -0.123  0.00  0.00    +0.000 A 
ATOM     17  C   UNL     1      -4.825   1.525   0.490  0.00  0.00    +0.000 A 
ATOM     18  C   UNL     1      -4.047   2.638   0.171  0.00  0.00    +0.000 A 
BRANCH  18  19
ATOM     19  O   UNL     1      -4.614   3.885   0.152  0.00  0.00    +0.000 OA
ATOM     20  H   UNL     1      -3.928   4.530  -0.103  0.00  0.00    +0.000 HD
ENDBRANCH  18  19
ENDBRANCH   9  13
BRANCH   5  21
ATOM     21  C   UNL     1       3.014  -4.169  -0.879  0.00  0.00    +0.000 C 
ATOM     22  O   UNL     1       3.713  -3.375  -1.486  0.00  0.00    +0.000 OA
ATOM     23  C   UNL     1       3.734  -5.466  -0.666  0.00  0.00    +0.000 C 
ENDBRANCH   5  21
BRANCH   3  24
ATOM     24  N   UNL     1       1.854  -1.515  -0.827  0.00  0.00    +0.000 N 
ATOM     25  H   UNL     1       2.587  -1.710  -1.515  0.00  0.00    +0.000 HD
BRANCH  24  26
ATOM     26  C   UNL     1       1.528  -0.190  -0.740  0.00  0.00    +0.000 A 
ATOM     27  C   UNL     1       2.283   0.737  -1.544  0.00  0.00    +0.000 A 
ATOM     28  C   UNL     1       2.785   2.135  -1.099  0.00  0.00    +0.000 A 
ATOM     29  C   UNL     1       2.573   2.711   0.207  0.00  0.00    +0.000 A 
ATOM     30  C   UNL     1       1.840   1.775   1.022  0.00  0.00    +0.000 A 
ATOM     31  C   UNL     1       1.342   0.379   0.573  0.00  0.00    +0.000 A 
BRANCH  29  32
ATOM     32  C   UNL     1       2.903   4.032   0.582  0.00  0.00    +0.000 C 
BRANCH  32  33
ATOM     33  N   UNL     1       3.231   5.389   0.983  0.00  0.00    +0.000 NA
ATOM     34  C   UNL     1       3.056   6.241  -0.182  0.00  0.00    +0.000 C 
ATOM     35  C   UNL     1       4.645   5.412   1.319  0.00  0.00    +0.000 C 
ENDBRANCH  32  33
ENDBRANCH  29  32
ENDBRANCH  24  26
ENDBRANCH   3  24
TORSDOF 7
