MODEL 1
REMARK VINA RESULT:      -7.2      0.000      0.000
REMARK  Name = 
REMARK  0 active torsions:
REMARK  status: ('A' for Active; 'I' for Inactive)
REMARK                            x       y       z     vdW  Elec       q    Type
REMARK                         _______ _______ _______ _____ _____    ______ ____
ROOT
ATOM      1  O   UNL     1      43.243  -5.030   9.862  0.00  0.00    +0.000 OA
ATOM      2  O   UNL     1      46.687  -2.363  12.721  0.00  0.00    +0.000 OA
ATOM      3  N   UNL     1      43.401  -6.354  10.163  0.00  0.00    +0.000 N 
ATOM      4  N   UNL     1      45.138  -4.080  12.634  0.00  0.00    +0.000 N 
ATOM      5  C   UNL     1      44.229  -6.585  11.441  0.00  0.00    +0.000 C 
ATOM      6  C   UNL     1      43.561  -6.007  12.705  0.00  0.00    +0.000 C 
ATOM      7  C   UNL     1      45.681  -6.110  11.313  0.00  0.00    +0.000 C 
ATOM      8  C   UNL     1      43.717  -4.462  12.800  0.00  0.00    +0.000 C 
ATOM      9  C   UNL     1      42.122  -6.542  12.822  0.00  0.00    +0.000 C 
ATOM     10  C   UNL     1      45.796  -4.591  11.428  0.00  0.00    +0.000 C 
ATOM     11  C   UNL     1      42.026  -6.961  10.350  0.00  0.00    +0.000 C 
ATOM     12  C   UNL     1      46.350  -6.662  10.048  0.00  0.00    +0.000 C 
ATOM     13  C   UNL     1      44.094  -7.031   8.998  0.00  0.00    +0.000 C 
ATOM     14  C   UNL     1      41.310  -6.351  11.549  0.00  0.00    +0.000 C 
ATOM     15  C   UNL     1      45.501  -6.485   8.794  0.00  0.00    +0.000 C 
ATOM     16  C   UNL     1      43.127  -3.935  14.118  0.00  0.00    +0.000 C 
ATOM     17  C   UNL     1      43.439  -2.459  14.279  0.00  0.00    +0.000 C 
ATOM     18  C   UNL     1      45.642  -2.875  13.128  0.00  0.00    +0.000 C 
ATOM     19  C   UNL     1      44.938  -2.275  14.324  0.00  0.00    +0.000 C 
ENDROOT
TORSDOF 0
ENDMDL
MODEL 2
REMARK VINA RESULT:      -7.0      1.889      2.782
REMARK  Name = 
REMARK  0 active torsions:
REMARK  status: ('A' for Active; 'I' for Inactive)
REMARK                            x       y       z     vdW  Elec       q    Type
REMARK                         _______ _______ _______ _____ _____    ______ ____
ROOT
ATOM      1  O   UNL     1      42.626  -4.568  11.482  0.00  0.00    +0.000 OA
ATOM      2  O   UNL     1      46.406  -1.591   9.485  0.00  0.00    +0.000 OA
ATOM      3  N   UNL     1      43.205  -5.411  12.389  0.00  0.00    +0.000 N 
ATOM      4  N   UNL     1      45.487  -2.574  11.368  0.00  0.00    +0.000 N 
ATOM      5  C   UNL     1      44.633  -4.982  12.780  0.00  0.00    +0.000 C 
ATOM      6  C   UNL     1      44.680  -3.611  13.483  0.00  0.00    +0.000 C 
ATOM      7  C   UNL     1      45.622  -5.041  11.610  0.00  0.00    +0.000 C 
ATOM      8  C   UNL     1      44.525  -2.430  12.483  0.00  0.00    +0.000 C 
ATOM      9  C   UNL     1      43.709  -3.608  14.678  0.00  0.00    +0.000 C 
ATOM     10  C   UNL     1      45.451  -3.857  10.659  0.00  0.00    +0.000 C 
ATOM     11  C   UNL     1      42.340  -5.433  13.632  0.00  0.00    +0.000 C 
ATOM     12  C   UNL     1      45.569  -6.394  10.889  0.00  0.00    +0.000 C 
ATOM     13  C   UNL     1      43.256  -6.801  11.788  0.00  0.00    +0.000 C 
ATOM     14  C   UNL     1      42.305  -4.067  14.306  0.00  0.00    +0.000 C 
ATOM     15  C   UNL     1      44.151  -6.843  10.556  0.00  0.00    +0.000 C 
ATOM     16  C   UNL     1      44.675  -1.082  13.205  0.00  0.00    +0.000 C 
ATOM     17  C   UNL     1      44.697   0.053  12.199  0.00  0.00    +0.000 C 
ATOM     18  C   UNL     1      45.908  -1.481  10.607  0.00  0.00    +0.000 C 
ATOM     19  C   UNL     1      45.883  -0.127  11.280  0.00  0.00    +0.000 C 
ENDROOT
TORSDOF 0
ENDMDL
MODEL 3
REMARK VINA RESULT:      -6.9      1.597      2.445
REMARK  Name = 
REMARK  0 active torsions:
REMARK  status: ('A' for Active; 'I' for Inactive)
REMARK                            x       y       z     vdW  Elec       q    Type
REMARK                         _______ _______ _______ _____ _____    ______ ____
ROOT
ATOM      1  O   UNL     1      42.526  -4.425  11.128  0.00  0.00    +0.000 OA
ATOM      2  O   UNL     1      47.393  -3.279   9.662  0.00  0.00    +0.000 OA
ATOM      3  N   UNL     1      42.513  -5.736  11.513  0.00  0.00    +0.000 N 
ATOM      4  N   UNL     1      46.014  -4.346  11.184  0.00  0.00    +0.000 N 
ATOM      5  C   UNL     1      43.925  -6.310  11.734  0.00  0.00    +0.000 C 
ATOM      6  C   UNL     1      44.690  -5.609  12.874  0.00  0.00    +0.000 C 
ATOM      7  C   UNL     1      44.764  -6.362  10.451  0.00  0.00    +0.000 C 
ATOM      8  C   UNL     1      45.247  -4.222  12.445  0.00  0.00    +0.000 C 
ATOM      9  C   UNL     1      43.836  -5.619  14.155  0.00  0.00    +0.000 C 
ATOM     10  C   UNL     1      45.307  -4.985  10.070  0.00  0.00    +0.000 C 
ATOM     11  C   UNL     1      41.731  -5.839  12.806  0.00  0.00    +0.000 C 
ATOM     12  C   UNL     1      44.004  -7.039   9.303  0.00  0.00    +0.000 C 
ATOM     13  C   UNL     1      41.815  -6.545  10.439  0.00  0.00    +0.000 C 
ATOM     14  C   UNL     1      42.426  -5.087  13.935  0.00  0.00    +0.000 C 
ATOM     15  C   UNL     1      42.587  -6.509   9.125  0.00  0.00    +0.000 C 
ATOM     16  C   UNL     1      46.085  -3.598  13.572  0.00  0.00    +0.000 C 
ATOM     17  C   UNL     1      46.764  -2.333  13.083  0.00  0.00    +0.000 C 
ATOM     18  C   UNL     1      46.994  -3.420  10.820  0.00  0.00    +0.000 C 
ATOM     19  C   UNL     1      47.691  -2.682  11.941  0.00  0.00    +0.000 C 
ENDROOT
TORSDOF 0
ENDMDL
MODEL 4
REMARK VINA RESULT:      -5.9     34.645     36.066
REMARK  Name = 
REMARK  0 active torsions:
REMARK  status: ('A' for Active; 'I' for Inactive)
REMARK                            x       y       z     vdW  Elec       q    Type
REMARK                         _______ _______ _______ _____ _____    ______ ____
ROOT
ATOM      1  O   UNL     1      21.892  22.946   2.512  0.00  0.00    +0.000 OA
ATOM      2  O   UNL     1      22.563  18.142   4.415  0.00  0.00    +0.000 OA
ATOM      3  N   UNL     1      22.030  22.871   1.154  0.00  0.00    +0.000 N 
ATOM      4  N   UNL     1      21.629  19.476   2.770  0.00  0.00    +0.000 N 
ATOM      5  C   UNL     1      21.969  21.425   0.624  0.00  0.00    +0.000 C 
ATOM      6  C   UNL     1      20.611  20.744   0.884  0.00  0.00    +0.000 C 
ATOM      7  C   UNL     1      23.131  20.553   1.113  0.00  0.00    +0.000 C 
ATOM      8  C   UNL     1      20.456  20.282   2.361  0.00  0.00    +0.000 C 
ATOM      9  C   UNL     1      19.475  21.628   0.337  0.00  0.00    +0.000 C 
ATOM     10  C   UNL     1      22.937  20.105   2.561  0.00  0.00    +0.000 C 
ATOM     11  C   UNL     1      20.914  23.675   0.521  0.00  0.00    +0.000 C 
ATOM     12  C   UNL     1      24.488  21.231   0.879  0.00  0.00    +0.000 C 
ATOM     13  C   UNL     1      23.365  23.479   0.773  0.00  0.00    +0.000 C 
ATOM     14  C   UNL     1      19.551  23.068   0.828  0.00  0.00    +0.000 C 
ATOM     15  C   UNL     1      24.526  22.679   1.351  0.00  0.00    +0.000 C 
ATOM     16  C   UNL     1      19.136  19.521   2.558  0.00  0.00    +0.000 C 
ATOM     17  C   UNL     1      19.076  18.926   3.952  0.00  0.00    +0.000 C 
ATOM     18  C   UNL     1      21.566  18.559   3.821  0.00  0.00    +0.000 C 
ATOM     19  C   UNL     1      20.216  17.948   4.119  0.00  0.00    +0.000 C 
ENDROOT
TORSDOF 0
ENDMDL
MODEL 5
REMARK VINA RESULT:      -5.9     35.776     37.711
REMARK  Name = 
REMARK  0 active torsions:
REMARK  status: ('A' for Active; 'I' for Inactive)
REMARK                            x       y       z     vdW  Elec       q    Type
REMARK                         _______ _______ _______ _____ _____    ______ ____
ROOT
ATOM      1  O   UNL     1      21.181  15.402  33.874  0.00  0.00    +0.000 OA
ATOM      2  O   UNL     1      21.052  19.936  31.310  0.00  0.00    +0.000 OA
ATOM      3  N   UNL     1      20.262  14.576  33.289  0.00  0.00    +0.000 N 
ATOM      4  N   UNL     1      21.028  17.625  31.188  0.00  0.00    +0.000 N 
ATOM      5  C   UNL     1      19.786  15.085  31.915  0.00  0.00    +0.000 C 
ATOM      6  C   UNL     1      20.919  15.157  30.872  0.00  0.00    +0.000 C 
ATOM      7  C   UNL     1      19.019  16.411  31.996  0.00  0.00    +0.000 C 
ATOM      8  C   UNL     1      21.840  16.392  31.087  0.00  0.00    +0.000 C 
ATOM      9  C   UNL     1      21.633  13.796  30.788  0.00  0.00    +0.000 C 
ATOM     10  C   UNL     1      19.958  17.601  32.190  0.00  0.00    +0.000 C 
ATOM     11  C   UNL     1      20.899  13.213  33.116  0.00  0.00    +0.000 C 
ATOM     12  C   UNL     1      17.902  16.358  33.046  0.00  0.00    +0.000 C 
ATOM     13  C   UNL     1      19.067  14.458  34.212  0.00  0.00    +0.000 C 
ATOM     14  C   UNL     1      22.074  13.269  32.147  0.00  0.00    +0.000 C 
ATOM     15  C   UNL     1      18.364  15.798  34.386  0.00  0.00    +0.000 C 
ATOM     16  C   UNL     1      22.895  16.485  29.973  0.00  0.00    +0.000 C 
ATOM     17  C   UNL     1      23.673  17.781  30.093  0.00  0.00    +0.000 C 
ATOM     18  C   UNL     1      21.559  18.887  30.910  0.00  0.00    +0.000 C 
ATOM     19  C   UNL     1      22.718  18.943  29.941  0.00  0.00    +0.000 C 
ENDROOT
TORSDOF 0
ENDMDL
MODEL 6
REMARK VINA RESULT:      -5.8     35.692     36.381
REMARK  Name = 
REMARK  0 active torsions:
REMARK  status: ('A' for Active; 'I' for Inactive)
REMARK                            x       y       z     vdW  Elec       q    Type
REMARK                         _______ _______ _______ _____ _____    ______ ____
ROOT
ATOM      1  O   UNL     1      22.922  23.732   0.097  0.00  0.00    +0.000 OA
ATOM      2  O   UNL     1      25.803  26.678   3.286  0.00  0.00    +0.000 OA
ATOM      3  N   UNL     1      23.511  22.500   0.035  0.00  0.00    +0.000 N 
ATOM      4  N   UNL     1      24.842  24.613   2.874  0.00  0.00    +0.000 N 
ATOM      5  C   UNL     1      24.553  22.277   1.148  0.00  0.00    +0.000 C 
ATOM      6  C   UNL     1      23.943  22.311   2.563  0.00  0.00    +0.000 C 
ATOM      7  C   UNL     1      25.761  23.215   1.040  0.00  0.00    +0.000 C 
ATOM      8  C   UNL     1      23.643  23.761   3.040  0.00  0.00    +0.000 C 
ATOM      9  C   UNL     1      22.765  21.323   2.643  0.00  0.00    +0.000 C 
ATOM     10  C   UNL     1      25.433  24.624   1.533  0.00  0.00    +0.000 C 
ATOM     11  C   UNL     1      22.425  21.452   0.160  0.00  0.00    +0.000 C 
ATOM     12  C   UNL     1      26.365  23.205  -0.371  0.00  0.00    +0.000 C 
ATOM     13  C   UNL     1      24.191  22.361  -1.312  0.00  0.00    +0.000 C 
ATOM     14  C   UNL     1      21.749  21.514   1.524  0.00  0.00    +0.000 C 
ATOM     15  C   UNL     1      25.323  23.368  -1.471  0.00  0.00    +0.000 C 
ATOM     16  C   UNL     1      23.129  23.762   4.488  0.00  0.00    +0.000 C 
ATOM     17  C   UNL     1      23.006  25.185   5.001  0.00  0.00    +0.000 C 
ATOM     18  C   UNL     1      25.033  25.776   3.623  0.00  0.00    +0.000 C 
ATOM     19  C   UNL     1      24.371  25.834   4.981  0.00  0.00    +0.000 C 
ENDROOT
TORSDOF 0
ENDMDL
MODEL 7
REMARK VINA RESULT:      -5.7     35.282     36.036
REMARK  Name = 
REMARK  0 active torsions:
REMARK  status: ('A' for Active; 'I' for Inactive)
REMARK                            x       y       z     vdW  Elec       q    Type
REMARK                         _______ _______ _______ _____ _____    ______ ____
ROOT
ATOM      1  O   UNL     1      22.438  22.636  -1.140  0.00  0.00    +0.000 OA
ATOM      2  O   UNL     1      21.977  22.674   4.050  0.00  0.00    +0.000 OA
ATOM      3  N   UNL     1      23.453  21.776  -1.454  0.00  0.00    +0.000 N 
ATOM      4  N   UNL     1      22.297  21.423   2.129  0.00  0.00    +0.000 N 
ATOM      5  C   UNL     1      23.857  20.869  -0.276  0.00  0.00    +0.000 C 
ATOM      6  C   UNL     1      22.722  19.931   0.180  0.00  0.00    +0.000 C 
ATOM      7  C   UNL     1      24.448  21.644   0.908  0.00  0.00    +0.000 C 
ATOM      8  C   UNL     1      21.650  20.673   1.029  0.00  0.00    +0.000 C 
ATOM      9  C   UNL     1      22.188  19.138  -1.027  0.00  0.00    +0.000 C 
ATOM     10  C   UNL     1      23.364  22.345   1.727  0.00  0.00    +0.000 C 
ATOM     11  C   UNL     1      22.997  20.910  -2.609  0.00  0.00    +0.000 C 
ATOM     12  C   UNL     1      25.565  22.597   0.462  0.00  0.00    +0.000 C 
ATOM     13  C   UNL     1      24.656  22.591  -1.883  0.00  0.00    +0.000 C 
ATOM     14  C   UNL     1      21.822  20.027  -2.209  0.00  0.00    +0.000 C 
ATOM     15  C   UNL     1      25.182  23.451  -0.740  0.00  0.00    +0.000 C 
ATOM     16  C   UNL     1      20.589  19.689   1.548  0.00  0.00    +0.000 C 
ATOM     17  C   UNL     1      19.652  20.388   2.513  0.00  0.00    +0.000 C 
ATOM     18  C   UNL     1      21.608  21.775   3.291  0.00  0.00    +0.000 C 
ATOM     19  C   UNL     1      20.449  20.892   3.695  0.00  0.00    +0.000 C 
ENDROOT
TORSDOF 0
ENDMDL
MODEL 8
REMARK VINA RESULT:      -5.7     16.275     17.632
REMARK  Name = 
REMARK  0 active torsions:
REMARK  status: ('A' for Active; 'I' for Inactive)
REMARK                            x       y       z     vdW  Elec       q    Type
REMARK                         _______ _______ _______ _____ _____    ______ ____
ROOT
ATOM      1  O   UNL     1      38.860   7.773  18.485  0.00  0.00    +0.000 OA
ATOM      2  O   UNL     1      38.329   7.588  23.665  0.00  0.00    +0.000 OA
ATOM      3  N   UNL     1      38.646   9.066  18.098  0.00  0.00    +0.000 N 
ATOM      4  N   UNL     1      39.161   8.725  21.828  0.00  0.00    +0.000 N 
ATOM      5  C   UNL     1      38.687  10.059  19.275  0.00  0.00    +0.000 C 
ATOM      6  C   UNL     1      40.063  10.115  19.969  0.00  0.00    +0.000 C 
ATOM      7  C   UNL     1      37.560   9.838  20.291  0.00  0.00    +0.000 C 
ATOM      8  C   UNL     1      40.303   8.894  20.902  0.00  0.00    +0.000 C 
ATOM      9  C   UNL     1      41.160  10.385  18.924  0.00  0.00    +0.000 C 
ATOM     10  C   UNL     1      37.839   8.641  21.200  0.00  0.00    +0.000 C 
ATOM     11  C   UNL     1      39.719   9.442  17.098  0.00  0.00    +0.000 C 
ATOM     12  C   UNL     1      36.188   9.759  19.610  0.00  0.00    +0.000 C 
ATOM     13  C   UNL     1      37.288   9.149  17.432  0.00  0.00    +0.000 C 
ATOM     14  C   UNL     1      41.102   9.430  17.739  0.00  0.00    +0.000 C 
ATOM     15  C   UNL     1      36.167   8.820  18.409  0.00  0.00    +0.000 C 
ATOM     16  C   UNL     1      41.638   9.033  21.650  0.00  0.00    +0.000 C 
ATOM     17  C   UNL     1      41.780   7.930  22.681  0.00  0.00    +0.000 C 
ATOM     18  C   UNL     1      39.289   8.053  23.046  0.00  0.00    +0.000 C 
ATOM     19  C   UNL     1      40.658   8.050  23.687  0.00  0.00    +0.000 C 
ENDROOT
TORSDOF 0
ENDMDL
MODEL 9
REMARK VINA RESULT:      -5.6     36.125     38.027
REMARK  Name = 
REMARK  0 active torsions:
REMARK  status: ('A' for Active; 'I' for Inactive)
REMARK                            x       y       z     vdW  Elec       q    Type
REMARK                         _______ _______ _______ _____ _____    ______ ____
ROOT
ATOM      1  O   UNL     1      24.095  19.729  32.384  0.00  0.00    +0.000 OA
ATOM      2  O   UNL     1      22.560  15.538  29.696  0.00  0.00    +0.000 OA
ATOM      3  N   UNL     1      23.781  20.831  31.639  0.00  0.00    +0.000 N 
ATOM      4  N   UNL     1      22.079  17.692  30.393  0.00  0.00    +0.000 N 
ATOM      5  C   UNL     1      22.800  20.519  30.492  0.00  0.00    +0.000 C 
ATOM      6  C   UNL     1      21.429  20.021  30.990  0.00  0.00    +0.000 C 
ATOM      7  C   UNL     1      23.386  19.574  29.437  0.00  0.00    +0.000 C 
ATOM      8  C   UNL     1      21.472  18.535  31.448  0.00  0.00    +0.000 C 
ATOM      9  C   UNL     1      20.854  21.019  32.011  0.00  0.00    +0.000 C 
ATOM     10  C   UNL     1      23.397  18.123  29.915  0.00  0.00    +0.000 C 
ATOM     11  C   UNL     1      23.155  21.859  32.557  0.00  0.00    +0.000 C 
ATOM     12  C   UNL     1      24.761  20.049  28.949  0.00  0.00    +0.000 C 
ATOM     13  C   UNL     1      25.060  21.393  31.053  0.00  0.00    +0.000 C 
ATOM     14  C   UNL     1      21.833  21.360  33.127  0.00  0.00    +0.000 C 
ATOM     15  C   UNL     1      25.709  20.412  30.086  0.00  0.00    +0.000 C 
ATOM     16  C   UNL     1      20.070  18.045  31.843  0.00  0.00    +0.000 C 
ATOM     17  C   UNL     1      20.093  16.554  32.119  0.00  0.00    +0.000 C 
ATOM     18  C   UNL     1      21.829  16.321  30.306  0.00  0.00    +0.000 C 
ATOM     19  C   UNL     1      20.512  15.827  30.862  0.00  0.00    +0.000 C 
ENDROOT
TORSDOF 0
ENDMDL
