MODEL 1
REMARK VINA RESULT:      -6.3      0.000      0.000
REMARK  Name = 
REMARK  23 active torsions:
REMARK  status: ('A' for Active; 'I' for Inactive)
REMARK    1  A    between atoms: O_2  and  C_17
REMARK    2  A    between atoms: O_2  and  C_36
REMARK    3  A    between atoms: O_3  and  C_20
REMARK    4  A    between atoms: O_3  and  C_37
REMARK    5  A    between atoms: O_4  and  C_21
REMARK    6  A    between atoms: O_5  and  C_22
REMARK    7  A    between atoms: O_6  and  C_30
REMARK    8  A    between atoms: O_6  and  C_39
REMARK    9  A    between atoms: O_8  and  C_31
REMARK   10  A    between atoms: O_8  and  C_40
REMARK   11  A    between atoms: O_13  and  C_42
REMARK   12  A    between atoms: N_15  and  C_46
REMARK   13  A    between atoms: C_18  and  C_29
REMARK   14  A    between atoms: C_24  and  C_33
REMARK   15  A    between atoms: C_24  and  C_34
REMARK   16  A    between atoms: C_32  and  C_35
REMARK   17  A    between atoms: C_36  and  C_38
REMARK   18  A    between atoms: C_37  and  C_41
REMARK   19  A    between atoms: C_39  and  C_43
REMARK   20  A    between atoms: C_40  and  C_42
REMARK   21  A    between atoms: C_42  and  C_46
REMARK   22  A    between atoms: C_46  and  C_50
REMARK   23  A    between atoms: C_53  and  C_56
REMARK                            x       y       z     vdW  Elec       q    Type
REMARK                         _______ _______ _______ _____ _____    ______ ____
ROOT
ATOM      1  O   UNL     1      16.219  20.636  36.600  0.00  0.00    +0.000 OA
ATOM      2  O   UNL     1      17.474  14.347  34.774  0.00  0.00    +0.000 OA
ATOM      3  C   UNL     1      18.691  18.435  35.658  0.00  0.00    +0.000 C 
ATOM      4  C   UNL     1      17.803  19.704  35.502  0.00  0.00    +0.000 C 
ATOM      5  C   UNL     1      17.756  17.000  34.844  0.00  0.00    +0.000 C 
ATOM      6  C   UNL     1      16.629  19.247  36.461  0.00  0.00    +0.000 C 
ATOM      7  C   UNL     1      20.483  18.788  35.280  0.00  0.00    +0.000 C 
ATOM      8  C   UNL     1      22.167  17.930  35.148  0.00  0.00    +0.000 C 
ATOM      9  C   UNL     1      16.401  16.907  35.663  0.00  0.00    +0.000 C 
ATOM     10  C   UNL     1      15.649  18.255  35.879  0.00  0.00    +0.000 C 
ATOM     11  C   UNL     1      22.525  16.193  35.130  0.00  0.00    +0.000 C 
ATOM     12  C   UNL     1      17.652  20.968  36.438  0.00  0.00    +0.000 C 
ATOM     13  C   UNL     1      18.348  15.228  34.625  0.00  0.00    +0.000 C 
ATOM     14  C   UNL     1      22.756  18.344  33.722  0.00  0.00    +0.000 C 
ATOM     15  C   UNL     1      21.688  15.423  33.997  0.00  0.00    +0.000 C 
ATOM     16  C   UNL     1      17.259  17.351  33.379  0.00  0.00    +0.000 C 
ATOM     17  C   UNL     1      20.115  14.586  34.228  0.00  0.00    +0.000 C 
ATOM     18  C   UNL     1      22.550  17.343  32.497  0.00  0.00    +0.000 C 
ATOM     19  C   UNL     1      21.986  15.895  32.739  0.00  0.00    +0.000 C 
ATOM     20  C   UNL     1      24.083  16.056  34.746  0.00  0.00    +0.000 C 
ATOM     21  C   UNL     1      22.652  15.426  36.486  0.00  0.00    +0.000 C 
ATOM     22  C   UNL     1      21.548  15.184  31.483  0.00  0.00    +0.000 C 
ENDROOT
BRANCH   9  23
ATOM     23  O   UNL     1      16.675  16.372  36.957  0.00  0.00    +0.000 OA
ATOM     24  H   UNL     1      17.603  16.607  37.160  0.00  0.00    +0.000 HD
ENDBRANCH   9  23
BRANCH   8  25
ATOM     25  O   UNL     1      23.002  18.563  36.137  0.00  0.00    +0.000 OA
ATOM     26  H   UNL     1      23.499  17.874  36.613  0.00  0.00    +0.000 HD
ENDBRANCH   8  25
BRANCH  18  27
ATOM     27  O   UNL     1      21.653  17.980  31.542  0.00  0.00    +0.000 OA
BRANCH  27  29
ATOM     28  O   UNL     1      23.019  17.731  29.755  0.00  0.00    +0.000 OA
ATOM     29  C   UNL     1      22.199  18.403  30.373  0.00  0.00    +0.000 C 
BRANCH  29  30
ATOM     30  C   UNL     1      21.832  19.837  29.982  0.00  0.00    +0.000 C 
BRANCH  30  31
ATOM     31  O   UNL     1      21.789  20.097  28.574  0.00  0.00    +0.000 OA
ATOM     32  H   UNL     1      22.642  19.789  28.216  0.00  0.00    +0.000 HD
ENDBRANCH  30  31
BRANCH  30  33
ATOM     33  C   UNL     1      22.830  20.799  30.684  0.00  0.00    +0.000 C 
BRANCH  33  34
ATOM     34  C   UNL     1      22.152  22.117  31.032  0.00  0.00    +0.000 A 
ATOM     35  C   UNL     1      22.932  23.200  31.474  0.00  0.00    +0.000 A 
ATOM     36  C   UNL     1      20.759  22.279  30.958  0.00  0.00    +0.000 A 
ATOM     37  C   UNL     1      22.337  24.416  31.813  0.00  0.00    +0.000 A 
ATOM     38  C   UNL     1      20.167  23.497  31.296  0.00  0.00    +0.000 A 
ATOM     39  C   UNL     1      20.955  24.565  31.721  0.00  0.00    +0.000 A 
ENDBRANCH  33  34
BRANCH  33  41
ATOM     40  O   UNL     1      25.989  20.414  28.964  0.00  0.00    +0.000 OA
ATOM     41  N   UNL     1      24.009  21.022  29.836  0.00  0.00    +0.000 N 
ATOM     42  C   UNL     1      25.266  20.496  29.953  0.00  0.00    +0.000 C 
ATOM     43  H   UNL     1      23.803  21.383  28.909  0.00  0.00    +0.000 HD
BRANCH  42  44
ATOM     44  C   UNL     1      25.746  19.981  31.256  0.00  0.00    +0.000 A 
ATOM     45  C   UNL     1      25.951  18.615  31.469  0.00  0.00    +0.000 A 
ATOM     46  C   UNL     1      25.925  20.887  32.308  0.00  0.00    +0.000 A 
ATOM     47  C   UNL     1      26.395  18.165  32.713  0.00  0.00    +0.000 A 
ATOM     48  C   UNL     1      26.365  20.435  33.551  0.00  0.00    +0.000 A 
ATOM     49  C   UNL     1      26.608  19.075  33.749  0.00  0.00    +0.000 A 
ENDBRANCH  42  44
ENDBRANCH  33  41
ENDBRANCH  30  33
ENDBRANCH  29  30
ENDBRANCH  27  29
ENDBRANCH  18  27
BRANCH  17  50
ATOM     50  O   UNL     1      20.465  13.417  35.000  0.00  0.00    +0.000 OA
BRANCH  50  52
ATOM     51  O   UNL     1      19.560  11.414  34.574  0.00  0.00    +0.000 OA
ATOM     52  C   UNL     1      20.520  12.173  34.473  0.00  0.00    +0.000 C 
ATOM     53  C   UNL     1      21.810  11.733  33.849  0.00  0.00    +0.000 C 
ENDBRANCH  50  52
ENDBRANCH  17  50
BRANCH   7  54
ATOM     54  O   UNL     1      20.212  18.372  34.061  0.00  0.00    +0.000 OA
BRANCH  54  56
ATOM     55  O   UNL     1      19.591  19.516  32.531  0.00  0.00    +0.000 OA
ATOM     56  C   UNL     1      20.157  19.669  33.608  0.00  0.00    +0.000 C 
BRANCH  56  57
ATOM     57  C   UNL     1      21.082  21.132  34.423  0.00  0.00    +0.000 A 
ATOM     58  C   UNL     1      22.534  21.293  34.469  0.00  0.00    +0.000 A 
ATOM     59  C   UNL     1      20.514  22.321  34.974  0.00  0.00    +0.000 A 
ATOM     60  C   UNL     1      23.258  22.408  34.960  0.00  0.00    +0.000 A 
ATOM     61  C   UNL     1      21.224  23.450  35.472  0.00  0.00    +0.000 A 
ATOM     62  C   UNL     1      22.597  23.498  35.463  0.00  0.00    +0.000 A 
ENDBRANCH  56  57
ENDBRANCH  54  56
ENDBRANCH   7  54
BRANCH   4  63
ATOM     63  O   UNL     1      17.400  19.927  34.130  0.00  0.00    +0.000 OA
BRANCH  63  65
ATOM     64  O   UNL     1      15.472  20.831  33.449  0.00  0.00    +0.000 OA
ATOM     65  C   UNL     1      16.665  20.981  33.708  0.00  0.00    +0.000 C 
ATOM     66  C   UNL     1      17.339  22.290  33.449  0.00  0.00    +0.000 C 
ENDBRANCH  63  65
ENDBRANCH   4  63
TORSDOF 17
ENDMDL
MODEL 2
REMARK VINA RESULT:      -5.9     29.534     34.012
REMARK  Name = 
REMARK  23 active torsions:
REMARK  status: ('A' for Active; 'I' for Inactive)
REMARK    1  A    between atoms: O_2  and  C_17
REMARK    2  A    between atoms: O_2  and  C_36
REMARK    3  A    between atoms: O_3  and  C_20
REMARK    4  A    between atoms: O_3  and  C_37
REMARK    5  A    between atoms: O_4  and  C_21
REMARK    6  A    between atoms: O_5  and  C_22
REMARK    7  A    between atoms: O_6  and  C_30
REMARK    8  A    between atoms: O_6  and  C_39
REMARK    9  A    between atoms: O_8  and  C_31
REMARK   10  A    between atoms: O_8  and  C_40
REMARK   11  A    between atoms: O_13  and  C_42
REMARK   12  A    between atoms: N_15  and  C_46
REMARK   13  A    between atoms: C_18  and  C_29
REMARK   14  A    between atoms: C_24  and  C_33
REMARK   15  A    between atoms: C_24  and  C_34
REMARK   16  A    between atoms: C_32  and  C_35
REMARK   17  A    between atoms: C_36  and  C_38
REMARK   18  A    between atoms: C_37  and  C_41
REMARK   19  A    between atoms: C_39  and  C_43
REMARK   20  A    between atoms: C_40  and  C_42
REMARK   21  A    between atoms: C_42  and  C_46
REMARK   22  A    between atoms: C_46  and  C_50
REMARK   23  A    between atoms: C_53  and  C_56
REMARK                            x       y       z     vdW  Elec       q    Type
REMARK                         _______ _______ _______ _____ _____    ______ ____
ROOT
ATOM      1  O   UNL     1      20.978  27.916  -3.545  0.00  0.00    +0.000 OA
ATOM      2  O   UNL     1      20.082  28.225   3.055  0.00  0.00    +0.000 OA
ATOM      3  C   UNL     1      22.460  27.356  -0.490  0.00  0.00    +0.000 C 
ATOM      4  C   UNL     1      21.901  26.936  -1.881  0.00  0.00    +0.000 C 
ATOM      5  C   UNL     1      21.009  27.297   0.731  0.00  0.00    +0.000 C 
ATOM      6  C   UNL     1      20.979  28.201  -2.119  0.00  0.00    +0.000 C 
ATOM      7  C   UNL     1      24.096  26.541  -0.121  0.00  0.00    +0.000 C 
ATOM      8  C   UNL     1      25.408  26.400   1.238  0.00  0.00    +0.000 C 
ATOM      9  C   UNL     1      19.967  28.340   0.145  0.00  0.00    +0.000 C 
ATOM     10  C   UNL     1      19.662  28.206  -1.378  0.00  0.00    +0.000 C 
ATOM     11  C   UNL     1      25.311  26.928   2.928  0.00  0.00    +0.000 C 
ATOM     12  C   UNL     1      22.339  27.375  -3.334  0.00  0.00    +0.000 C 
ATOM     13  C   UNL     1      21.063  27.609   2.585  0.00  0.00    +0.000 C 
ATOM     14  C   UNL     1      25.643  24.835   1.455  0.00  0.00    +0.000 C 
ATOM     15  C   UNL     1      24.022  26.324   3.670  0.00  0.00    +0.000 C 
ATOM     16  C   UNL     1      20.212  25.928   0.663  0.00  0.00    +0.000 C 
ATOM     17  C   UNL     1      22.428  27.134   3.850  0.00  0.00    +0.000 C 
ATOM     18  C   UNL     1      24.856  24.107   2.636  0.00  0.00    +0.000 C 
ATOM     19  C   UNL     1      24.051  24.949   3.693  0.00  0.00    +0.000 C 
ATOM     20  C   UNL     1      26.610  26.326   3.666  0.00  0.00    +0.000 C 
ATOM     21  C   UNL     1      25.633  28.416   3.282  0.00  0.00    +0.000 C 
ATOM     22  C   UNL     1      23.110  24.133   4.545  0.00  0.00    +0.000 C 
ENDROOT
BRANCH   9  23
ATOM     23  O   UNL     1      20.464  29.662   0.354  0.00  0.00    +0.000 OA
ATOM     24  H   UNL     1      21.366  29.562   0.721  0.00  0.00    +0.000 HD
ENDBRANCH   9  23
BRANCH   8  25
ATOM     25  O   UNL     1      26.620  26.922   0.661  0.00  0.00    +0.000 OA
ATOM     26  H   UNL     1      27.149  26.179   0.319  0.00  0.00    +0.000 HD
ENDBRANCH   8  25
BRANCH  18  27
ATOM     27  O   UNL     1      23.904  23.179   2.037  0.00  0.00    +0.000 OA
BRANCH  27  29
ATOM     28  O   UNL     1      25.159  21.607   1.001  0.00  0.00    +0.000 OA
ATOM     29  C   UNL     1      24.325  21.902   1.851  0.00  0.00    +0.000 C 
BRANCH  29  30
ATOM     30  C   UNL     1      23.562  20.856   2.670  0.00  0.00    +0.000 C 
BRANCH  30  31
ATOM     31  O   UNL     1      24.304  19.678   3.002  0.00  0.00    +0.000 OA
ATOM     32  H   UNL     1      25.179  19.782   2.585  0.00  0.00    +0.000 HD
ENDBRANCH  30  31
BRANCH  30  33
ATOM     33  C   UNL     1      22.269  20.485   1.892  0.00  0.00    +0.000 C 
BRANCH  33  34
ATOM     34  C   UNL     1      21.260  19.816   2.816  0.00  0.00    +0.000 A 
ATOM     35  C   UNL     1      20.293  20.601   3.467  0.00  0.00    +0.000 A 
ATOM     36  C   UNL     1      21.283  18.435   3.068  0.00  0.00    +0.000 A 
ATOM     37  C   UNL     1      19.364  20.018   4.329  0.00  0.00    +0.000 A 
ATOM     38  C   UNL     1      20.352  17.854   3.930  0.00  0.00    +0.000 A 
ATOM     39  C   UNL     1      19.392  18.645   4.558  0.00  0.00    +0.000 A 
ENDBRANCH  33  34
BRANCH  33  41
ATOM     40  O   UNL     1      22.891  19.239  -1.445  0.00  0.00    +0.000 OA
ATOM     41  N   UNL     1      22.588  19.621   0.748  0.00  0.00    +0.000 N 
ATOM     42  C   UNL     1      22.211  19.750  -0.561  0.00  0.00    +0.000 C 
ATOM     43  H   UNL     1      23.397  19.022   0.882  0.00  0.00    +0.000 HD
BRANCH  42  44
ATOM     44  C   UNL     1      21.014  20.543  -0.922  0.00  0.00    +0.000 A 
ATOM     45  C   UNL     1      20.298  20.288  -2.095  0.00  0.00    +0.000 A 
ATOM     46  C   UNL     1      20.647  21.613  -0.097  0.00  0.00    +0.000 A 
ATOM     47  C   UNL     1      19.180  21.062  -2.409  0.00  0.00    +0.000 A 
ATOM     48  C   UNL     1      19.531  22.387  -0.415  0.00  0.00    +0.000 A 
ATOM     49  C   UNL     1      18.794  22.105  -1.565  0.00  0.00    +0.000 A 
ENDBRANCH  42  44
ENDBRANCH  33  41
ENDBRANCH  30  33
ENDBRANCH  29  30
ENDBRANCH  27  29
ENDBRANCH  18  27
BRANCH  17  50
ATOM     50  O   UNL     1      22.690  28.186   4.803  0.00  0.00    +0.000 OA
BRANCH  50  52
ATOM     51  O   UNL     1      21.469  27.271   6.441  0.00  0.00    +0.000 OA
ATOM     52  C   UNL     1      22.227  28.164   6.074  0.00  0.00    +0.000 C 
ATOM     53  C   UNL     1      22.596  29.304   6.975  0.00  0.00    +0.000 C 
ENDBRANCH  50  52
ENDBRANCH  17  50
BRANCH   7  54
ATOM     54  O   UNL     1      23.392  25.625   0.509  0.00  0.00    +0.000 OA
BRANCH  54  56
ATOM     55  O   UNL     1      22.690  23.923  -0.296  0.00  0.00    +0.000 OA
ATOM     56  C   UNL     1      23.572  24.743  -0.530  0.00  0.00    +0.000 C 
BRANCH  56  57
ATOM     57  C   UNL     1      25.072  24.772  -1.718  0.00  0.00    +0.000 A 
ATOM     58  C   UNL     1      26.108  23.744  -1.796  0.00  0.00    +0.000 A 
ATOM     59  C   UNL     1      25.330  25.704  -2.769  0.00  0.00    +0.000 A 
ATOM     60  C   UNL     1      27.171  23.666  -2.730  0.00  0.00    +0.000 A 
ATOM     61  C   UNL     1      26.392  25.644  -3.715  0.00  0.00    +0.000 A 
ATOM     62  C   UNL     1      27.312  24.624  -3.701  0.00  0.00    +0.000 A 
ENDBRANCH  56  57
ENDBRANCH  54  56
ENDBRANCH   7  54
BRANCH   4  63
ATOM     63  O   UNL     1      21.187  25.678  -1.829  0.00  0.00    +0.000 OA
BRANCH  63  65
ATOM     64  O   UNL     1      19.621  25.099  -3.315  0.00  0.00    +0.000 OA
ATOM     65  C   UNL     1      20.777  24.983  -2.914  0.00  0.00    +0.000 C 
ATOM     66  C   UNL     1      21.702  23.991  -3.543  0.00  0.00    +0.000 C 
ENDBRANCH  63  65
ENDBRANCH   4  63
TORSDOF 17
ENDMDL
MODEL 3
REMARK VINA RESULT:      -5.8     27.850     31.901
REMARK  Name = 
REMARK  23 active torsions:
REMARK  status: ('A' for Active; 'I' for Inactive)
REMARK    1  A    between atoms: O_2  and  C_17
REMARK    2  A    between atoms: O_2  and  C_36
REMARK    3  A    between atoms: O_3  and  C_20
REMARK    4  A    between atoms: O_3  and  C_37
REMARK    5  A    between atoms: O_4  and  C_21
REMARK    6  A    between atoms: O_5  and  C_22
REMARK    7  A    between atoms: O_6  and  C_30
REMARK    8  A    between atoms: O_6  and  C_39
REMARK    9  A    between atoms: O_8  and  C_31
REMARK   10  A    between atoms: O_8  and  C_40
REMARK   11  A    between atoms: O_13  and  C_42
REMARK   12  A    between atoms: N_15  and  C_46
REMARK   13  A    between atoms: C_18  and  C_29
REMARK   14  A    between atoms: C_24  and  C_33
REMARK   15  A    between atoms: C_24  and  C_34
REMARK   16  A    between atoms: C_32  and  C_35
REMARK   17  A    between atoms: C_36  and  C_38
REMARK   18  A    between atoms: C_37  and  C_41
REMARK   19  A    between atoms: C_39  and  C_43
REMARK   20  A    between atoms: C_40  and  C_42
REMARK   21  A    between atoms: C_42  and  C_46
REMARK   22  A    between atoms: C_46  and  C_50
REMARK   23  A    between atoms: C_53  and  C_56
REMARK                            x       y       z     vdW  Elec       q    Type
REMARK                         _______ _______ _______ _____ _____    ______ ____
ROOT
ATOM      1  O   UNL     1      29.419 -10.673  19.994  0.00  0.00    +0.000 OA
ATOM      2  O   UNL     1      26.984 -10.751  13.787  0.00  0.00    +0.000 OA
ATOM      3  C   UNL     1      28.561  -8.712  17.300  0.00  0.00    +0.000 C 
ATOM      4  C   UNL     1      28.447  -9.211  18.770  0.00  0.00    +0.000 C 
ATOM      5  C   UNL     1      27.440  -9.825  16.248  0.00  0.00    +0.000 C 
ATOM      6  C   UNL     1      29.160 -10.610  18.564  0.00  0.00    +0.000 C 
ATOM      7  C   UNL     1      28.492  -6.852  17.187  0.00  0.00    +0.000 C 
ATOM      8  C   UNL     1      28.492  -5.443  15.922  0.00  0.00    +0.000 C 
ATOM      9  C   UNL     1      28.037 -11.280  16.452  0.00  0.00    +0.000 C 
ATOM     10  C   UNL     1      28.318 -11.693  17.929  0.00  0.00    +0.000 C 
ATOM     11  C   UNL     1      28.298  -5.537  14.161  0.00  0.00    +0.000 C 
ATOM     12  C   UNL     1      29.508  -9.198  19.940  0.00  0.00    +0.000 C 
ATOM     13  C   UNL     1      27.078  -9.670  14.409  0.00  0.00    +0.000 C 
ATOM     14  C   UNL     1      27.231  -4.532  16.285  0.00  0.00    +0.000 C 
ATOM     15  C   UNL     1      26.966  -6.332  13.749  0.00  0.00    +0.000 C 
ATOM     16  C   UNL     1      25.978  -9.956  16.848  0.00  0.00    +0.000 C 
ATOM     17  C   UNL     1      26.858  -8.082  13.351  0.00  0.00    +0.000 C 
ATOM     18  C   UNL     1      25.869  -4.768  15.490  0.00  0.00    +0.000 C 
ATOM     19  C   UNL     1      25.837  -5.712  14.232  0.00  0.00    +0.000 C 
ATOM     20  C   UNL     1      28.126  -4.021  13.643  0.00  0.00    +0.000 C 
ATOM     21  C   UNL     1      29.546  -5.844  13.271  0.00  0.00    +0.000 C 
ATOM     22  C   UNL     1      24.448  -6.092  13.780  0.00  0.00    +0.000 C 
ENDROOT
BRANCH   9  23
ATOM     23  O   UNL     1      29.277 -11.377  15.751  0.00  0.00    +0.000 OA
ATOM     24  H   UNL     1      29.067 -11.252  14.804  0.00  0.00    +0.000 HD
ENDBRANCH   9  23
BRANCH   8  25
ATOM     25  O   UNL     1      29.664  -4.659  16.215  0.00  0.00    +0.000 OA
ATOM     26  H   UNL     1      29.541  -3.764  15.854  0.00  0.00    +0.000 HD
ENDBRANCH   8  25
BRANCH  18  27
ATOM     27  O   UNL     1      24.887  -5.298  16.428  0.00  0.00    +0.000 OA
BRANCH  27  29
ATOM     28  O   UNL     1      22.778  -4.972  17.180  0.00  0.00    +0.000 OA
ATOM     29  C   UNL     1      23.807  -4.518  16.691  0.00  0.00    +0.000 C 
BRANCH  29  30
ATOM     30  C   UNL     1      23.925  -3.077  16.183  0.00  0.00    +0.000 C 
BRANCH  30  31
ATOM     31  O   UNL     1      23.419  -2.072  17.069  0.00  0.00    +0.000 OA
ATOM     32  H   UNL     1      23.288  -2.512  17.930  0.00  0.00    +0.000 HD
ENDBRANCH  30  31
BRANCH  30  33
ATOM     33  C   UNL     1      23.217  -2.993  14.803  0.00  0.00    +0.000 C 
BRANCH  33  34
ATOM     34  C   UNL     1      23.948  -2.025  13.883  0.00  0.00    +0.000 A 
ATOM     35  C   UNL     1      23.418  -0.741  13.669  0.00  0.00    +0.000 A 
ATOM     36  C   UNL     1      25.127  -2.384  13.210  0.00  0.00    +0.000 A 
ATOM     37  C   UNL     1      24.058   0.164  12.821  0.00  0.00    +0.000 A 
ATOM     38  C   UNL     1      25.767  -1.477  12.364  0.00  0.00    +0.000 A 
ATOM     39  C   UNL     1      25.234  -0.204  12.171  0.00  0.00    +0.000 A 
ENDBRANCH  33  34
BRANCH  33  41
ATOM     40  O   UNL     1      19.611  -3.042  15.071  0.00  0.00    +0.000 OA
ATOM     41  N   UNL     1      21.812  -2.600  14.970  0.00  0.00    +0.000 N 
ATOM     42  C   UNL     1      20.684  -3.215  14.500  0.00  0.00    +0.000 C 
ATOM     43  H   UNL     1      21.638  -1.965  15.744  0.00  0.00    +0.000 HD
BRANCH  42  44
ATOM     44  C   UNL     1      20.755  -4.127  13.336  0.00  0.00    +0.000 A 
ATOM     45  C   UNL     1      20.676  -5.515  13.491  0.00  0.00    +0.000 A 
ATOM     46  C   UNL     1      20.978  -3.577  12.069  0.00  0.00    +0.000 A 
ATOM     47  C   UNL     1      20.758  -6.344  12.371  0.00  0.00    +0.000 A 
ATOM     48  C   UNL     1      21.062  -4.408  10.952  0.00  0.00    +0.000 A 
ATOM     49  C   UNL     1      20.942  -5.790  11.104  0.00  0.00    +0.000 A 
ENDBRANCH  42  44
ENDBRANCH  33  41
ENDBRANCH  30  33
ENDBRANCH  29  30
ENDBRANCH  27  29
ENDBRANCH  18  27
BRANCH  17  50
ATOM     50  O   UNL     1      27.512  -8.177  12.067  0.00  0.00    +0.000 OA
BRANCH  50  52
ATOM     51  O   UNL     1      26.403  -7.326  10.319  0.00  0.00    +0.000 OA
ATOM     52  C   UNL     1      26.838  -8.314  10.903  0.00  0.00    +0.000 C 
ATOM     53  C   UNL     1      26.569  -9.703  10.408  0.00  0.00    +0.000 C 
ENDBRANCH  50  52
ENDBRANCH  17  50
BRANCH   7  54
ATOM     54  O   UNL     1      27.203  -7.005  16.969  0.00  0.00    +0.000 OA
BRANCH  54  56
ATOM     55  O   UNL     1      28.033  -6.209  18.617  0.00  0.00    +0.000 OA
ATOM     56  C   UNL     1      26.912  -6.504  18.216  0.00  0.00    +0.000 C 
BRANCH  56  57
ATOM     57  C   UNL     1      25.197  -6.640  19.055  0.00  0.00    +0.000 A 
ATOM     58  C   UNL     1      24.191  -7.658  18.760  0.00  0.00    +0.000 A 
ATOM     59  C   UNL     1      24.707  -5.876  20.157  0.00  0.00    +0.000 A 
ATOM     60  C   UNL     1      22.960  -7.866  19.430  0.00  0.00    +0.000 A 
ATOM     61  C   UNL     1      23.473  -6.068  20.842  0.00  0.00    +0.000 A 
ATOM     62  C   UNL     1      22.599  -7.065  20.482  0.00  0.00    +0.000 A 
ENDBRANCH  56  57
ENDBRANCH  54  56
ENDBRANCH   7  54
BRANCH   4  63
ATOM     63  O   UNL     1      27.072  -9.302  19.214  0.00  0.00    +0.000 OA
BRANCH  63  65
ATOM     64  O   UNL     1      26.191 -10.730  20.691  0.00  0.00    +0.000 OA
ATOM     65  C   UNL     1      26.692  -9.629  20.469  0.00  0.00    +0.000 C 
ATOM     66  C   UNL     1      26.776  -8.603  21.554  0.00  0.00    +0.000 C 
ENDBRANCH  63  65
ENDBRANCH   4  63
TORSDOF 17
ENDMDL
MODEL 4
REMARK VINA RESULT:      -5.8     26.696     31.194
REMARK  Name = 
REMARK  23 active torsions:
REMARK  status: ('A' for Active; 'I' for Inactive)
REMARK    1  A    between atoms: O_2  and  C_17
REMARK    2  A    between atoms: O_2  and  C_36
REMARK    3  A    between atoms: O_3  and  C_20
REMARK    4  A    between atoms: O_3  and  C_37
REMARK    5  A    between atoms: O_4  and  C_21
REMARK    6  A    between atoms: O_5  and  C_22
REMARK    7  A    between atoms: O_6  and  C_30
REMARK    8  A    between atoms: O_6  and  C_39
REMARK    9  A    between atoms: O_8  and  C_31
REMARK   10  A    between atoms: O_8  and  C_40
REMARK   11  A    between atoms: O_13  and  C_42
REMARK   12  A    between atoms: N_15  and  C_46
REMARK   13  A    between atoms: C_18  and  C_29
REMARK   14  A    between atoms: C_24  and  C_33
REMARK   15  A    between atoms: C_24  and  C_34
REMARK   16  A    between atoms: C_32  and  C_35
REMARK   17  A    between atoms: C_36  and  C_38
REMARK   18  A    between atoms: C_37  and  C_41
REMARK   19  A    between atoms: C_39  and  C_43
REMARK   20  A    between atoms: C_40  and  C_42
REMARK   21  A    between atoms: C_42  and  C_46
REMARK   22  A    between atoms: C_46  and  C_50
REMARK   23  A    between atoms: C_53  and  C_56
REMARK                            x       y       z     vdW  Elec       q    Type
REMARK                         _______ _______ _______ _____ _____    ______ ____
ROOT
ATOM      1  O   UNL     1      16.664  -2.473  13.103  0.00  0.00    +0.000 OA
ATOM      2  O   UNL     1      20.039  -4.616  18.439  0.00  0.00    +0.000 OA
ATOM      3  C   UNL     1      19.798  -2.811  14.482  0.00  0.00    +0.000 C 
ATOM      4  C   UNL     1      18.690  -3.083  13.422  0.00  0.00    +0.000 C 
ATOM      5  C   UNL     1      19.566  -4.087  15.866  0.00  0.00    +0.000 C 
ATOM      6  C   UNL     1      17.452  -2.655  14.312  0.00  0.00    +0.000 C 
ATOM      7  C   UNL     1      21.459  -2.502  13.690  0.00  0.00    +0.000 C 
ATOM      8  C   UNL     1      23.271  -2.169  14.130  0.00  0.00    +0.000 C 
ATOM      9  C   UNL     1      18.106  -3.801  16.416  0.00  0.00    +0.000 C 
ATOM     10  C   UNL     1      16.992  -3.669  15.334  0.00  0.00    +0.000 C 
ATOM     11  C   UNL     1      24.070  -2.306  15.707  0.00  0.00    +0.000 C 
ATOM     12  C   UNL     1      17.936  -2.089  12.453  0.00  0.00    +0.000 C 
ATOM     13  C   UNL     1      20.649  -4.334  17.385  0.00  0.00    +0.000 C 
ATOM     14  C   UNL     1      24.123  -3.237  13.301  0.00  0.00    +0.000 C 
ATOM     15  C   UNL     1      23.845  -3.752  16.367  0.00  0.00    +0.000 C 
ATOM     16  C   UNL     1      19.451  -5.569  15.315  0.00  0.00    +0.000 C 
ATOM     17  C   UNL     1      22.558  -4.190  17.544  0.00  0.00    +0.000 C 
ATOM     18  C   UNL     1      24.566  -4.585  14.030  0.00  0.00    +0.000 C 
ATOM     19  C   UNL     1      24.364  -4.753  15.581  0.00  0.00    +0.000 C 
ATOM     20  C   UNL     1      25.649  -2.150  15.430  0.00  0.00    +0.000 C 
ATOM     21  C   UNL     1      23.990  -1.109  16.709  0.00  0.00    +0.000 C 
ATOM     22  C   UNL     1      24.525  -6.169  16.074  0.00  0.00    +0.000 C 
ENDROOT
BRANCH   9  23
ATOM     23  O   UNL     1      18.117  -2.578  17.152  0.00  0.00    +0.000 OA
ATOM     24  H   UNL     1      19.055  -2.305  17.218  0.00  0.00    +0.000 HD
ENDBRANCH   9  23
BRANCH   8  25
ATOM     25  O   UNL     1      23.574  -0.877  13.569  0.00  0.00    +0.000 OA
ATOM     26  H   UNL     1      24.524  -0.701  13.686  0.00  0.00    +0.000 HD
ENDBRANCH   8  25
BRANCH  18  27
ATOM     27  O   UNL     1      23.855  -5.691  13.400  0.00  0.00    +0.000 OA
BRANCH  27  29
ATOM     28  O   UNL     1      24.215  -7.870  12.908  0.00  0.00    +0.000 OA
ATOM     29  C   UNL     1      24.610  -6.709  12.913  0.00  0.00    +0.000 C 
BRANCH  29  30
ATOM     30  C   UNL     1      26.039  -6.311  12.529  0.00  0.00    +0.000 C 
BRANCH  30  31
ATOM     31  O   UNL     1      26.513  -6.852  11.290  0.00  0.00    +0.000 OA
ATOM     32  H   UNL     1      27.398  -6.467  11.148  0.00  0.00    +0.000 HD
ENDBRANCH  30  31
BRANCH  30  33
ATOM     33  C   UNL     1      26.982  -6.714  13.696  0.00  0.00    +0.000 C 
BRANCH  33  34
ATOM     34  C   UNL     1      28.129  -5.722  13.826  0.00  0.00    +0.000 A 
ATOM     35  C   UNL     1      29.079  -5.623  12.794  0.00  0.00    +0.000 A 
ATOM     36  C   UNL     1      28.291  -4.917  14.965  0.00  0.00    +0.000 A 
ATOM     37  C   UNL     1      30.148  -4.732  12.891  0.00  0.00    +0.000 A 
ATOM     38  C   UNL     1      29.360  -4.025  15.059  0.00  0.00    +0.000 A 
ATOM     39  C   UNL     1      30.287  -3.931  14.022  0.00  0.00    +0.000 A 
ENDBRANCH  33  34
BRANCH  33  41
ATOM     40  O   UNL     1      27.412 -10.304  13.808  0.00  0.00    +0.000 OA
ATOM     41  N   UNL     1      27.488  -8.079  13.498  0.00  0.00    +0.000 N 
ATOM     42  C   UNL     1      27.330  -9.180  14.295  0.00  0.00    +0.000 C 
ATOM     43  H   UNL     1      27.745  -8.302  12.541  0.00  0.00    +0.000 HD
BRANCH  42  44
ATOM     44  C   UNL     1      27.014  -9.026  15.733  0.00  0.00    +0.000 A 
ATOM     45  C   UNL     1      25.841  -9.554  16.282  0.00  0.00    +0.000 A 
ATOM     46  C   UNL     1      27.882  -8.273  16.532  0.00  0.00    +0.000 A 
ATOM     47  C   UNL     1      25.571  -9.381  17.641  0.00  0.00    +0.000 A 
ATOM     48  C   UNL     1      27.608  -8.099  17.888  0.00  0.00    +0.000 A 
ATOM     49  C   UNL     1      26.457  -8.661  18.443  0.00  0.00    +0.000 A 
ENDBRANCH  42  44
ENDBRANCH  33  41
ENDBRANCH  30  33
ENDBRANCH  29  30
ENDBRANCH  27  29
ENDBRANCH  18  27
BRANCH  17  50
ATOM     50  O   UNL     1      22.963  -3.515  18.754  0.00  0.00    +0.000 OA
BRANCH  50  52
ATOM     51  O   UNL     1      23.512  -3.566  20.923  0.00  0.00    +0.000 OA
ATOM     52  C   UNL     1      23.368  -4.171  19.865  0.00  0.00    +0.000 C 
ATOM     53  C   UNL     1      23.714  -5.624  19.734  0.00  0.00    +0.000 C 
ENDBRANCH  50  52
ENDBRANCH  17  50
BRANCH   7  54
ATOM     54  O   UNL     1      21.682  -3.786  13.877  0.00  0.00    +0.000 OA
BRANCH  54  56
ATOM     55  O   UNL     1      21.477  -2.875  12.098  0.00  0.00    +0.000 OA
ATOM     56  C   UNL     1      21.600  -4.018  12.525  0.00  0.00    +0.000 C 
BRANCH  56  57
ATOM     57  C   UNL     1      21.397  -5.753  11.742  0.00  0.00    +0.000 A 
ATOM     58  C   UNL     1      20.888  -6.936  12.432  0.00  0.00    +0.000 A 
ATOM     59  C   UNL     1      21.579  -6.115  10.373  0.00  0.00    +0.000 A 
ATOM     60  C   UNL     1      20.616  -8.207  11.868  0.00  0.00    +0.000 A 
ATOM     61  C   UNL     1      21.313  -7.385   9.788  0.00  0.00    +0.000 A 
ATOM     62  C   UNL     1      20.828  -8.433  10.533  0.00  0.00    +0.000 A 
ENDBRANCH  56  57
ENDBRANCH  54  56
ENDBRANCH   7  54
BRANCH   4  63
ATOM     63  O   UNL     1      18.668  -4.464  12.993  0.00  0.00    +0.000 OA
BRANCH  63  65
ATOM     64  O   UNL     1      16.788  -5.588  12.543  0.00  0.00    +0.000 OA
ATOM     65  C   UNL     1      17.773  -4.983  12.122  0.00  0.00    +0.000 C 
ATOM     66  C   UNL     1      18.052  -4.916  10.655  0.00  0.00    +0.000 C 
ENDBRANCH  63  65
ENDBRANCH   4  63
TORSDOF 17
ENDMDL
MODEL 5
REMARK VINA RESULT:      -5.7      2.724      7.534
REMARK  Name = 
REMARK  23 active torsions:
REMARK  status: ('A' for Active; 'I' for Inactive)
REMARK    1  A    between atoms: O_2  and  C_17
REMARK    2  A    between atoms: O_2  and  C_36
REMARK    3  A    between atoms: O_3  and  C_20
REMARK    4  A    between atoms: O_3  and  C_37
REMARK    5  A    between atoms: O_4  and  C_21
REMARK    6  A    between atoms: O_5  and  C_22
REMARK    7  A    between atoms: O_6  and  C_30
REMARK    8  A    between atoms: O_6  and  C_39
REMARK    9  A    between atoms: O_8  and  C_31
REMARK   10  A    between atoms: O_8  and  C_40
REMARK   11  A    between atoms: O_13  and  C_42
REMARK   12  A    between atoms: N_15  and  C_46
REMARK   13  A    between atoms: C_18  and  C_29
REMARK   14  A    between atoms: C_24  and  C_33
REMARK   15  A    between atoms: C_24  and  C_34
REMARK   16  A    between atoms: C_32  and  C_35
REMARK   17  A    between atoms: C_36  and  C_38
REMARK   18  A    between atoms: C_37  and  C_41
REMARK   19  A    between atoms: C_39  and  C_43
REMARK   20  A    between atoms: C_40  and  C_42
REMARK   21  A    between atoms: C_42  and  C_46
REMARK   22  A    between atoms: C_46  and  C_50
REMARK   23  A    between atoms: C_53  and  C_56
REMARK                            x       y       z     vdW  Elec       q    Type
REMARK                         _______ _______ _______ _____ _____    ______ ____
ROOT
ATOM      1  O   UNL     1      22.983  26.465  32.852  0.00  0.00    +0.000 OA
ATOM      2  O   UNL     1      26.376  21.298  35.351  0.00  0.00    +0.000 OA
ATOM      3  C   UNL     1      23.752  23.142  32.402  0.00  0.00    +0.000 C 
ATOM      4  C   UNL     1      22.795  24.342  32.659  0.00  0.00    +0.000 C 
ATOM      5  C   UNL     1      24.400  22.577  34.094  0.00  0.00    +0.000 C 
ATOM      6  C   UNL     1      23.890  25.370  33.158  0.00  0.00    +0.000 C 
ATOM      7  C   UNL     1      23.047  21.940  31.163  0.00  0.00    +0.000 C 
ATOM      8  C   UNL     1      23.423  20.283  30.326  0.00  0.00    +0.000 C 
ATOM      9  C   UNL     1      25.150  23.852  34.666  0.00  0.00    +0.000 C 
ATOM     10  C   UNL     1      24.361  25.193  34.584  0.00  0.00    +0.000 C 
ATOM     11  C   UNL     1      24.676  19.095  30.735  0.00  0.00    +0.000 C 
ATOM     12  C   UNL     1      22.473  25.603  31.763  0.00  0.00    +0.000 C 
ATOM     13  C   UNL     1      25.523  21.112  34.457  0.00  0.00    +0.000 C 
ATOM     14  C   UNL     1      22.119  19.384  30.535  0.00  0.00    +0.000 C 
ATOM     15  C   UNL     1      24.605  18.662  32.279  0.00  0.00    +0.000 C 
ATOM     16  C   UNL     1      23.236  22.352  35.146  0.00  0.00    +0.000 C 
ATOM     17  C   UNL     1      25.555  19.380  33.625  0.00  0.00    +0.000 C 
ATOM     18  C   UNL     1      22.093  18.356  31.755  0.00  0.00    +0.000 C 
ATOM     19  C   UNL     1      23.399  18.075  32.585  0.00  0.00    +0.000 C 
ATOM     20  C   UNL     1      24.359  17.782  29.858  0.00  0.00    +0.000 C 
ATOM     21  C   UNL     1      26.122  19.288  30.174  0.00  0.00    +0.000 C 
ATOM     22  C   UNL     1      23.161  17.343  33.883  0.00  0.00    +0.000 C 
ENDROOT
BRANCH   9  23
ATOM     23  O   UNL     1      26.366  24.040  33.942  0.00  0.00    +0.000 OA
ATOM     24  H   UNL     1      26.212  23.676  33.047  0.00  0.00    +0.000 HD
ENDBRANCH   9  23
BRANCH   8  25
ATOM     25  O   UNL     1      23.503  20.570  28.917  0.00  0.00    +0.000 OA
ATOM     26  H   UNL     1      24.153  19.969  28.511  0.00  0.00    +0.000 HD
ENDBRANCH   8  25
BRANCH  18  27
ATOM     27  O   UNL     1      21.090  18.813  32.707  0.00  0.00    +0.000 OA
BRANCH  27  29
ATOM     28  O   UNL     1      18.869  18.706  33.129  0.00  0.00    +0.000 OA
ATOM     29  C   UNL     1      19.885  18.187  32.679  0.00  0.00    +0.000 C 
BRANCH  29  30
ATOM     30  C   UNL     1      19.936  16.735  32.193  0.00  0.00    +0.000 C 
BRANCH  30  31
ATOM     31  O   UNL     1      18.720  16.237  31.624  0.00  0.00    +0.000 OA
ATOM     32  H   UNL     1      18.212  15.855  32.364  0.00  0.00    +0.000 HD
ENDBRANCH  30  31
BRANCH  30  33
ATOM     33  C   UNL     1      20.386  15.843  33.383  0.00  0.00    +0.000 C 
BRANCH  33  34
ATOM     34  C   UNL     1      20.999  14.544  32.879  0.00  0.00    +0.000 A 
ATOM     35  C   UNL     1      20.972  13.404  33.701  0.00  0.00    +0.000 A 
ATOM     36  C   UNL     1      21.622  14.452  31.625  0.00  0.00    +0.000 A 
ATOM     37  C   UNL     1      21.537  12.202  33.272  0.00  0.00    +0.000 A 
ATOM     38  C   UNL     1      22.185  13.249  31.197  0.00  0.00    +0.000 A 
ATOM     39  C   UNL     1      22.140  12.124  32.019  0.00  0.00    +0.000 A 
ENDBRANCH  33  34
BRANCH  33  41
ATOM     40  O   UNL     1      17.845  16.138  35.940  0.00  0.00    +0.000 OA
ATOM     41  N   UNL     1      19.255  15.578  34.282  0.00  0.00    +0.000 N 
ATOM     42  C   UNL     1      18.998  16.101  35.520  0.00  0.00    +0.000 C 
ATOM     43  H   UNL     1      18.438  15.181  33.829  0.00  0.00    +0.000 HD
BRANCH  42  44
ATOM     44  C   UNL     1      20.094  16.667  36.339  0.00  0.00    +0.000 A 
ATOM     45  C   UNL     1      20.353  18.041  36.361  0.00  0.00    +0.000 A 
ATOM     46  C   UNL     1      20.924  15.787  37.044  0.00  0.00    +0.000 A 
ATOM     47  C   UNL     1      21.402  18.537  37.137  0.00  0.00    +0.000 A 
ATOM     48  C   UNL     1      21.972  16.286  37.816  0.00  0.00    +0.000 A 
ATOM     49  C   UNL     1      22.204  17.661  37.869  0.00  0.00    +0.000 A 
ENDBRANCH  42  44
ENDBRANCH  33  41
ENDBRANCH  30  33
ENDBRANCH  29  30
ENDBRANCH  27  29
ENDBRANCH  18  27
BRANCH  17  50
ATOM     50  O   UNL     1      26.898  18.909  33.381  0.00  0.00    +0.000 OA
BRANCH  50  52
ATOM     51  O   UNL     1      26.977  17.488  35.108  0.00  0.00    +0.000 OA
ATOM     52  C   UNL     1      27.579  18.134  34.255  0.00  0.00    +0.000 C 
ATOM     53  C   UNL     1      29.077  18.165  34.200  0.00  0.00    +0.000 C 
ENDBRANCH  50  52
ENDBRANCH  17  50
BRANCH   7  54
ATOM     54  O   UNL     1      22.595  21.275  32.204  0.00  0.00    +0.000 OA
BRANCH  54  56
ATOM     55  O   UNL     1      21.439  22.138  30.806  0.00  0.00    +0.000 OA
ATOM     56  C   UNL     1      21.313  21.699  31.945  0.00  0.00    +0.000 C 
BRANCH  56  57
ATOM     57  C   UNL     1      19.929  21.810  33.262  0.00  0.00    +0.000 A 
ATOM     58  C   UNL     1      18.552  22.229  33.007  0.00  0.00    +0.000 A 
ATOM     59  C   UNL     1      19.990  21.386  34.624  0.00  0.00    +0.000 A 
ATOM     60  C   UNL     1      17.470  22.219  33.922  0.00  0.00    +0.000 A 
ATOM     61  C   UNL     1      18.916  21.370  35.558  0.00  0.00    +0.000 A 
ATOM     62  C   UNL     1      17.652  21.784  35.208  0.00  0.00    +0.000 A 
ENDBRANCH  56  57
ENDBRANCH  54  56
ENDBRANCH   7  54
BRANCH   4  63
ATOM     63  O   UNL     1      21.776  24.032  33.639  0.00  0.00    +0.000 OA
BRANCH  63  65
ATOM     64  O   UNL     1      19.977  25.282  33.195  0.00  0.00    +0.000 OA
ATOM     65  C   UNL     1      20.795  24.880  34.020  0.00  0.00    +0.000 C 
ATOM     66  C   UNL     1      20.786  25.413  35.417  0.00  0.00    +0.000 C 
ENDBRANCH  63  65
ENDBRANCH   4  63
TORSDOF 17
ENDMDL
MODEL 6
REMARK VINA RESULT:      -5.6      2.324      6.651
REMARK  Name = 
REMARK  23 active torsions:
REMARK  status: ('A' for Active; 'I' for Inactive)
REMARK    1  A    between atoms: O_2  and  C_17
REMARK    2  A    between atoms: O_2  and  C_36
REMARK    3  A    between atoms: O_3  and  C_20
REMARK    4  A    between atoms: O_3  and  C_37
REMARK    5  A    between atoms: O_4  and  C_21
REMARK    6  A    between atoms: O_5  and  C_22
REMARK    7  A    between atoms: O_6  and  C_30
REMARK    8  A    between atoms: O_6  and  C_39
REMARK    9  A    between atoms: O_8  and  C_31
REMARK   10  A    between atoms: O_8  and  C_40
REMARK   11  A    between atoms: O_13  and  C_42
REMARK   12  A    between atoms: N_15  and  C_46
REMARK   13  A    between atoms: C_18  and  C_29
REMARK   14  A    between atoms: C_24  and  C_33
REMARK   15  A    between atoms: C_24  and  C_34
REMARK   16  A    between atoms: C_32  and  C_35
REMARK   17  A    between atoms: C_36  and  C_38
REMARK   18  A    between atoms: C_37  and  C_41
REMARK   19  A    between atoms: C_39  and  C_43
REMARK   20  A    between atoms: C_40  and  C_42
REMARK   21  A    between atoms: C_42  and  C_46
REMARK   22  A    between atoms: C_46  and  C_50
REMARK   23  A    between atoms: C_53  and  C_56
REMARK                            x       y       z     vdW  Elec       q    Type
REMARK                         _______ _______ _______ _____ _____    ______ ____
ROOT
ATOM      1  O   UNL     1      21.921  10.428  35.489  0.00  0.00    +0.000 OA
ATOM      2  O   UNL     1      24.080  15.972  38.499  0.00  0.00    +0.000 OA
ATOM      3  C   UNL     1      21.005  13.564  36.569  0.00  0.00    +0.000 C 
ATOM      4  C   UNL     1      21.250  12.460  35.499  0.00  0.00    +0.000 C 
ATOM      5  C   UNL     1      22.651  14.475  36.814  0.00  0.00    +0.000 C 
ATOM      6  C   UNL     1      22.216  11.552  36.364  0.00  0.00    +0.000 C 
ATOM      7  C   UNL     1      19.405  14.476  36.276  0.00  0.00    +0.000 C 
ATOM      8  C   UNL     1      18.368  15.906  36.959  0.00  0.00    +0.000 C 
ATOM      9  C   UNL     1      23.648  13.346  37.312  0.00  0.00    +0.000 C 
ATOM     10  C   UNL     1      23.646  12.029  36.478  0.00  0.00    +0.000 C 
ATOM     11  C   UNL     1      18.829  17.138  38.148  0.00  0.00    +0.000 C 
ATOM     12  C   UNL     1      20.584  11.039  35.324  0.00  0.00    +0.000 C 
ATOM     13  C   UNL     1      22.978  15.969  37.909  0.00  0.00    +0.000 C 
ATOM     14  C   UNL     1      18.044  16.845  35.707  0.00  0.00    +0.000 C 
ATOM     15  C   UNL     1      20.179  17.899  37.727  0.00  0.00    +0.000 C 
ATOM     16  C   UNL     1      23.299  14.939  35.444  0.00  0.00    +0.000 C 
ATOM     17  C   UNL     1      21.842  17.478  38.263  0.00  0.00    +0.000 C 
ATOM     18  C   UNL     1      18.976  18.115  35.450  0.00  0.00    +0.000 C 
ATOM     19  C   UNL     1      20.037  18.553  36.525  0.00  0.00    +0.000 C 
ATOM     20  C   UNL     1      17.647  18.233  38.149  0.00  0.00    +0.000 C 
ATOM     21  C   UNL     1      18.711  16.810  39.672  0.00  0.00    +0.000 C 
ATOM     22  C   UNL     1      21.049  19.552  36.023  0.00  0.00    +0.000 C 
ENDROOT
BRANCH   9  23
ATOM     23  O   UNL     1      23.315  12.989  38.653  0.00  0.00    +0.000 OA
ATOM     24  H   UNL     1      23.474  13.787  39.197  0.00  0.00    +0.000 HD
ENDBRANCH   9  23
BRANCH   8  25
ATOM     25  O   UNL     1      17.117  15.318  37.365  0.00  0.00    +0.000 OA
ATOM     26  H   UNL     1      17.081  14.402  37.038  0.00  0.00    +0.000 HD
ENDBRANCH   8  25
BRANCH  18  27
ATOM     27  O   UNL     1      19.713  17.888  34.213  0.00  0.00    +0.000 OA
BRANCH  27  29
ATOM     28  O   UNL     1      18.476  18.042  32.324  0.00  0.00    +0.000 OA
ATOM     29  C   UNL     1      19.274  18.544  33.108  0.00  0.00    +0.000 C 
BRANCH  29  30
ATOM     30  C   UNL     1      19.976  19.880  32.843  0.00  0.00    +0.000 C 
BRANCH  30  31
ATOM     31  O   UNL     1      19.185  20.864  32.168  0.00  0.00    +0.000 OA
ATOM     32  H   UNL     1      19.154  20.591  31.232  0.00  0.00    +0.000 HD
ENDBRANCH  30  31
BRANCH  30  33
ATOM     33  C   UNL     1      21.280  19.591  32.049  0.00  0.00    +0.000 C 
BRANCH  33  34
ATOM     34  C   UNL     1      22.502  20.025  32.847  0.00  0.00    +0.000 A 
ATOM     35  C   UNL     1      23.407  19.054  33.308  0.00  0.00    +0.000 A 
ATOM     36  C   UNL     1      22.741  21.371  33.168  0.00  0.00    +0.000 A 
ATOM     37  C   UNL     1      24.529  19.420  34.053  0.00  0.00    +0.000 A 
ATOM     38  C   UNL     1      23.864  21.735  33.912  0.00  0.00    +0.000 A 
ATOM     39  C   UNL     1      24.759  20.761  34.352  0.00  0.00    +0.000 A 
ENDBRANCH  33  34
BRANCH  33  41
ATOM     40  O   UNL     1      21.810  20.440  28.574  0.00  0.00    +0.000 OA
ATOM     41  N   UNL     1      21.242  20.256  30.741  0.00  0.00    +0.000 N 
ATOM     42  C   UNL     1      22.163  20.220  29.729  0.00  0.00    +0.000 C 
ATOM     43  H   UNL     1      20.317  20.548  30.440  0.00  0.00    +0.000 HD
BRANCH  42  44
ATOM     44  C   UNL     1      23.574  19.870  30.010  0.00  0.00    +0.000 A 
ATOM     45  C   UNL     1      24.528  20.854  30.282  0.00  0.00    +0.000 A 
ATOM     46  C   UNL     1      23.959  18.527  29.927  0.00  0.00    +0.000 A 
ATOM     47  C   UNL     1      25.852  20.488  30.533  0.00  0.00    +0.000 A 
ATOM     48  C   UNL     1      25.282  18.164  30.174  0.00  0.00    +0.000 A 
ATOM     49  C   UNL     1      26.225  19.145  30.486  0.00  0.00    +0.000 A 
ENDBRANCH  42  44
ENDBRANCH  33  41
ENDBRANCH  30  33
ENDBRANCH  29  30
ENDBRANCH  27  29
ENDBRANCH  18  27
BRANCH  17  50
ATOM     50  O   UNL     1      21.858  17.868  39.653  0.00  0.00    +0.000 OA
BRANCH  50  52
ATOM     51  O   UNL     1      22.867  19.865  39.572  0.00  0.00    +0.000 OA
ATOM     52  C   UNL     1      22.709  18.794  40.151  0.00  0.00    +0.000 C 
ATOM     53  C   UNL     1      23.508  18.430  41.366  0.00  0.00    +0.000 C 
ENDBRANCH  50  52
ENDBRANCH  17  50
BRANCH   7  54
ATOM     54  O   UNL     1      20.134  15.357  35.626  0.00  0.00    +0.000 OA
BRANCH  54  56
ATOM     55  O   UNL     1      18.721  14.182  34.815  0.00  0.00    +0.000 OA
ATOM     56  C   UNL     1      19.595  14.950  34.428  0.00  0.00    +0.000 C 
BRANCH  56  57
ATOM     57  C   UNL     1      20.370  15.324  32.718  0.00  0.00    +0.000 A 
ATOM     58  C   UNL     1      21.717  15.845  32.497  0.00  0.00    +0.000 A 
ATOM     59  C   UNL     1      19.819  15.034  31.433  0.00  0.00    +0.000 A 
ATOM     60  C   UNL     1      22.371  16.031  31.253  0.00  0.00    +0.000 A 
ATOM     61  C   UNL     1      20.459  15.215  30.174  0.00  0.00    +0.000 A 
ATOM     62  C   UNL     1      21.737  15.710  30.081  0.00  0.00    +0.000 A 
ENDBRANCH  56  57
ENDBRANCH  54  56
ENDBRANCH   7  54
BRANCH   4  63
ATOM     63  O   UNL     1      21.850  12.989  34.293  0.00  0.00    +0.000 OA
BRANCH  63  65
ATOM     64  O   UNL     1      21.060  11.973  32.465  0.00  0.00    +0.000 OA
ATOM     65  C   UNL     1      22.030  12.284  33.153  0.00  0.00    +0.000 C 
ATOM     66  C   UNL     1      23.397  11.789  32.804  0.00  0.00    +0.000 C 
ENDBRANCH  63  65
ENDBRANCH   4  63
TORSDOF 17
ENDMDL
MODEL 7
REMARK VINA RESULT:      -5.6      2.691      7.922
REMARK  Name = 
REMARK  23 active torsions:
REMARK  status: ('A' for Active; 'I' for Inactive)
REMARK    1  A    between atoms: O_2  and  C_17
REMARK    2  A    between atoms: O_2  and  C_36
REMARK    3  A    between atoms: O_3  and  C_20
REMARK    4  A    between atoms: O_3  and  C_37
REMARK    5  A    between atoms: O_4  and  C_21
REMARK    6  A    between atoms: O_5  and  C_22
REMARK    7  A    between atoms: O_6  and  C_30
REMARK    8  A    between atoms: O_6  and  C_39
REMARK    9  A    between atoms: O_8  and  C_31
REMARK   10  A    between atoms: O_8  and  C_40
REMARK   11  A    between atoms: O_13  and  C_42
REMARK   12  A    between atoms: N_15  and  C_46
REMARK   13  A    between atoms: C_18  and  C_29
REMARK   14  A    between atoms: C_24  and  C_33
REMARK   15  A    between atoms: C_24  and  C_34
REMARK   16  A    between atoms: C_32  and  C_35
REMARK   17  A    between atoms: C_36  and  C_38
REMARK   18  A    between atoms: C_37  and  C_41
REMARK   19  A    between atoms: C_39  and  C_43
REMARK   20  A    between atoms: C_40  and  C_42
REMARK   21  A    between atoms: C_42  and  C_46
REMARK   22  A    between atoms: C_46  and  C_50
REMARK   23  A    between atoms: C_53  and  C_56
REMARK                            x       y       z     vdW  Elec       q    Type
REMARK                         _______ _______ _______ _____ _____    ______ ____
ROOT
ATOM      1  O   UNL     1      20.869  25.772  32.502  0.00  0.00    +0.000 OA
ATOM      2  O   UNL     1      25.751  21.918  34.904  0.00  0.00    +0.000 OA
ATOM      3  C   UNL     1      22.427  22.719  32.204  0.00  0.00    +0.000 C 
ATOM      4  C   UNL     1      21.223  23.662  32.496  0.00  0.00    +0.000 C 
ATOM      5  C   UNL     1      23.383  22.520  33.831  0.00  0.00    +0.000 C 
ATOM      6  C   UNL     1      22.059  24.979  32.765  0.00  0.00    +0.000 C 
ATOM      7  C   UNL     1      21.929  21.253  31.165  0.00  0.00    +0.000 C 
ATOM      8  C   UNL     1      22.631  19.662  30.413  0.00  0.00    +0.000 C 
ATOM      9  C   UNL     1      23.832  23.995  34.200  0.00  0.00    +0.000 C 
ATOM     10  C   UNL     1      22.715  25.080  34.123  0.00  0.00    +0.000 C 
ATOM     11  C   UNL     1      24.188  18.878  30.738  0.00  0.00    +0.000 C 
ATOM     12  C   UNL     1      20.486  24.698  31.560  0.00  0.00    +0.000 C 
ATOM     13  C   UNL     1      24.883  21.430  34.149  0.00  0.00    +0.000 C 
ATOM     14  C   UNL     1      21.639  18.494  30.862  0.00  0.00    +0.000 C 
ATOM     15  C   UNL     1      24.404  18.608  32.306  0.00  0.00    +0.000 C 
ATOM     16  C   UNL     1      22.442  22.124  35.044  0.00  0.00    +0.000 C 
ATOM     17  C   UNL     1      25.276  19.682  33.454  0.00  0.00    +0.000 C 
ATOM     18  C   UNL     1      22.018  17.629  32.148  0.00  0.00    +0.000 C 
ATOM     19  C   UNL     1      23.435  17.775  32.814  0.00  0.00    +0.000 C 
ATOM     20  C   UNL     1      24.131  17.441  30.012  0.00  0.00    +0.000 C 
ATOM     21  C   UNL     1      25.462  19.365  29.975  0.00  0.00    +0.000 C 
ATOM     22  C   UNL     1      23.542  17.151  34.183  0.00  0.00    +0.000 C 
ENDROOT
BRANCH   9  23
ATOM     23  O   UNL     1      24.868  24.403  33.307  0.00  0.00    +0.000 OA
ATOM     24  H   UNL     1      25.711  24.284  33.790  0.00  0.00    +0.000 HD
ENDBRANCH   9  23
BRANCH   8  25
ATOM     25  O   UNL     1      22.476  19.807  28.988  0.00  0.00    +0.000 OA
ATOM     26  H   UNL     1      22.808  19.002  28.554  0.00  0.00    +0.000 HD
ENDBRANCH   8  25
BRANCH  18  27
ATOM     27  O   UNL     1      21.041  17.920  33.190  0.00  0.00    +0.000 OA
BRANCH  27  29
ATOM     28  O   UNL     1      19.971  16.929  34.920  0.00  0.00    +0.000 OA
ATOM     29  C   UNL     1      20.451  16.857  33.794  0.00  0.00    +0.000 C 
BRANCH  29  30
ATOM     30  C   UNL     1      20.581  15.538  33.025  0.00  0.00    +0.000 C 
BRANCH  30  31
ATOM     31  O   UNL     1      19.540  15.277  32.076  0.00  0.00    +0.000 OA
ATOM     32  H   UNL     1      18.702  15.333  32.572  0.00  0.00    +0.000 HD
ENDBRANCH  30  31
BRANCH  30  33
ATOM     33  C   UNL     1      20.677  14.383  34.060  0.00  0.00    +0.000 C 
BRANCH  33  34
ATOM     34  C   UNL     1      21.684  13.337  33.605  0.00  0.00    +0.000 A 
ATOM     35  C   UNL     1      22.739  12.976  34.460  0.00  0.00    +0.000 A 
ATOM     36  C   UNL     1      21.614  12.737  32.337  0.00  0.00    +0.000 A 
ATOM     37  C   UNL     1      23.686  12.029  34.066  0.00  0.00    +0.000 A 
ATOM     38  C   UNL     1      22.560  11.789  31.945  0.00  0.00    +0.000 A 
ATOM     39  C   UNL     1      23.594  11.434  32.810  0.00  0.00    +0.000 A 
ENDBRANCH  33  34
BRANCH  33  41
ATOM     40  O   UNL     1      17.727  12.958  35.591  0.00  0.00    +0.000 OA
ATOM     41  N   UNL     1      19.355  13.781  34.280  0.00  0.00    +0.000 N 
ATOM     42  C   UNL     1      18.923  13.009  35.324  0.00  0.00    +0.000 C 
ATOM     43  H   UNL     1      18.602  14.206  33.748  0.00  0.00    +0.000 HD
BRANCH  42  44
ATOM     44  C   UNL     1      19.894  12.271  36.163  0.00  0.00    +0.000 A 
ATOM     45  C   UNL     1      20.250  10.950  35.876  0.00  0.00    +0.000 A 
ATOM     46  C   UNL     1      20.404  12.900  37.306  0.00  0.00    +0.000 A 
ATOM     47  C   UNL     1      21.161  10.282  36.696  0.00  0.00    +0.000 A 
ATOM     48  C   UNL     1      21.311  12.230  38.125  0.00  0.00    +0.000 A 
ATOM     49  C   UNL     1      21.696  10.925  37.814  0.00  0.00    +0.000 A 
ENDBRANCH  42  44
ENDBRANCH  33  41
ENDBRANCH  30  33
ENDBRANCH  29  30
ENDBRANCH  27  29
ENDBRANCH  18  27
BRANCH  17  50
ATOM     50  O   UNL     1      26.659  19.539  33.067  0.00  0.00    +0.000 OA
BRANCH  50  52
ATOM     51  O   UNL     1      28.185  19.376  34.697  0.00  0.00    +0.000 OA
ATOM     52  C   UNL     1      27.559  18.834  33.790  0.00  0.00    +0.000 C 
ATOM     53  C   UNL     1      27.823  17.414  33.390  0.00  0.00    +0.000 C 
ENDBRANCH  50  52
ENDBRANCH  17  50
BRANCH   7  54
ATOM     54  O   UNL     1      21.784  20.611  32.305  0.00  0.00    +0.000 OA
BRANCH  54  56
ATOM     55  O   UNL     1      20.307  21.114  31.040  0.00  0.00    +0.000 OA
ATOM     56  C   UNL     1      20.421  20.568  32.131  0.00  0.00    +0.000 C 
BRANCH  56  57
ATOM     57  C   UNL     1      19.178  20.064  33.497  0.00  0.00    +0.000 A 
ATOM     58  C   UNL     1      19.360  20.292  34.929  0.00  0.00    +0.000 A 
ATOM     59  C   UNL     1      17.866  19.529  33.323  0.00  0.00    +0.000 A 
ATOM     60  C   UNL     1      18.424  20.040  35.963  0.00  0.00    +0.000 A 
ATOM     61  C   UNL     1      16.913  19.268  34.348  0.00  0.00    +0.000 A 
ATOM     62  C   UNL     1      17.188  19.526  35.669  0.00  0.00    +0.000 A 
ENDBRANCH  56  57
ENDBRANCH  54  56
ENDBRANCH   7  54
BRANCH   4  63
ATOM     63  O   UNL     1      20.437  23.213  33.625  0.00  0.00    +0.000 OA
BRANCH  63  65
ATOM     64  O   UNL     1      18.271  23.156  33.073  0.00  0.00    +0.000 OA
ATOM     65  C   UNL     1      19.145  23.551  33.842  0.00  0.00    +0.000 C 
ATOM     66  C   UNL     1      18.810  24.499  34.949  0.00  0.00    +0.000 C 
ENDBRANCH  63  65
ENDBRANCH   4  63
TORSDOF 17
ENDMDL
MODEL 8
REMARK VINA RESULT:      -5.5      2.688      7.500
REMARK  Name = 
REMARK  23 active torsions:
REMARK  status: ('A' for Active; 'I' for Inactive)
REMARK    1  A    between atoms: O_2  and  C_17
REMARK    2  A    between atoms: O_2  and  C_36
REMARK    3  A    between atoms: O_3  and  C_20
REMARK    4  A    between atoms: O_3  and  C_37
REMARK    5  A    between atoms: O_4  and  C_21
REMARK    6  A    between atoms: O_5  and  C_22
REMARK    7  A    between atoms: O_6  and  C_30
REMARK    8  A    between atoms: O_6  and  C_39
REMARK    9  A    between atoms: O_8  and  C_31
REMARK   10  A    between atoms: O_8  and  C_40
REMARK   11  A    between atoms: O_13  and  C_42
REMARK   12  A    between atoms: N_15  and  C_46
REMARK   13  A    between atoms: C_18  and  C_29
REMARK   14  A    between atoms: C_24  and  C_33
REMARK   15  A    between atoms: C_24  and  C_34
REMARK   16  A    between atoms: C_32  and  C_35
REMARK   17  A    between atoms: C_36  and  C_38
REMARK   18  A    between atoms: C_37  and  C_41
REMARK   19  A    between atoms: C_39  and  C_43
REMARK   20  A    between atoms: C_40  and  C_42
REMARK   21  A    between atoms: C_42  and  C_46
REMARK   22  A    between atoms: C_46  and  C_50
REMARK   23  A    between atoms: C_53  and  C_56
REMARK                            x       y       z     vdW  Elec       q    Type
REMARK                         _______ _______ _______ _____ _____    ______ ____
ROOT
ATOM      1  O   UNL     1      22.536  26.453  32.760  0.00  0.00    +0.000 OA
ATOM      2  O   UNL     1      26.434  21.609  35.169  0.00  0.00    +0.000 OA
ATOM      3  C   UNL     1      23.507  23.178  32.349  0.00  0.00    +0.000 C 
ATOM      4  C   UNL     1      22.486  24.317  32.636  0.00  0.00    +0.000 C 
ATOM      5  C   UNL     1      24.298  22.711  34.009  0.00  0.00    +0.000 C 
ATOM      6  C   UNL     1      23.535  25.433  33.036  0.00  0.00    +0.000 C 
ATOM      7  C   UNL     1      22.812  21.893  31.189  0.00  0.00    +0.000 C 
ATOM      8  C   UNL     1      23.250  20.241  30.374  0.00  0.00    +0.000 C 
ATOM      9  C   UNL     1      24.992  24.051  34.498  0.00  0.00    +0.000 C 
ATOM     10  C   UNL     1      24.106  25.333  34.432  0.00  0.00    +0.000 C 
ATOM     11  C   UNL     1      24.606  19.155  30.732  0.00  0.00    +0.000 C 
ATOM     12  C   UNL     1      22.021  25.525  31.730  0.00  0.00    +0.000 C 
ATOM     13  C   UNL     1      25.542  21.339  34.337  0.00  0.00    +0.000 C 
ATOM     14  C   UNL     1      22.028  19.262  30.690  0.00  0.00    +0.000 C 
ATOM     15  C   UNL     1      24.664  18.765  32.288  0.00  0.00    +0.000 C 
ATOM     16  C   UNL     1      23.221  22.439  35.140  0.00  0.00    +0.000 C 
ATOM     17  C   UNL     1      25.643  19.588  33.551  0.00  0.00    +0.000 C 
ATOM     18  C   UNL     1      22.152  18.272  31.935  0.00  0.00    +0.000 C 
ATOM     19  C   UNL     1      23.523  18.107  32.687  0.00  0.00    +0.000 C 
ATOM     20  C   UNL     1      24.329  17.798  29.911  0.00  0.00    +0.000 C 
ATOM     21  C   UNL     1      25.997  19.430  30.074  0.00  0.00    +0.000 C 
ATOM     22  C   UNL     1      23.419  17.401  34.016  0.00  0.00    +0.000 C 
ENDROOT
BRANCH   9  23
ATOM     23  O   UNL     1      26.143  24.300  33.692  0.00  0.00    +0.000 OA
ATOM     24  H   UNL     1      25.810  24.589  32.819  0.00  0.00    +0.000 HD
ENDBRANCH   9  23
BRANCH   8  25
ATOM     25  O   UNL     1      23.221  20.490  28.955  0.00  0.00    +0.000 OA
ATOM     26  H   UNL     1      22.546  19.916  28.551  0.00  0.00    +0.000 HD
ENDBRANCH   8  25
BRANCH  18  27
ATOM     27  O   UNL     1      21.180  18.689  32.939  0.00  0.00    +0.000 OA
BRANCH  27  29
ATOM     28  O   UNL     1      19.255  18.033  31.947  0.00  0.00    +0.000 OA
ATOM     29  C   UNL     1      19.981  18.051  32.935  0.00  0.00    +0.000 C 
BRANCH  29  30
ATOM     30  C   UNL     1      19.548  17.505  34.299  0.00  0.00    +0.000 C 
BRANCH  30  31
ATOM     31  O   UNL     1      20.390  17.868  35.399  0.00  0.00    +0.000 OA
ATOM     32  H   UNL     1      19.794  18.177  36.106  0.00  0.00    +0.000 HD
ENDBRANCH  30  31
BRANCH  30  33
ATOM     33  C   UNL     1      19.435  15.960  34.186  0.00  0.00    +0.000 C 
BRANCH  33  34
ATOM     34  C   UNL     1      17.990  15.513  34.363  0.00  0.00    +0.000 A 
ATOM     35  C   UNL     1      16.963  16.229  33.723  0.00  0.00    +0.000 A 
ATOM     36  C   UNL     1      17.642  14.422  35.174  0.00  0.00    +0.000 A 
ATOM     37  C   UNL     1      15.628  15.852  33.876  0.00  0.00    +0.000 A 
ATOM     38  C   UNL     1      16.306  14.045  35.324  0.00  0.00    +0.000 A 
ATOM     39  C   UNL     1      15.300  14.759  34.674  0.00  0.00    +0.000 A 
ENDBRANCH  33  34
BRANCH  33  41
ATOM     40  O   UNL     1      22.290  14.494  35.853  0.00  0.00    +0.000 OA
ATOM     41  N   UNL     1      20.310  15.308  35.169  0.00  0.00    +0.000 N 
ATOM     42  C   UNL     1      21.455  14.588  34.959  0.00  0.00    +0.000 C 
ATOM     43  H   UNL     1      20.217  15.657  36.118  0.00  0.00    +0.000 HD
BRANCH  42  44
ATOM     44  C   UNL     1      21.715  13.958  33.644  0.00  0.00    +0.000 A 
ATOM     45  C   UNL     1      21.566  14.672  32.452  0.00  0.00    +0.000 A 
ATOM     46  C   UNL     1      22.047  12.599  33.608  0.00  0.00    +0.000 A 
ATOM     47  C   UNL     1      21.810  14.043  31.230  0.00  0.00    +0.000 A 
ATOM     48  C   UNL     1      22.288  11.972  32.386  0.00  0.00    +0.000 A 
ATOM     49  C   UNL     1      22.178  12.697  31.199  0.00  0.00    +0.000 A 
ENDBRANCH  42  44
ENDBRANCH  33  41
ENDBRANCH  30  33
ENDBRANCH  29  30
ENDBRANCH  27  29
ENDBRANCH  18  27
BRANCH  17  50
ATOM     50  O   UNL     1      26.998  19.203  33.232  0.00  0.00    +0.000 OA
BRANCH  50  52
ATOM     51  O   UNL     1      28.303  17.391  33.074  0.00  0.00    +0.000 OA
ATOM     52  C   UNL     1      27.604  18.121  33.771  0.00  0.00    +0.000 C 
ATOM     53  C   UNL     1      27.320  17.802  35.208  0.00  0.00    +0.000 C 
ENDBRANCH  50  52
ENDBRANCH  17  50
BRANCH   7  54
ATOM     54  O   UNL     1      22.474  21.231  32.275  0.00  0.00    +0.000 OA
BRANCH  54  56
ATOM     55  O   UNL     1      21.195  22.036  30.951  0.00  0.00    +0.000 OA
ATOM     56  C   UNL     1      21.147  21.521  32.063  0.00  0.00    +0.000 C 
BRANCH  56  57
ATOM     57  C   UNL     1      19.791  21.397  33.408  0.00  0.00    +0.000 A 
ATOM     58  C   UNL     1      20.033  21.205  34.837  0.00  0.00    +0.000 A 
ATOM     59  C   UNL     1      18.386  21.600  33.248  0.00  0.00    +0.000 A 
ATOM     60  C   UNL     1      19.073  21.220  35.879  0.00  0.00    +0.000 A 
ATOM     61  C   UNL     1      17.407  21.617  34.281  0.00  0.00    +0.000 A 
ATOM     62  C   UNL     1      17.748  21.430  35.599  0.00  0.00    +0.000 A 
ENDBRANCH  56  57
ENDBRANCH  54  56
ENDBRANCH   7  54
BRANCH   4  63
ATOM     63  O   UNL     1      21.556  23.968  33.687  0.00  0.00    +0.000 OA
BRANCH  63  65
ATOM     64  O   UNL     1      19.572  24.814  33.096  0.00  0.00    +0.000 OA
ATOM     65  C   UNL     1      20.424  24.653  33.968  0.00  0.00    +0.000 C 
ATOM     66  C   UNL     1      20.274  25.307  35.304  0.00  0.00    +0.000 C 
ENDBRANCH  63  65
ENDBRANCH   4  63
TORSDOF 17
ENDMDL
MODEL 9
REMARK VINA RESULT:      -5.5     29.982     34.649
REMARK  Name = 
REMARK  23 active torsions:
REMARK  status: ('A' for Active; 'I' for Inactive)
REMARK    1  A    between atoms: O_2  and  C_17
REMARK    2  A    between atoms: O_2  and  C_36
REMARK    3  A    between atoms: O_3  and  C_20
REMARK    4  A    between atoms: O_3  and  C_37
REMARK    5  A    between atoms: O_4  and  C_21
REMARK    6  A    between atoms: O_5  and  C_22
REMARK    7  A    between atoms: O_6  and  C_30
REMARK    8  A    between atoms: O_6  and  C_39
REMARK    9  A    between atoms: O_8  and  C_31
REMARK   10  A    between atoms: O_8  and  C_40
REMARK   11  A    between atoms: O_13  and  C_42
REMARK   12  A    between atoms: N_15  and  C_46
REMARK   13  A    between atoms: C_18  and  C_29
REMARK   14  A    between atoms: C_24  and  C_33
REMARK   15  A    between atoms: C_24  and  C_34
REMARK   16  A    between atoms: C_32  and  C_35
REMARK   17  A    between atoms: C_36  and  C_38
REMARK   18  A    between atoms: C_37  and  C_41
REMARK   19  A    between atoms: C_39  and  C_43
REMARK   20  A    between atoms: C_40  and  C_42
REMARK   21  A    between atoms: C_42  and  C_46
REMARK   22  A    between atoms: C_46  and  C_50
REMARK   23  A    between atoms: C_53  and  C_56
REMARK                            x       y       z     vdW  Elec       q    Type
REMARK                         _______ _______ _______ _____ _____    ______ ____
ROOT
ATOM      1  O   UNL     1      27.472  31.160  -1.688  0.00  0.00    +0.000 OA
ATOM      2  O   UNL     1      21.258  30.010   0.439  0.00  0.00    +0.000 OA
ATOM      3  C   UNL     1      25.581  29.528   0.679  0.00  0.00    +0.000 C 
ATOM      4  C   UNL     1      26.574  29.609  -0.518  0.00  0.00    +0.000 C 
ATOM      5  C   UNL     1      23.832  29.504  -0.054  0.00  0.00    +0.000 C 
ATOM      6  C   UNL     1      26.197  31.071  -0.994  0.00  0.00    +0.000 C 
ATOM      7  C   UNL     1      26.133  28.291   1.960  0.00  0.00    +0.000 C 
ATOM      8  C   UNL     1      25.592  27.515   3.601  0.00  0.00    +0.000 C 
ATOM      9  C   UNL     1      23.726  30.872  -0.850  0.00  0.00    +0.000 C 
ATOM     10  C   UNL     1      24.922  31.196  -1.795  0.00  0.00    +0.000 C 
ATOM     11  C   UNL     1      24.012  27.612   4.403  0.00  0.00    +0.000 C 
ATOM     12  C   UNL     1      27.999  30.283  -0.619  0.00  0.00    +0.000 C 
ATOM     13  C   UNL     1      22.206  29.322   0.875  0.00  0.00    +0.000 C 
ATOM     14  C   UNL     1      25.692  25.935   3.391  0.00  0.00    +0.000 C 
ATOM     15  C   UNL     1      22.820  27.157   3.430  0.00  0.00    +0.000 C 
ATOM     16  C   UNL     1      23.666  28.417  -1.197  0.00  0.00    +0.000 C 
ATOM     17  C   UNL     1      21.809  28.242   2.414  0.00  0.00    +0.000 C 
ATOM     18  C   UNL     1      24.371  25.137   2.989  0.00  0.00    +0.000 C 
ATOM     19  C   UNL     1      22.970  25.852   3.023  0.00  0.00    +0.000 C 
ATOM     20  C   UNL     1      24.058  26.561   5.623  0.00  0.00    +0.000 C 
ATOM     21  C   UNL     1      23.688  28.849   5.302  0.00  0.00    +0.000 C 
ATOM     22  C   UNL     1      21.871  25.090   2.323  0.00  0.00    +0.000 C 
ENDROOT
BRANCH   9  23
ATOM     23  O   UNL     1      23.631  31.947   0.083  0.00  0.00    +0.000 OA
ATOM     24  H   UNL     1      23.770  31.555   0.969  0.00  0.00    +0.000 HD
ENDBRANCH   9  23
BRANCH   8  25
ATOM     25  O   UNL     1      26.614  27.869   4.553  0.00  0.00    +0.000 OA
ATOM     26  H   UNL     1      26.756  27.117   5.154  0.00  0.00    +0.000 HD
ENDBRANCH   8  25
BRANCH  18  27
ATOM     27  O   UNL     1      24.544  24.635   1.631  0.00  0.00    +0.000 OA
BRANCH  27  29
ATOM     28  O   UNL     1      26.084  23.035   1.198  0.00  0.00    +0.000 OA
ATOM     29  C   UNL     1      24.936  23.342   1.500  0.00  0.00    +0.000 C 
BRANCH  29  30
ATOM     30  C   UNL     1      23.799  22.321   1.601  0.00  0.00    +0.000 C 
BRANCH  30  31
ATOM     31  O   UNL     1      23.736  21.593   2.832  0.00  0.00    +0.000 OA
ATOM     32  H   UNL     1      24.327  20.824   2.722  0.00  0.00    +0.000 HD
ENDBRANCH  30  31
BRANCH  30  33
ATOM     33  C   UNL     1      23.917  21.346   0.396  0.00  0.00    +0.000 C 
BRANCH  33  34
ATOM     34  C   UNL     1      23.246  21.933  -0.838  0.00  0.00    +0.000 A 
ATOM     35  C   UNL     1      23.392  21.286  -2.077  0.00  0.00    +0.000 A 
ATOM     36  C   UNL     1      22.508  23.126  -0.787  0.00  0.00    +0.000 A 
ATOM     37  C   UNL     1      22.799  21.807  -3.228  0.00  0.00    +0.000 A 
ATOM     38  C   UNL     1      21.915  23.645  -1.939  0.00  0.00    +0.000 A 
ATOM     39  C   UNL     1      22.059  22.985  -3.158  0.00  0.00    +0.000 A 
ENDBRANCH  33  34
BRANCH  33  41
ATOM     40  O   UNL     1      21.809  18.410   0.514  0.00  0.00    +0.000 OA
ATOM     41  N   UNL     1      23.341  20.039   0.736  0.00  0.00    +0.000 N 
ATOM     42  C   UNL     1      22.048  19.609   0.616  0.00  0.00    +0.000 C 
ATOM     43  H   UNL     1      24.016  19.283   0.808  0.00  0.00    +0.000 HD
BRANCH  42  44
ATOM     44  C   UNL     1      20.935  20.585   0.560  0.00  0.00    +0.000 A 
ATOM     45  C   UNL     1      20.609  21.382   1.661  0.00  0.00    +0.000 A 
ATOM     46  C   UNL     1      20.158  20.647  -0.603  0.00  0.00    +0.000 A 
ATOM     47  C   UNL     1      19.547  22.284   1.576  0.00  0.00    +0.000 A 
ATOM     48  C   UNL     1      19.096  21.547  -0.684  0.00  0.00    +0.000 A 
ATOM     49  C   UNL     1      18.798  22.371   0.402  0.00  0.00    +0.000 A 
ENDBRANCH  42  44
ENDBRANCH  33  41
ENDBRANCH  30  33
ENDBRANCH  29  30
ENDBRANCH  27  29
ENDBRANCH  18  27
BRANCH  17  50
ATOM     50  O   UNL     1      20.984  28.934   3.376  0.00  0.00    +0.000 OA
BRANCH  50  52
ATOM     51  O   UNL     1      18.910  28.594   2.606  0.00  0.00    +0.000 OA
ATOM     52  C   UNL     1      19.675  28.652   3.564  0.00  0.00    +0.000 C 
ATOM     53  C   UNL     1      19.185  28.504   4.973  0.00  0.00    +0.000 C 
ENDBRANCH  50  52
ENDBRANCH  17  50
BRANCH   7  54
ATOM     54  O   UNL     1      25.352  27.435   1.335  0.00  0.00    +0.000 OA
BRANCH  54  56
ATOM     55  O   UNL     1      27.357  27.338   1.424  0.00  0.00    +0.000 OA
ATOM     56  C   UNL     1      26.447  26.785   0.816  0.00  0.00    +0.000 C 
BRANCH  56  57
ATOM     57  C   UNL     1      26.383  25.610  -0.694  0.00  0.00    +0.000 A 
ATOM     58  C   UNL     1      25.245  25.458  -1.598  0.00  0.00    +0.000 A 
ATOM     59  C   UNL     1      27.450  24.828  -1.232  0.00  0.00    +0.000 A 
ATOM     60  C   UNL     1      25.191  24.689  -2.788  0.00  0.00    +0.000 A 
ATOM     61  C   UNL     1      27.415  24.049  -2.423  0.00  0.00    +0.000 A 
ATOM     62  C   UNL     1      26.288  23.981  -3.205  0.00  0.00    +0.000 A 
ENDBRANCH  56  57
ENDBRANCH  54  56
ENDBRANCH   7  54
BRANCH   4  63
ATOM     63  O   UNL     1      26.331  28.579  -1.504  0.00  0.00    +0.000 OA
BRANCH  63  65
ATOM     64  O   UNL     1      28.284  27.949  -2.391  0.00  0.00    +0.000 OA
ATOM     65  C   UNL     1      27.129  28.331  -2.567  0.00  0.00    +0.000 C 
ATOM     66  C   UNL     1      26.634  28.640  -3.944  0.00  0.00    +0.000 C 
ENDBRANCH  63  65
ENDBRANCH   4  63
TORSDOF 17
ENDMDL
