REMARK  Name = 
REMARK  23 active torsions:
REMARK  status: ('A' for Active; 'I' for Inactive)
REMARK    1  A    between atoms: O_2  and  C_17
REMARK    2  A    between atoms: O_2  and  C_36
REMARK    3  A    between atoms: O_3  and  C_20
REMARK    4  A    between atoms: O_3  and  C_37
REMARK    5  A    between atoms: O_4  and  C_21
REMARK    6  A    between atoms: O_5  and  C_22
REMARK    7  A    between atoms: O_6  and  C_30
REMARK    8  A    between atoms: O_6  and  C_39
REMARK    9  A    between atoms: O_8  and  C_31
REMARK   10  A    between atoms: O_8  and  C_40
REMARK   11  A    between atoms: O_13  and  C_42
REMARK   12  A    between atoms: N_15  and  C_46
REMARK   13  A    between atoms: C_18  and  C_29
REMARK   14  A    between atoms: C_24  and  C_33
REMARK   15  A    between atoms: C_24  and  C_34
REMARK   16  A    between atoms: C_32  and  C_35
REMARK   17  A    between atoms: C_36  and  C_38
REMARK   18  A    between atoms: C_37  and  C_41
REMARK   19  A    between atoms: C_39  and  C_43
REMARK   20  A    between atoms: C_40  and  C_42
REMARK   21  A    between atoms: C_42  and  C_46
REMARK   22  A    between atoms: C_46  and  C_50
REMARK   23  A    between atoms: C_53  and  C_56
REMARK                            x       y       z     vdW  Elec       q    Type
REMARK                         _______ _______ _______ _____ _____    ______ ____
ROOT
ATOM      1  O   UNL     1       1.198  -6.722   5.866  0.00  0.00    +0.000 OA
ATOM      2  O   UNL     1       3.410  -0.532   6.983  0.00  0.00    +0.000 OA
ATOM      3  C   UNL     1       1.002  -3.449   4.822  0.00  0.00    +0.000 C 
ATOM      4  C   UNL     1       1.334  -4.961   4.657  0.00  0.00    +0.000 C 
ATOM      5  C   UNL     1       2.535  -2.624   5.576  0.00  0.00    +0.000 C 
ATOM      6  C   UNL     1       1.405  -5.321   6.197  0.00  0.00    +0.000 C 
ATOM      7  C   UNL     1       0.145  -2.755   3.318  0.00  0.00    +0.000 C 
ATOM      8  C   UNL     1      -0.538  -1.133   2.618  0.00  0.00    +0.000 C 
ATOM      9  C   UNL     1       2.731  -3.366   6.964  0.00  0.00    +0.000 C 
ATOM     10  C   UNL     1       2.677  -4.923   6.910  0.00  0.00    +0.000 C 
ATOM     11  C   UNL     1      -0.307   0.518   3.224  0.00  0.00    +0.000 C 
ATOM     12  C   UNL     1       0.393  -6.228   4.727  0.00  0.00    +0.000 C 
ATOM     13  C   UNL     1       2.790  -0.794   5.930  0.00  0.00    +0.000 C 
ATOM     14  C   UNL     1       0.106  -0.981   1.164  0.00  0.00    +0.000 C 
ATOM     15  C   UNL     1       1.248   0.878   3.397  0.00  0.00    +0.000 C 
ATOM     16  C   UNL     1       3.866  -2.983   4.793  0.00  0.00    +0.000 C 
ATOM     17  C   UNL     1       2.208   0.726   4.909  0.00  0.00    +0.000 C 
ATOM     18  C   UNL     1       1.415  -0.083   1.004  0.00  0.00    +0.000 C 
ATOM     19  C   UNL     1       1.920   0.806   2.199  0.00  0.00    +0.000 C 
ATOM     20  C   UNL     1      -0.900   1.502   2.095  0.00  0.00    +0.000 C 
ATOM     21  C   UNL     1      -1.233   1.048   4.366  0.00  0.00    +0.000 C 
ATOM     22  C   UNL     1       3.319   1.342   2.022  0.00  0.00    +0.000 C 
ENDROOT
BRANCH   9  23
ATOM     23  O   UNL     1       1.707  -2.946   7.865  0.00  0.00    +0.000 OA
ATOM     24  H   UNL     1       2.049  -2.149   8.318  0.00  0.00    +0.000 HD
ENDBRANCH   9  23
BRANCH   8  25
ATOM     25  O   UNL     1      -1.947  -1.359   2.422  0.00  0.00    +0.000 OA
ATOM     26  H   UNL     1      -2.069  -1.900   1.622  0.00  0.00    +0.000 HD
ENDBRANCH   8  25
BRANCH  18  27
ATOM     27  O   UNL     1       2.522  -0.962   0.648  0.00  0.00    +0.000 OA
BRANCH  27  29
ATOM     28  O   UNL     1       2.144  -2.776  -0.651  0.00  0.00    +0.000 OA
ATOM     29  C   UNL     1       2.445  -1.591  -0.553  0.00  0.00    +0.000 C 
BRANCH  29  30
ATOM     30  C   UNL     1       2.918  -0.749  -1.742  0.00  0.00    +0.000 C 
BRANCH  30  31
ATOM     31  O   UNL     1       3.237   0.614  -1.439  0.00  0.00    +0.000 OA
ATOM     32  H   UNL     1       3.986   0.584  -0.815  0.00  0.00    +0.000 HD
ENDBRANCH  30  31
BRANCH  30  33
ATOM     33  C   UNL     1       1.829  -0.821  -2.848  0.00  0.00    +0.000 C 
BRANCH  33  34
ATOM     34  C   UNL     1       2.455  -0.676  -4.228  0.00  0.00    +0.000 A 
ATOM     35  C   UNL     1       2.708  -1.826  -4.996  0.00  0.00    +0.000 A 
ATOM     36  C   UNL     1       2.821   0.574  -4.752  0.00  0.00    +0.000 A 
ATOM     37  C   UNL     1       3.293  -1.726  -6.259  0.00  0.00    +0.000 A 
ATOM     38  C   UNL     1       3.404   0.672  -6.016  0.00  0.00    +0.000 A 
ATOM     39  C   UNL     1       3.638  -0.477  -6.770  0.00  0.00    +0.000 A 
ENDBRANCH  33  34
BRANCH  33  41
ATOM     40  O   UNL     1      -1.190   0.908  -1.860  0.00  0.00    +0.000 OA
ATOM     41  N   UNL     1       0.803   0.206  -2.625  0.00  0.00    +0.000 N 
ATOM     42  C   UNL     1      -0.547   0.054  -2.463  0.00  0.00    +0.000 C 
ATOM     43  H   UNL     1       1.158   1.092  -2.278  0.00  0.00    +0.000 HD
BRANCH  42  44
ATOM     44  C   UNL     1      -1.232  -1.157  -2.969  0.00  0.00    +0.000 A 
ATOM     45  C   UNL     1      -0.995  -1.644  -4.258  0.00  0.00    +0.000 A 
ATOM     46  C   UNL     1      -2.187  -1.775  -2.153  0.00  0.00    +0.000 A 
ATOM     47  C   UNL     1      -1.667  -2.783  -4.705  0.00  0.00    +0.000 A 
ATOM     48  C   UNL     1      -2.859  -2.911  -2.603  0.00  0.00    +0.000 A 
ATOM     49  C   UNL     1      -2.591  -3.419  -3.875  0.00  0.00    +0.000 A 
ENDBRANCH  42  44
ENDBRANCH  33  41
ENDBRANCH  30  33
ENDBRANCH  29  30
ENDBRANCH  27  29
ENDBRANCH  18  27
BRANCH  17  50
ATOM     50  O   UNL     1       1.697   1.789   5.742  0.00  0.00    +0.000 OA
BRANCH  50  52
ATOM     51  O   UNL     1       1.979   3.075   7.552  0.00  0.00    +0.000 OA
ATOM     52  C   UNL     1       2.475   2.506   6.584  0.00  0.00    +0.000 C 
ATOM     53  C   UNL     1       3.928   2.651   6.244  0.00  0.00    +0.000 C 
ENDBRANCH  50  52
ENDBRANCH  17  50
BRANCH   7  54
ATOM     54  O   UNL     1       1.344  -2.384   2.921  0.00  0.00    +0.000 OA
BRANCH  54  56
ATOM     55  O   UNL     1       2.567  -1.057   3.804  0.00  0.00    +0.000 OA
ATOM     56  C   UNL     1       1.415  -1.457   3.934  0.00  0.00    +0.000 C 
BRANCH  56  57
ATOM     57  C   UNL     1       0.084  -1.245   5.293  0.00  0.00    +0.000 A 
ATOM     58  C   UNL     1      -1.263  -1.810   5.251  0.00  0.00    +0.000 A 
ATOM     59  C   UNL     1       0.241  -0.636   6.575  0.00  0.00    +0.000 A 
ATOM     60  C   UNL     1      -2.240  -1.775   6.277  0.00  0.00    +0.000 A 
ATOM     61  C   UNL     1      -0.728  -0.589   7.617  0.00  0.00    +0.000 A 
ATOM     62  C   UNL     1      -1.969  -1.161   7.472  0.00  0.00    +0.000 A 
ENDBRANCH  56  57
ENDBRANCH  54  56
ENDBRANCH   7  54
BRANCH   4  63
ATOM     63  O   UNL     1       2.570  -5.176   3.936  0.00  0.00    +0.000 OA
BRANCH  63  65
ATOM     64  O   UNL     1       3.699  -6.106   2.245  0.00  0.00    +0.000 OA
ATOM     65  C   UNL     1       2.647  -5.626   2.663  0.00  0.00    +0.000 C 
ATOM     66  C   UNL     1       1.486  -5.426   1.742  0.00  0.00    +0.000 C 
ENDBRANCH  63  65
ENDBRANCH   4  63
TORSDOF 17
