MODEL 1
REMARK VINA RESULT:      -7.7      0.000      0.000
REMARK  Name = 
REMARK  5 active torsions:
REMARK  status: ('A' for Active; 'I' for Inactive)
REMARK    1  A    between atoms: O_1  and  C_16
REMARK    2  A    between atoms: O_3  and  C_25
REMARK    3  A    between atoms: C_11  and  C_22
REMARK    4  A    between atoms: C_16  and  C_28
REMARK    5  A    between atoms: C_29  and  C_31
REMARK                            x       y       z     vdW  Elec       q    Type
REMARK                         _______ _______ _______ _____ _____    ______ ____
ROOT
ATOM      1  O   UNL     1      47.079  -7.593   8.576  0.00  0.00    +0.000 OA
ATOM      2  N   UNL     1      45.677   0.291  13.678  0.00  0.00    +0.000 NA
ATOM      3  C   UNL     1      45.977  -3.408  12.653  0.00  0.00    +0.000 C 
ATOM      4  C   UNL     1      45.175  -4.372  11.739  0.00  0.00    +0.000 C 
ATOM      5  C   UNL     1      47.498  -4.989  11.688  0.00  0.00    +0.000 C 
ATOM      6  C   UNL     1      46.231  -5.015  10.825  0.00  0.00    +0.000 C 
ATOM      7  C   UNL     1      45.458  -1.958  12.624  0.00  0.00    +0.000 C 
ATOM      8  C   UNL     1      47.455  -3.566  12.237  0.00  0.00    +0.000 C 
ATOM      9  C   UNL     1      48.753  -5.472  10.914  0.00  0.00    +0.000 C 
ATOM     10  C   UNL     1      43.937  -1.956  12.891  0.00  0.00    +0.000 C 
ATOM     11  C   UNL     1      44.070  -3.675  10.952  0.00  0.00    +0.000 C 
ATOM     12  C   UNL     1      48.448  -6.933  10.464  0.00  0.00    +0.000 C 
ATOM     13  C   UNL     1      43.180  -2.803  11.836  0.00  0.00    +0.000 C 
ATOM     14  C   UNL     1      43.391  -0.505  13.026  0.00  0.00    +0.000 C 
ATOM     15  C   UNL     1      45.917  -6.415  10.319  0.00  0.00    +0.000 C 
ATOM     16  C   UNL     1      46.194  -1.088  13.651  0.00  0.00    +0.000 C 
ATOM     17  C   UNL     1      44.240   0.311  14.072  0.00  0.00    +0.000 C 
ATOM     18  C   UNL     1      49.982  -5.508  11.858  0.00  0.00    +0.000 C 
ATOM     19  C   UNL     1      47.153  -7.003   9.652  0.00  0.00    +0.000 C 
ATOM     20  C   UNL     1      49.076  -4.556   9.707  0.00  0.00    +0.000 C 
ATOM     21  C   UNL     1      49.640  -7.596   9.774  0.00  0.00    +0.000 C 
ATOM     22  C   UNL     1      51.194  -6.211  11.242  0.00  0.00    +0.000 C 
ATOM     23  C   UNL     1      50.860  -7.600  10.698  0.00  0.00    +0.000 C 
ATOM     24  C   UNL     1      43.734   1.771  14.186  0.00  0.00    +0.000 C 
ATOM     25  C   UNL     1      46.507   1.083  14.608  0.00  0.00    +0.000 C 
ATOM     26  C   UNL     1      41.902  -0.515  13.401  0.00  0.00    +0.000 C 
ATOM     27  C   UNL     1      46.085   2.554  14.679  0.00  0.00    +0.000 C 
ATOM     28  C   UNL     1      44.614   2.638  15.081  0.00  0.00    +0.000 C 
ATOM     29  C   UNL     1      46.366   3.292  13.366  0.00  0.00    +0.000 C 
ENDROOT
BRANCH  14  30
ATOM     30  O   UNL     1      43.509   0.136  11.744  0.00  0.00    +0.000 OA
ATOM     31  H   UNL     1      42.784   0.793  11.722  0.00  0.00    +0.000 HD
ENDBRANCH  14  30
BRANCH  23  32
ATOM     32  O   UNL     1      51.996  -8.092   9.995  0.00  0.00    +0.000 OA
ATOM     33  H   UNL     1      51.706  -8.343   9.101  0.00  0.00    +0.000 HD
ENDBRANCH  23  32
TORSDOF 2
ENDMDL
MODEL 2
REMARK VINA RESULT:      -7.6      3.882      5.973
REMARK  Name = 
REMARK  5 active torsions:
REMARK  status: ('A' for Active; 'I' for Inactive)
REMARK    1  A    between atoms: O_1  and  C_16
REMARK    2  A    between atoms: O_3  and  C_25
REMARK    3  A    between atoms: C_11  and  C_22
REMARK    4  A    between atoms: C_16  and  C_28
REMARK    5  A    between atoms: C_29  and  C_31
REMARK                            x       y       z     vdW  Elec       q    Type
REMARK                         _______ _______ _______ _____ _____    ______ ____
ROOT
ATOM      1  O   UNL     1      41.954  -4.936   8.952  0.00  0.00    +0.000 OA
ATOM      2  N   UNL     1      49.462  -1.823  13.862  0.00  0.00    +0.000 NA
ATOM      3  C   UNL     1      45.853  -2.369  12.633  0.00  0.00    +0.000 C 
ATOM      4  C   UNL     1      45.050  -1.998  11.358  0.00  0.00    +0.000 C 
ATOM      5  C   UNL     1      44.228  -4.083  12.230  0.00  0.00    +0.000 C 
ATOM      6  C   UNL     1      44.394  -3.315  10.912  0.00  0.00    +0.000 C 
ATOM      7  C   UNL     1      47.342  -1.980  12.557  0.00  0.00    +0.000 C 
ATOM      8  C   UNL     1      45.596  -3.872  12.871  0.00  0.00    +0.000 C 
ATOM      9  C   UNL     1      43.701  -5.527  12.012  0.00  0.00    +0.000 C 
ATOM     10  C   UNL     1      47.461  -0.495  12.150  0.00  0.00    +0.000 C 
ATOM     11  C   UNL     1      45.912  -1.377  10.264  0.00  0.00    +0.000 C 
ATOM     12  C   UNL     1      42.319  -5.380  11.306  0.00  0.00    +0.000 C 
ATOM     13  C   UNL     1      46.782  -0.233  10.781  0.00  0.00    +0.000 C 
ATOM     14  C   UNL     1      48.939  -0.012  12.209  0.00  0.00    +0.000 C 
ATOM     15  C   UNL     1      43.078  -3.189  10.159  0.00  0.00    +0.000 C 
ATOM     16  C   UNL     1      48.048  -2.238  13.895  0.00  0.00    +0.000 C 
ATOM     17  C   UNL     1      49.579  -0.360  13.605  0.00  0.00    +0.000 C 
ATOM     18  C   UNL     1      43.470  -6.221  13.379  0.00  0.00    +0.000 C 
ATOM     19  C   UNL     1      42.440  -4.563  10.018  0.00  0.00    +0.000 C 
ATOM     20  C   UNL     1      44.684  -6.382  11.175  0.00  0.00    +0.000 C 
ATOM     21  C   UNL     1      41.612  -6.722  11.117  0.00  0.00    +0.000 C 
ATOM     22  C   UNL     1      42.714  -7.548  13.259  0.00  0.00    +0.000 C 
ATOM     23  C   UNL     1      41.414  -7.419  12.464  0.00  0.00    +0.000 C 
ATOM     24  C   UNL     1      51.065   0.078  13.665  0.00  0.00    +0.000 C 
ATOM     25  C   UNL     1      50.090  -2.204  15.143  0.00  0.00    +0.000 C 
ATOM     26  C   UNL     1      49.033   1.492  11.910  0.00  0.00    +0.000 C 
ATOM     27  C   UNL     1      51.581  -1.860  15.200  0.00  0.00    +0.000 C 
ATOM     28  C   UNL     1      51.766  -0.366  14.944  0.00  0.00    +0.000 C 
ATOM     29  C   UNL     1      52.401  -2.715  14.230  0.00  0.00    +0.000 C 
ENDROOT
BRANCH  14  30
ATOM     30  O   UNL     1      49.675  -0.702  11.186  0.00  0.00    +0.000 OA
ATOM     31  H   UNL     1      50.070   0.004  10.636  0.00  0.00    +0.000 HD
ENDBRANCH  14  30
BRANCH  23  32
ATOM     32  O   UNL     1      40.883  -8.723  12.260  0.00  0.00    +0.000 OA
ATOM     33  H   UNL     1      41.012  -8.954  11.323  0.00  0.00    +0.000 HD
ENDBRANCH  23  32
TORSDOF 2
ENDMDL
MODEL 3
REMARK VINA RESULT:      -7.4      4.843      7.789
REMARK  Name = 
REMARK  5 active torsions:
REMARK  status: ('A' for Active; 'I' for Inactive)
REMARK    1  A    between atoms: O_1  and  C_16
REMARK    2  A    between atoms: O_3  and  C_25
REMARK    3  A    between atoms: C_11  and  C_22
REMARK    4  A    between atoms: C_16  and  C_28
REMARK    5  A    between atoms: C_29  and  C_31
REMARK                            x       y       z     vdW  Elec       q    Type
REMARK                         _______ _______ _______ _____ _____    ______ ____
ROOT
ATOM      1  O   UNL     1      43.886  -2.902  10.203  0.00  0.00    +0.000 OA
ATOM      2  N   UNL     1      48.830  -6.229  17.595  0.00  0.00    +0.000 NA
ATOM      3  C   UNL     1      46.148  -4.454  15.477  0.00  0.00    +0.000 C 
ATOM      4  C   UNL     1      46.112  -3.205  14.557  0.00  0.00    +0.000 C 
ATOM      5  C   UNL     1      44.553  -4.838  13.731  0.00  0.00    +0.000 C 
ATOM      6  C   UNL     1      45.460  -3.698  13.254  0.00  0.00    +0.000 C 
ATOM      7  C   UNL     1      47.554  -4.783  16.014  0.00  0.00    +0.000 C 
ATOM      8  C   UNL     1      45.491  -5.592  14.669  0.00  0.00    +0.000 C 
ATOM      9  C   UNL     1      43.880  -5.593  12.553  0.00  0.00    +0.000 C 
ATOM     10  C   UNL     1      48.166  -3.516  16.651  0.00  0.00    +0.000 C 
ATOM     11  C   UNL     1      47.489  -2.591  14.323  0.00  0.00    +0.000 C 
ATOM     12  C   UNL     1      43.037  -4.530  11.785  0.00  0.00    +0.000 C 
ATOM     13  C   UNL     1      48.256  -2.359  15.623  0.00  0.00    +0.000 C 
ATOM     14  C   UNL     1      49.522  -3.833  17.345  0.00  0.00    +0.000 C 
ATOM     15  C   UNL     1      44.692  -2.657  12.454  0.00  0.00    +0.000 C 
ATOM     16  C   UNL     1      47.503  -5.933  17.028  0.00  0.00    +0.000 C 
ATOM     17  C   UNL     1      49.367  -5.051  18.331  0.00  0.00    +0.000 C 
ATOM     18  C   UNL     1      42.910  -6.673  13.097  0.00  0.00    +0.000 C 
ATOM     19  C   UNL     1      43.904  -3.347  11.349  0.00  0.00    +0.000 C 
ATOM     20  C   UNL     1      44.923  -6.274  11.632  0.00  0.00    +0.000 C 
ATOM     21  C   UNL     1      42.219  -5.142  10.648  0.00  0.00    +0.000 C 
ATOM     22  C   UNL     1      42.022  -7.285  12.010  0.00  0.00    +0.000 C 
ATOM     23  C   UNL     1      41.286  -6.230  11.183  0.00  0.00    +0.000 C 
ATOM     24  C   UNL     1      50.719  -5.406  19.000  0.00  0.00    +0.000 C 
ATOM     25  C   UNL     1      48.709  -7.411  18.472  0.00  0.00    +0.000 C 
ATOM     26  C   UNL     1      50.067  -2.593  18.069  0.00  0.00    +0.000 C 
ATOM     27  C   UNL     1      50.048  -7.839  19.082  0.00  0.00    +0.000 C 
ATOM     28  C   UNL     1      50.649  -6.667  19.854  0.00  0.00    +0.000 C 
ATOM     29  C   UNL     1      51.009  -8.384  18.022  0.00  0.00    +0.000 C 
ENDROOT
BRANCH  14  30
ATOM     30  O   UNL     1      50.471  -4.190  16.326  0.00  0.00    +0.000 OA
ATOM     31  H   UNL     1      51.110  -3.449  16.304  0.00  0.00    +0.000 HD
ENDBRANCH  14  30
BRANCH  23  32
ATOM     32  O   UNL     1      40.634  -6.884  10.099  0.00  0.00    +0.000 OA
ATOM     33  H   UNL     1      41.190  -6.774   9.308  0.00  0.00    +0.000 HD
ENDBRANCH  23  32
TORSDOF 2
ENDMDL
MODEL 4
REMARK VINA RESULT:      -7.3     35.543     38.318
REMARK  Name = 
REMARK  5 active torsions:
REMARK  status: ('A' for Active; 'I' for Inactive)
REMARK    1  A    between atoms: O_1  and  C_16
REMARK    2  A    between atoms: O_3  and  C_25
REMARK    3  A    between atoms: C_11  and  C_22
REMARK    4  A    between atoms: C_16  and  C_28
REMARK    5  A    between atoms: C_29  and  C_31
REMARK                            x       y       z     vdW  Elec       q    Type
REMARK                         _______ _______ _______ _____ _____    ______ ____
ROOT
ATOM      1  O   UNL     1      30.533  17.789  34.199  0.00  0.00    +0.000 OA
ATOM      2  N   UNL     1      22.454  22.220  31.909  0.00  0.00    +0.000 NA
ATOM      3  C   UNL     1      24.967  19.734  33.436  0.00  0.00    +0.000 C 
ATOM      4  C   UNL     1      25.885  18.610  32.886  0.00  0.00    +0.000 C 
ATOM      5  C   UNL     1      26.940  19.628  34.792  0.00  0.00    +0.000 C 
ATOM      6  C   UNL     1      27.272  18.914  33.476  0.00  0.00    +0.000 C 
ATOM      7  C   UNL     1      24.217  20.509  32.335  0.00  0.00    +0.000 C 
ATOM      8  C   UNL     1      25.866  20.610  34.334  0.00  0.00    +0.000 C 
ATOM      9  C   UNL     1      28.207  20.162  35.513  0.00  0.00    +0.000 C 
ATOM     10  C   UNL     1      23.495  19.507  31.408  0.00  0.00    +0.000 C 
ATOM     11  C   UNL     1      25.902  18.539  31.363  0.00  0.00    +0.000 C 
ATOM     12  C   UNL     1      29.100  18.916  35.796  0.00  0.00    +0.000 C 
ATOM     13  C   UNL     1      24.499  18.519  30.760  0.00  0.00    +0.000 C 
ATOM     14  C   UNL     1      22.597  20.244  30.373  0.00  0.00    +0.000 C 
ATOM     15  C   UNL     1      28.185  17.716  33.694  0.00  0.00    +0.000 C 
ATOM     16  C   UNL     1      23.221  21.506  32.943  0.00  0.00    +0.000 C 
ATOM     17  C   UNL     1      21.645  21.268  31.096  0.00  0.00    +0.000 C 
ATOM     18  C   UNL     1      27.819  20.794  36.874  0.00  0.00    +0.000 C 
ATOM     19  C   UNL     1      29.398  18.144  34.509  0.00  0.00    +0.000 C 
ATOM     20  C   UNL     1      28.952  21.221  34.663  0.00  0.00    +0.000 C 
ATOM     21  C   UNL     1      30.349  19.262  36.606  0.00  0.00    +0.000 C 
ATOM     22  C   UNL     1      29.030  21.112  37.755  0.00  0.00    +0.000 C 
ATOM     23  C   UNL     1      29.964  19.915  37.935  0.00  0.00    +0.000 C 
ATOM     24  C   UNL     1      20.773  22.040  30.074  0.00  0.00    +0.000 C 
ATOM     25  C   UNL     1      21.603  23.229  32.572  0.00  0.00    +0.000 C 
ATOM     26  C   UNL     1      21.800  19.239  29.529  0.00  0.00    +0.000 C 
ATOM     27  C   UNL     1      20.791  24.068  31.580  0.00  0.00    +0.000 C 
ATOM     28  C   UNL     1      19.937  23.142  30.716  0.00  0.00    +0.000 C 
ATOM     29  C   UNL     1      21.687  24.979  30.736  0.00  0.00    +0.000 C 
ENDROOT
BRANCH  14  30
ATOM     30  O   UNL     1      23.455  20.973  29.479  0.00  0.00    +0.000 OA
ATOM     31  H   UNL     1      23.275  21.916  29.667  0.00  0.00    +0.000 HD
ENDBRANCH  14  30
BRANCH  23  32
ATOM     32  O   UNL     1      31.134  20.357  38.613  0.00  0.00    +0.000 OA
ATOM     33  H   UNL     1      31.847  20.435  37.956  0.00  0.00    +0.000 HD
ENDBRANCH  23  32
TORSDOF 2
ENDMDL
MODEL 5
REMARK VINA RESULT:      -7.2     16.701     19.977
REMARK  Name = 
REMARK  5 active torsions:
REMARK  status: ('A' for Active; 'I' for Inactive)
REMARK    1  A    between atoms: O_1  and  C_16
REMARK    2  A    between atoms: O_3  and  C_25
REMARK    3  A    between atoms: C_11  and  C_22
REMARK    4  A    between atoms: C_16  and  C_28
REMARK    5  A    between atoms: C_29  and  C_31
REMARK                            x       y       z     vdW  Elec       q    Type
REMARK                         _______ _______ _______ _____ _____    ______ ____
ROOT
ATOM      1  O   UNL     1      44.779  19.057  17.784  0.00  0.00    +0.000 OA
ATOM      2  N   UNL     1      40.469  10.879  19.952  0.00  0.00    +0.000 NA
ATOM      3  C   UNL     1      41.316  14.252  18.299  0.00  0.00    +0.000 C 
ATOM      4  C   UNL     1      41.306  15.738  18.747  0.00  0.00    +0.000 C 
ATOM      5  C   UNL     1      43.068  15.409  17.145  0.00  0.00    +0.000 C 
ATOM      6  C   UNL     1      42.692  16.274  18.354  0.00  0.00    +0.000 C 
ATOM      7  C   UNL     1      40.969  13.265  19.430  0.00  0.00    +0.000 C 
ATOM      8  C   UNL     1      42.695  14.017  17.647  0.00  0.00    +0.000 C 
ATOM      9  C   UNL     1      44.514  15.680  16.648  0.00  0.00    +0.000 C 
ATOM     10  C   UNL     1      39.653  13.709  20.107  0.00  0.00    +0.000 C 
ATOM     11  C   UNL     1      41.013  15.915  20.233  0.00  0.00    +0.000 C 
ATOM     12  C   UNL     1      44.561  17.188  16.257  0.00  0.00    +0.000 C 
ATOM     13  C   UNL     1      39.774  15.143  20.683  0.00  0.00    +0.000 C 
ATOM     14  C   UNL     1      39.179  12.660  21.154  0.00  0.00    +0.000 C 
ATOM     15  C   UNL     1      42.772  17.760  18.036  0.00  0.00    +0.000 C 
ATOM     16  C   UNL     1      40.852  11.832  18.896  0.00  0.00    +0.000 C 
ATOM     17  C   UNL     1      39.133  11.222  20.516  0.00  0.00    +0.000 C 
ATOM     18  C   UNL     1      44.805  14.844  15.376  0.00  0.00    +0.000 C 
ATOM     19  C   UNL     1      44.130  18.076  17.425  0.00  0.00    +0.000 C 
ATOM     20  C   UNL     1      45.570  15.334  17.727  0.00  0.00    +0.000 C 
ATOM     21  C   UNL     1      45.900  17.592  15.641  0.00  0.00    +0.000 C 
ATOM     22  C   UNL     1      46.111  15.243  14.681  0.00  0.00    +0.000 C 
ATOM     23  C   UNL     1      46.200  16.744  14.404  0.00  0.00    +0.000 C 
ATOM     24  C   UNL     1      38.701  10.159  21.558  0.00  0.00    +0.000 C 
ATOM     25  C   UNL     1      40.485   9.518  19.380  0.00  0.00    +0.000 C 
ATOM     26  C   UNL     1      37.815  13.054  21.742  0.00  0.00    +0.000 C 
ATOM     27  C   UNL     1      40.145   8.435  20.409  0.00  0.00    +0.000 C 
ATOM     28  C   UNL     1      38.780   8.733  21.023  0.00  0.00    +0.000 C 
ATOM     29  C   UNL     1      41.238   8.297  21.473  0.00  0.00    +0.000 C 
ENDROOT
BRANCH  14  30
ATOM     30  O   UNL     1      40.127  12.648  22.235  0.00  0.00    +0.000 OA
ATOM     31  H   UNL     1      40.571  13.519  22.193  0.00  0.00    +0.000 HD
ENDBRANCH  14  30
BRANCH  23  32
ATOM     32  O   UNL     1      47.508  17.034  13.924  0.00  0.00    +0.000 OA
ATOM     33  H   UNL     1      47.501  17.941  13.572  0.00  0.00    +0.000 HD
ENDBRANCH  23  32
TORSDOF 2
ENDMDL
MODEL 6
REMARK VINA RESULT:      -7.1      4.167      6.542
REMARK  Name = 
REMARK  5 active torsions:
REMARK  status: ('A' for Active; 'I' for Inactive)
REMARK    1  A    between atoms: O_1  and  C_16
REMARK    2  A    between atoms: O_3  and  C_25
REMARK    3  A    between atoms: C_11  and  C_22
REMARK    4  A    between atoms: C_16  and  C_28
REMARK    5  A    between atoms: C_29  and  C_31
REMARK                            x       y       z     vdW  Elec       q    Type
REMARK                         _______ _______ _______ _____ _____    ______ ____
ROOT
ATOM      1  O   UNL     1      42.345  -4.996  12.524  0.00  0.00    +0.000 OA
ATOM      2  N   UNL     1      51.559  -3.009  13.666  0.00  0.00    +0.000 NA
ATOM      3  C   UNL     1      48.172  -4.841  13.692  0.00  0.00    +0.000 C 
ATOM      4  C   UNL     1      46.834  -4.682  14.461  0.00  0.00    +0.000 C 
ATOM      5  C   UNL     1      46.380  -5.530  12.258  0.00  0.00    +0.000 C 
ATOM      6  C   UNL     1      45.752  -4.680  13.369  0.00  0.00    +0.000 C 
ATOM      7  C   UNL     1      49.199  -3.736  14.008  0.00  0.00    +0.000 C 
ATOM      8  C   UNL     1      47.790  -4.949  12.200  0.00  0.00    +0.000 C 
ATOM      9  C   UNL     1      45.513  -5.559  10.971  0.00  0.00    +0.000 C 
ATOM     10  C   UNL     1      49.365  -3.619  15.539  0.00  0.00    +0.000 C 
ATOM     11  C   UNL     1      46.785  -3.431  15.332  0.00  0.00    +0.000 C 
ATOM     12  C   UNL     1      44.139  -6.165  11.390  0.00  0.00    +0.000 C 
ATOM     13  C   UNL     1      48.015  -3.290  16.227  0.00  0.00    +0.000 C 
ATOM     14  C   UNL     1      50.504  -2.624  15.907  0.00  0.00    +0.000 C 
ATOM     15  C   UNL     1      44.383  -5.204  13.779  0.00  0.00    +0.000 C 
ATOM     16  C   UNL     1      50.546  -4.025  13.333  0.00  0.00    +0.000 C 
ATOM     17  C   UNL     1      51.826  -2.986  15.131  0.00  0.00    +0.000 C 
ATOM     18  C   UNL     1      46.152  -6.500   9.918  0.00  0.00    +0.000 C 
ATOM     19  C   UNL     1      43.514  -5.376  12.541  0.00  0.00    +0.000 C 
ATOM     20  C   UNL     1      45.352  -4.149  10.350  0.00  0.00    +0.000 C 
ATOM     21  C   UNL     1      43.199  -6.363  10.201  0.00  0.00    +0.000 C 
ATOM     22  C   UNL     1      45.232  -6.782   8.726  0.00  0.00    +0.000 C 
ATOM     23  C   UNL     1      43.846  -7.267   9.149  0.00  0.00    +0.000 C 
ATOM     24  C   UNL     1      52.959  -1.979  15.456  0.00  0.00    +0.000 C 
ATOM     25  C   UNL     1      52.783  -3.300  12.894  0.00  0.00    +0.000 C 
ATOM     26  C   UNL     1      50.736  -2.598  17.425  0.00  0.00    +0.000 C 
ATOM     27  C   UNL     1      53.895  -2.272  13.128  0.00  0.00    +0.000 C 
ATOM     28  C   UNL     1      54.214  -2.205  14.620  0.00  0.00    +0.000 C 
ATOM     29  C   UNL     1      53.531  -0.900  12.555  0.00  0.00    +0.000 C 
ENDROOT
BRANCH  14  30
ATOM     30  O   UNL     1      50.090  -1.306  15.511  0.00  0.00    +0.000 OA
ATOM     31  H   UNL     1      49.822  -0.863  16.342  0.00  0.00    +0.000 HD
ENDBRANCH  14  30
BRANCH  23  32
ATOM     32  O   UNL     1      43.020  -7.329   7.992  0.00  0.00    +0.000 OA
ATOM     33  H   UNL     1      42.319  -6.661   8.090  0.00  0.00    +0.000 HD
ENDBRANCH  23  32
TORSDOF 2
ENDMDL
MODEL 7
REMARK VINA RESULT:      -7.0     27.883     30.294
REMARK  Name = 
REMARK  5 active torsions:
REMARK  status: ('A' for Active; 'I' for Inactive)
REMARK    1  A    between atoms: O_1  and  C_16
REMARK    2  A    between atoms: O_3  and  C_25
REMARK    3  A    between atoms: C_11  and  C_22
REMARK    4  A    between atoms: C_16  and  C_28
REMARK    5  A    between atoms: C_29  and  C_31
REMARK                            x       y       z     vdW  Elec       q    Type
REMARK                         _______ _______ _______ _____ _____    ______ ____
ROOT
ATOM      1  O   UNL     1      31.730   6.138  -6.516  0.00  0.00    +0.000 OA
ATOM      2  N   UNL     1      27.098  13.762  -9.767  0.00  0.00    +0.000 NA
ATOM      3  C   UNL     1      28.428  10.993  -7.444  0.00  0.00    +0.000 C 
ATOM      4  C   UNL     1      28.220   9.461  -7.317  0.00  0.00    +0.000 C 
ATOM      5  C   UNL     1      30.459  10.013  -6.636  0.00  0.00    +0.000 C 
ATOM      6  C   UNL     1      29.641   8.877  -7.263  0.00  0.00    +0.000 C 
ATOM      7  C   UNL     1      27.705  11.614  -8.655  0.00  0.00    +0.000 C 
ATOM      8  C   UNL     1      29.955  11.214  -7.429  0.00  0.00    +0.000 C 
ATOM      9  C   UNL     1      31.979   9.701  -6.604  0.00  0.00    +0.000 C 
ATOM     10  C   UNL     1      26.223  11.180  -8.642  0.00  0.00    +0.000 C 
ATOM     11  C   UNL     1      27.390   8.871  -8.452  0.00  0.00    +0.000 C 
ATOM     12  C   UNL     1      32.137   8.403  -5.755  0.00  0.00    +0.000 C 
ATOM     13  C   UNL     1      26.090   9.636  -8.689  0.00  0.00    +0.000 C 
ATOM     14  C   UNL     1      25.415  11.904  -9.757  0.00  0.00    +0.000 C 
ATOM     15  C   UNL     1      29.802   7.571  -6.498  0.00  0.00    +0.000 C 
ATOM     16  C   UNL     1      27.827  13.144  -8.646  0.00  0.00    +0.000 C 
ATOM     17  C   UNL     1      25.641  13.461  -9.683  0.00  0.00    +0.000 C 
ATOM     18  C   UNL     1      32.742  10.841  -5.883  0.00  0.00    +0.000 C 
ATOM     19  C   UNL     1      31.282   7.266  -6.320  0.00  0.00    +0.000 C 
ATOM     20  C   UNL     1      32.564   9.530  -8.028  0.00  0.00    +0.000 C 
ATOM     21  C   UNL     1      33.600   8.020  -5.537  0.00  0.00    +0.000 C 
ATOM     22  C   UNL     1      34.203  10.493  -5.586  0.00  0.00    +0.000 C 
ATOM     23  C   UNL     1      34.358   9.160  -4.853  0.00  0.00    +0.000 C 
ATOM     24  C   UNL     1      24.875  14.193 -10.813  0.00  0.00    +0.000 C 
ATOM     25  C   UNL     1      27.356  15.216  -9.745  0.00  0.00    +0.000 C 
ATOM     26  C   UNL     1      23.923  11.551  -9.666  0.00  0.00    +0.000 C 
ATOM     27  C   UNL     1      26.680  15.958 -10.903  0.00  0.00    +0.000 C 
ATOM     28  C   UNL     1      25.177  15.686 -10.868  0.00  0.00    +0.000 C 
ATOM     29  C   UNL     1      27.299  15.591 -12.254  0.00  0.00    +0.000 C 
ENDROOT
BRANCH  14  30
ATOM     30  O   UNL     1      25.892  11.435 -11.030  0.00  0.00    +0.000 OA
ATOM     31  H   UNL     1      25.521  12.060 -11.686  0.00  0.00    +0.000 HD
ENDBRANCH  14  30
BRANCH  23  32
ATOM     32  O   UNL     1      35.744   8.844  -4.782  0.00  0.00    +0.000 OA
ATOM     33  H   UNL     1      36.149   9.093  -5.631  0.00  0.00    +0.000 HD
ENDBRANCH  23  32
TORSDOF 2
ENDMDL
MODEL 8
REMARK VINA RESULT:      -6.5     37.183     41.884
REMARK  Name = 
REMARK  5 active torsions:
REMARK  status: ('A' for Active; 'I' for Inactive)
REMARK    1  A    between atoms: O_1  and  C_16
REMARK    2  A    between atoms: O_3  and  C_25
REMARK    3  A    between atoms: C_11  and  C_22
REMARK    4  A    between atoms: C_16  and  C_28
REMARK    5  A    between atoms: C_29  and  C_31
REMARK                            x       y       z     vdW  Elec       q    Type
REMARK                         _______ _______ _______ _____ _____    ______ ____
ROOT
ATOM      1  O   UNL     1      21.769  27.764   1.329  0.00  0.00    +0.000 OA
ATOM      2  N   UNL     1      19.288  30.780   9.984  0.00  0.00    +0.000 NA
ATOM      3  C   UNL     1      19.506  28.709   6.744  0.00  0.00    +0.000 C 
ATOM      4  C   UNL     1      19.091  28.923   5.264  0.00  0.00    +0.000 C 
ATOM      5  C   UNL     1      21.060  27.546   5.341  0.00  0.00    +0.000 C 
ATOM      6  C   UNL     1      20.348  28.572   4.451  0.00  0.00    +0.000 C 
ATOM      7  C   UNL     1      19.268  29.945   7.634  0.00  0.00    +0.000 C 
ATOM      8  C   UNL     1      20.969  28.221   6.706  0.00  0.00    +0.000 C 
ATOM      9  C   UNL     1      22.450  27.139   4.780  0.00  0.00    +0.000 C 
ATOM     10  C   UNL     1      17.814  30.431   7.454  0.00  0.00    +0.000 C 
ATOM     11  C   UNL     1      18.587  30.334   4.979  0.00  0.00    +0.000 C 
ATOM     12  C   UNL     1      22.185  26.527   3.371  0.00  0.00    +0.000 C 
ATOM     13  C   UNL     1      17.522  30.789   5.974  0.00  0.00    +0.000 C 
ATOM     14  C   UNL     1      17.478  31.582   8.446  0.00  0.00    +0.000 C 
ATOM     15  C   UNL     1      20.111  28.039   3.046  0.00  0.00    +0.000 C 
ATOM     16  C   UNL     1      19.560  29.628   9.107  0.00  0.00    +0.000 C 
ATOM     17  C   UNL     1      17.852  31.169   9.919  0.00  0.00    +0.000 C 
ATOM     18  C   UNL     1      23.082  26.039   5.670  0.00  0.00    +0.000 C 
ATOM     19  C   UNL     1      21.418  27.505   2.478  0.00  0.00    +0.000 C 
ATOM     20  C   UNL     1      23.420  28.345   4.709  0.00  0.00    +0.000 C 
ATOM     21  C   UNL     1      23.455  25.973   2.725  0.00  0.00    +0.000 C 
ATOM     22  C   UNL     1      24.330  25.406   5.048  0.00  0.00    +0.000 C 
ATOM     23  C   UNL     1      24.094  24.911   3.621  0.00  0.00    +0.000 C 
ATOM     24  C   UNL     1      17.561  32.321  10.914  0.00  0.00    +0.000 C 
ATOM     25  C   UNL     1      19.696  30.427  11.358  0.00  0.00    +0.000 C 
ATOM     26  C   UNL     1      16.000  31.983   8.336  0.00  0.00    +0.000 C 
ATOM     27  C   UNL     1      19.500  31.576  12.352  0.00  0.00    +0.000 C 
ATOM     28  C   UNL     1      18.039  32.019  12.330  0.00  0.00    +0.000 C 
ATOM     29  C   UNL     1      20.458  32.739  12.074  0.00  0.00    +0.000 C 
ENDROOT
BRANCH  14  30
ATOM     30  O   UNL     1      18.265  32.729   8.081  0.00  0.00    +0.000 OA
ATOM     31  H   UNL     1      18.409  33.215   8.918  0.00  0.00    +0.000 HD
ENDBRANCH  14  30
BRANCH  23  32
ATOM     32  O   UNL     1      25.344  24.506   3.074  0.00  0.00    +0.000 OA
ATOM     33  H   UNL     1      26.027  24.657   3.750  0.00  0.00    +0.000 HD
ENDBRANCH  23  32
TORSDOF 2
ENDMDL
MODEL 9
REMARK VINA RESULT:      -6.3     36.714     42.339
REMARK  Name = 
REMARK  5 active torsions:
REMARK  status: ('A' for Active; 'I' for Inactive)
REMARK    1  A    between atoms: O_1  and  C_16
REMARK    2  A    between atoms: O_3  and  C_25
REMARK    3  A    between atoms: C_11  and  C_22
REMARK    4  A    between atoms: C_16  and  C_28
REMARK    5  A    between atoms: C_29  and  C_31
REMARK                            x       y       z     vdW  Elec       q    Type
REMARK                         _______ _______ _______ _____ _____    ______ ____
ROOT
ATOM      1  O   UNL     1      20.845  29.275  33.160  0.00  0.00    +0.000 OA
ATOM      2  N   UNL     1      22.095  20.172  30.766  0.00  0.00    +0.000 NA
ATOM      3  C   UNL     1      20.584  23.696  31.122  0.00  0.00    +0.000 C 
ATOM      4  C   UNL     1      19.986  24.532  32.285  0.00  0.00    +0.000 C 
ATOM      5  C   UNL     1      21.060  26.010  30.723  0.00  0.00    +0.000 C 
ATOM      6  C   UNL     1      20.716  25.883  32.212  0.00  0.00    +0.000 C 
ATOM      7  C   UNL     1      21.153  22.336  31.571  0.00  0.00    +0.000 C 
ATOM      8  C   UNL     1      21.606  24.618  30.424  0.00  0.00    +0.000 C 
ATOM      9  C   UNL     1      21.936  27.256  30.421  0.00  0.00    +0.000 C 
ATOM     10  C   UNL     1      20.088  21.586  32.400  0.00  0.00    +0.000 C 
ATOM     11  C   UNL     1      20.137  23.861  33.647  0.00  0.00    +0.000 C 
ATOM     12  C   UNL     1      21.103  28.491  30.881  0.00  0.00    +0.000 C 
ATOM     13  C   UNL     1      19.661  22.410  33.642  0.00  0.00    +0.000 C 
ATOM     14  C   UNL     1      20.557  20.143  32.745  0.00  0.00    +0.000 C 
ATOM     15  C   UNL     1      19.944  27.091  32.722  0.00  0.00    +0.000 C 
ATOM     16  C   UNL     1      21.597  21.499  30.364  0.00  0.00    +0.000 C 
ATOM     17  C   UNL     1      21.026  19.388  31.446  0.00  0.00    +0.000 C 
ATOM     18  C   UNL     1      22.177  27.381  28.895  0.00  0.00    +0.000 C 
ATOM     19  C   UNL     1      20.690  28.364  32.349  0.00  0.00    +0.000 C 
ATOM     20  C   UNL     1      23.306  27.187  31.141  0.00  0.00    +0.000 C 
ATOM     21  C   UNL     1      21.789  29.816  30.550  0.00  0.00    +0.000 C 
ATOM     22  C   UNL     1      22.813  28.715  28.495  0.00  0.00    +0.000 C 
ATOM     23  C   UNL     1      22.055  29.922  29.047  0.00  0.00    +0.000 C 
ATOM     24  C   UNL     1      21.536  17.963  31.781  0.00  0.00    +0.000 C 
ATOM     25  C   UNL     1      22.598  19.479  29.564  0.00  0.00    +0.000 C 
ATOM     26  C   UNL     1      19.448  19.369  33.473  0.00  0.00    +0.000 C 
ATOM     27  C   UNL     1      23.187  18.099  29.874  0.00  0.00    +0.000 C 
ATOM     28  C   UNL     1      22.133  17.245  30.575  0.00  0.00    +0.000 C 
ATOM     29  C   UNL     1      24.479  18.202  30.690  0.00  0.00    +0.000 C 
ENDROOT
BRANCH  14  30
ATOM     30  O   UNL     1      21.675  20.242  33.644  0.00  0.00    +0.000 OA
ATOM     31  H   UNL     1      21.393  19.771  34.454  0.00  0.00    +0.000 HD
ENDBRANCH  14  30
BRANCH  23  32
ATOM     32  O   UNL     1      22.815  31.094  28.772  0.00  0.00    +0.000 OA
ATOM     33  H   UNL     1      23.705  30.965  29.145  0.00  0.00    +0.000 HD
ENDBRANCH  23  32
TORSDOF 2
ENDMDL
