MODEL 1
REMARK VINA RESULT:      -7.2      0.000      0.000
REMARK  Name = PhIP.pdbqt.pdb
REMARK  2 active torsions:
REMARK  status: ('A' for Active; 'I' for Inactive)
REMARK    1  A    between atoms: N_4  and  C_9
REMARK    2  A    between atoms: C_7  and  C_10
REMARK                            x       y       z     vdW  Elec       q    Type
REMARK                         _______ _______ _______ _____ _____    ______ ____
ROOT
ATOM      1  N   UNL     1      44.170  -4.650  13.855  0.00  0.00    +0.000 N 
ATOM      2  N   UNL     1      41.844  -5.074  13.569  0.00  0.00    +0.000 NA
ATOM      3  N   UNL     1      42.046  -6.518  11.629  0.00  0.00    +0.000 NA
ATOM      4  C   UNL     1      44.054  -5.511  12.806  0.00  0.00    +0.000 C 
ATOM      5  C   UNL     1      42.540  -5.732  12.678  0.00  0.00    +0.000 C 
ATOM      6  C   UNL     1      44.333  -6.663  10.679  0.00  0.00    +0.000 C 
ATOM      7  C   UNL     1      44.786  -5.922  11.815  0.00  0.00    +0.000 C 
ATOM      8  C   UNL     1      42.851  -4.406  14.245  0.00  0.00    +0.000 C 
ATOM      9  C   UNL     1      45.205  -3.632  13.920  0.00  0.00    +0.000 C 
ATOM     10  C   UNL     1      42.918  -6.800  10.887  0.00  0.00    +0.000 C 
ENDROOT
BRANCH   6  11
ATOM     11  C   UNL     1      45.130  -7.219   9.602  0.00  0.00    +0.000 A 
ATOM     12  C   UNL     1      46.507  -7.393   9.754  0.00  0.00    +0.000 A 
ATOM     13  C   UNL     1      44.535  -7.592   8.395  0.00  0.00    +0.000 A 
ATOM     14  C   UNL     1      47.276  -7.927   8.721  0.00  0.00    +0.000 A 
ATOM     15  C   UNL     1      45.298  -8.126   7.359  0.00  0.00    +0.000 A 
ATOM     16  C   UNL     1      46.671  -8.293   7.523  0.00  0.00    +0.000 A 
ENDBRANCH   6  11
BRANCH   8  17
ATOM     17  N   UNL     1      42.453  -3.463  15.208  0.00  0.00    +0.000 NA
ATOM     18  H   UNL     1      41.515  -3.107  15.063  0.00  0.00    +0.000 HD
ATOM     19  H   UNL     1      42.637  -3.768  16.156  0.00  0.00    +0.000 HD
ENDBRANCH   8  17
TORSDOF 2
ENDMDL
MODEL 2
REMARK VINA RESULT:      -6.4     35.553     36.757
REMARK  Name = PhIP.pdbqt.pdb
REMARK  2 active torsions:
REMARK  status: ('A' for Active; 'I' for Inactive)
REMARK    1  A    between atoms: N_4  and  C_9
REMARK    2  A    between atoms: C_7  and  C_10
REMARK                            x       y       z     vdW  Elec       q    Type
REMARK                         _______ _______ _______ _____ _____    ______ ____
ROOT
ATOM      1  N   UNL     1      23.060  22.054   0.188  0.00  0.00    +0.000 N 
ATOM      2  N   UNL     1      23.497  19.962  -0.865  0.00  0.00    +0.000 NA
ATOM      3  N   UNL     1      21.874  18.661   0.386  0.00  0.00    +0.000 NA
ATOM      4  C   UNL     1      22.193  21.153   0.729  0.00  0.00    +0.000 C 
ATOM      5  C   UNL     1      22.534  19.838   0.013  0.00  0.00    +0.000 C 
ATOM      6  C   UNL     1      20.792  19.876   2.257  0.00  0.00    +0.000 C 
ATOM      7  C   UNL     1      21.433  21.061   1.779  0.00  0.00    +0.000 C 
ATOM      8  C   UNL     1      23.816  21.302  -0.714  0.00  0.00    +0.000 C 
ATOM      9  C   UNL     1      23.624  23.151   0.954  0.00  0.00    +0.000 C 
ATOM     10  C   UNL     1      21.210  18.852   1.342  0.00  0.00    +0.000 C 
ENDROOT
BRANCH   6  11
ATOM     11  C   UNL     1      19.865  19.751   3.366  0.00  0.00    +0.000 A 
ATOM     12  C   UNL     1      19.053  20.824   3.739  0.00  0.00    +0.000 A 
ATOM     13  C   UNL     1      19.767  18.555   4.080  0.00  0.00    +0.000 A 
ATOM     14  C   UNL     1      18.161  20.707   4.804  0.00  0.00    +0.000 A 
ATOM     15  C   UNL     1      18.878  18.432   5.146  0.00  0.00    +0.000 A 
ATOM     16  C   UNL     1      18.074  19.510   5.508  0.00  0.00    +0.000 A 
ENDBRANCH   6  11
BRANCH   8  17
ATOM     17  N   UNL     1      24.939  21.770  -1.416  0.00  0.00    +0.000 NA
ATOM     18  H   UNL     1      25.154  22.744  -1.233  0.00  0.00    +0.000 HD
ATOM     19  H   UNL     1      25.736  21.150  -1.342  0.00  0.00    +0.000 HD
ENDBRANCH   8  17
TORSDOF 2
ENDMDL
MODEL 3
REMARK VINA RESULT:      -5.8     16.331     18.139
REMARK  Name = PhIP.pdbqt.pdb
REMARK  2 active torsions:
REMARK  status: ('A' for Active; 'I' for Inactive)
REMARK    1  A    between atoms: N_4  and  C_9
REMARK    2  A    between atoms: C_7  and  C_10
REMARK                            x       y       z     vdW  Elec       q    Type
REMARK                         _______ _______ _______ _____ _____    ______ ____
ROOT
ATOM      1  N   UNL     1      25.607  -2.635  14.726  0.00  0.00    +0.000 N 
ATOM      2  N   UNL     1      27.081  -2.975  12.886  0.00  0.00    +0.000 NA
ATOM      3  N   UNL     1      28.471  -4.666  13.933  0.00  0.00    +0.000 NA
ATOM      4  C   UNL     1      26.475  -3.617  15.095  0.00  0.00    +0.000 C 
ATOM      5  C   UNL     1      27.390  -3.777  13.872  0.00  0.00    +0.000 C 
ATOM      6  C   UNL     1      28.005  -5.047  16.339  0.00  0.00    +0.000 C 
ATOM      7  C   UNL     1      26.870  -4.189  16.193  0.00  0.00    +0.000 C 
ATOM      8  C   UNL     1      26.021  -2.277  13.441  0.00  0.00    +0.000 C 
ATOM      9  C   UNL     1      25.071  -1.670  15.671  0.00  0.00    +0.000 C 
ATOM     10  C   UNL     1      28.592  -5.085  15.029  0.00  0.00    +0.000 C 
ENDROOT
BRANCH   6  11
ATOM     11  C   UNL     1      28.423  -5.776  17.521  0.00  0.00    +0.000 A 
ATOM     12  C   UNL     1      27.493  -6.484  18.286  0.00  0.00    +0.000 A 
ATOM     13  C   UNL     1      29.762  -5.785  17.914  0.00  0.00    +0.000 A 
ATOM     14  C   UNL     1      27.892  -7.186  19.422  0.00  0.00    +0.000 A 
ATOM     15  C   UNL     1      30.167  -6.485  19.050  0.00  0.00    +0.000 A 
ATOM     16  C   UNL     1      29.230  -7.186  19.804  0.00  0.00    +0.000 A 
ENDBRANCH   6  11
BRANCH   8  17
ATOM     17  N   UNL     1      25.511  -1.199  12.697  0.00  0.00    +0.000 NA
ATOM     18  H   UNL     1      24.628  -0.845  13.050  0.00  0.00    +0.000 HD
ATOM     19  H   UNL     1      26.203  -0.481  12.521  0.00  0.00    +0.000 HD
ENDBRANCH   8  17
TORSDOF 2
ENDMDL
MODEL 4
REMARK VINA RESULT:      -5.8     26.503     27.710
REMARK  Name = PhIP.pdbqt.pdb
REMARK  2 active torsions:
REMARK  status: ('A' for Active; 'I' for Inactive)
REMARK    1  A    between atoms: N_4  and  C_9
REMARK    2  A    between atoms: C_7  and  C_10
REMARK                            x       y       z     vdW  Elec       q    Type
REMARK                         _______ _______ _______ _____ _____    ______ ____
ROOT
ATOM      1  N   UNL     1      30.788   5.505  -6.824  0.00  0.00    +0.000 N 
ATOM      2  N   UNL     1      32.820   6.462  -6.030  0.00  0.00    +0.000 NA
ATOM      3  N   UNL     1      31.933   8.666  -5.535  0.00  0.00    +0.000 NA
ATOM      4  C   UNL     1      30.497   6.778  -6.434  0.00  0.00    +0.000 C 
ATOM      5  C   UNL     1      31.844   7.329  -5.944  0.00  0.00    +0.000 C 
ATOM      6  C   UNL     1      29.600   9.037  -6.291  0.00  0.00    +0.000 C 
ATOM      7  C   UNL     1      29.548   7.645  -6.616  0.00  0.00    +0.000 C 
ATOM      8  C   UNL     1      32.160   5.381  -6.593  0.00  0.00    +0.000 C 
ATOM      9  C   UNL     1      30.123   4.860  -7.943  0.00  0.00    +0.000 C 
ATOM     10  C   UNL     1      30.923   9.230  -5.768  0.00  0.00    +0.000 C 
ENDROOT
BRANCH   6  11
ATOM     11  C   UNL     1      28.534  10.015  -6.392  0.00  0.00    +0.000 A 
ATOM     12  C   UNL     1      27.196   9.614  -6.374  0.00  0.00    +0.000 A 
ATOM     13  C   UNL     1      28.825  11.376  -6.506  0.00  0.00    +0.000 A 
ATOM     14  C   UNL     1      26.170  10.553  -6.470  0.00  0.00    +0.000 A 
ATOM     15  C   UNL     1      27.803  12.319  -6.603  0.00  0.00    +0.000 A 
ATOM     16  C   UNL     1      26.474  11.905  -6.584  0.00  0.00    +0.000 A 
ENDBRANCH   6  11
BRANCH   8  17
ATOM     17  N   UNL     1      32.948   4.282  -6.973  0.00  0.00    +0.000 NA
ATOM     18  H   UNL     1      33.930   4.510  -7.092  0.00  0.00    +0.000 HD
ATOM     19  H   UNL     1      32.782   3.463  -6.403  0.00  0.00    +0.000 HD
ENDBRANCH   8  17
TORSDOF 2
ENDMDL
MODEL 5
REMARK VINA RESULT:      -5.6     36.282     38.188
REMARK  Name = PhIP.pdbqt.pdb
REMARK  2 active torsions:
REMARK  status: ('A' for Active; 'I' for Inactive)
REMARK    1  A    between atoms: N_4  and  C_9
REMARK    2  A    between atoms: C_7  and  C_10
REMARK                            x       y       z     vdW  Elec       q    Type
REMARK                         _______ _______ _______ _____ _____    ______ ____
ROOT
ATOM      1  N   UNL     1      24.672  23.030   1.185  0.00  0.00    +0.000 N 
ATOM      2  N   UNL     1      23.319  21.439   2.330  0.00  0.00    +0.000 NA
ATOM      3  N   UNL     1      22.580  22.911   4.112  0.00  0.00    +0.000 NA
ATOM      4  C   UNL     1      24.102  23.683   2.236  0.00  0.00    +0.000 C 
ATOM      5  C   UNL     1      23.256  22.602   2.925  0.00  0.00    +0.000 C 
ATOM      6  C   UNL     1      23.692  25.128   4.153  0.00  0.00    +0.000 C 
ATOM      7  C   UNL     1      24.291  24.783   2.901  0.00  0.00    +0.000 C 
ATOM      8  C   UNL     1      24.204  21.719   1.302  0.00  0.00    +0.000 C 
ATOM      9  C   UNL     1      26.006  23.343   0.702  0.00  0.00    +0.000 C 
ATOM     10  C   UNL     1      22.890  23.985   4.490  0.00  0.00    +0.000 C 
ENDROOT
BRANCH   6  11
ATOM     11  C   UNL     1      23.804  26.379   4.879  0.00  0.00    +0.000 A 
ATOM     12  C   UNL     1      23.112  26.570   6.077  0.00  0.00    +0.000 A 
ATOM     13  C   UNL     1      24.606  27.414   4.394  0.00  0.00    +0.000 A 
ATOM     14  C   UNL     1      23.218  27.771   6.776  0.00  0.00    +0.000 A 
ATOM     15  C   UNL     1      24.715  28.617   5.089  0.00  0.00    +0.000 A 
ATOM     16  C   UNL     1      24.020  28.795   6.282  0.00  0.00    +0.000 A 
ENDBRANCH   6  11
BRANCH   8  17
ATOM     17  N   UNL     1      24.632  20.634   0.519  0.00  0.00    +0.000 NA
ATOM     18  H   UNL     1      25.164  19.944   1.039  0.00  0.00    +0.000 HD
ATOM     19  H   UNL     1      23.891  20.242  -0.048  0.00  0.00    +0.000 HD
ENDBRANCH   8  17
TORSDOF 2
ENDMDL
MODEL 6
REMARK VINA RESULT:      -5.3     36.038     37.602
REMARK  Name = PhIP.pdbqt.pdb
REMARK  2 active torsions:
REMARK  status: ('A' for Active; 'I' for Inactive)
REMARK    1  A    between atoms: N_4  and  C_9
REMARK    2  A    between atoms: C_7  and  C_10
REMARK                            x       y       z     vdW  Elec       q    Type
REMARK                         _______ _______ _______ _____ _____    ______ ____
ROOT
ATOM      1  N   UNL     1      25.779  26.433   3.098  0.00  0.00    +0.000 N 
ATOM      2  N   UNL     1      24.680  27.070   5.113  0.00  0.00    +0.000 NA
ATOM      3  N   UNL     1      23.337  25.064   5.361  0.00  0.00    +0.000 NA
ATOM      4  C   UNL     1      24.979  25.390   3.456  0.00  0.00    +0.000 C 
ATOM      5  C   UNL     1      24.304  25.872   4.748  0.00  0.00    +0.000 C 
ATOM      6  C   UNL     1      23.437  23.506   3.434  0.00  0.00    +0.000 C 
ATOM      7  C   UNL     1      24.475  24.330   2.899  0.00  0.00    +0.000 C 
ATOM      8  C   UNL     1      25.547  27.396   4.083  0.00  0.00    +0.000 C 
ATOM      9  C   UNL     1      26.037  26.780   1.712  0.00  0.00    +0.000 C 
ATOM     10  C   UNL     1      23.084  24.140   4.674  0.00  0.00    +0.000 C 
ENDROOT
BRANCH   6  11
ATOM     11  C   UNL     1      22.914  22.267   2.891  0.00  0.00    +0.000 A 
ATOM     12  C   UNL     1      21.666  21.785   3.292  0.00  0.00    +0.000 A 
ATOM     13  C   UNL     1      23.647  21.535   1.955  0.00  0.00    +0.000 A 
ATOM     14  C   UNL     1      21.161  20.594   2.771  0.00  0.00    +0.000 A 
ATOM     15  C   UNL     1      23.147  20.344   1.430  0.00  0.00    +0.000 A 
ATOM     16  C   UNL     1      21.903  19.874   1.840  0.00  0.00    +0.000 A 
ENDBRANCH   6  11
BRANCH   8  17
ATOM     17  N   UNL     1      26.047  28.709   4.064  0.00  0.00    +0.000 NA
ATOM     18  H   UNL     1      26.877  28.834   4.633  0.00  0.00    +0.000 HD
ATOM     19  H   UNL     1      26.127  29.086   3.129  0.00  0.00    +0.000 HD
ENDBRANCH   8  17
TORSDOF 2
ENDMDL
MODEL 7
REMARK VINA RESULT:      -5.0     12.753     14.427
REMARK  Name = PhIP.pdbqt.pdb
REMARK  2 active torsions:
REMARK  status: ('A' for Active; 'I' for Inactive)
REMARK    1  A    between atoms: N_4  and  C_9
REMARK    2  A    between atoms: C_7  and  C_10
REMARK                            x       y       z     vdW  Elec       q    Type
REMARK                         _______ _______ _______ _____ _____    ______ ____
ROOT
ATOM      1  N   UNL     1      43.412   4.396  22.174  0.00  0.00    +0.000 N 
ATOM      2  N   UNL     1      45.094   3.767  20.609  0.00  0.00    +0.000 NA
ATOM      3  N   UNL     1      44.855   1.366  20.872  0.00  0.00    +0.000 NA
ATOM      4  C   UNL     1      43.416   3.034  22.128  0.00  0.00    +0.000 C 
ATOM      5  C   UNL     1      44.519   2.705  21.112  0.00  0.00    +0.000 C 
ATOM      6  C   UNL     1      43.339   0.671  22.708  0.00  0.00    +0.000 C 
ATOM      7  C   UNL     1      42.979   2.047  22.851  0.00  0.00    +0.000 C 
ATOM      8  C   UNL     1      44.427   4.771  21.291  0.00  0.00    +0.000 C 
ATOM      9  C   UNL     1      43.123   5.135  23.391  0.00  0.00    +0.000 C 
ATOM     10  C   UNL     1      44.291   0.662  21.632  0.00  0.00    +0.000 C 
ENDROOT
BRANCH   6  11
ATOM     11  C   UNL     1      42.805  -0.469  23.429  0.00  0.00    +0.000 A 
ATOM     12  C   UNL     1      42.187  -0.299  24.670  0.00  0.00    +0.000 A 
ATOM     13  C   UNL     1      42.897  -1.756  22.895  0.00  0.00    +0.000 A 
ATOM     14  C   UNL     1      41.673  -1.392  25.365  0.00  0.00    +0.000 A 
ATOM     15  C   UNL     1      42.385  -2.853  23.586  0.00  0.00    +0.000 A 
ATOM     16  C   UNL     1      41.772  -2.669  24.823  0.00  0.00    +0.000 A 
ENDBRANCH   6  11
BRANCH   8  17
ATOM     17  N   UNL     1      44.894   6.083  21.106  0.00  0.00    +0.000 NA
ATOM     18  H   UNL     1      44.164   6.785  21.159  0.00  0.00    +0.000 HD
ATOM     19  H   UNL     1      45.710   6.293  21.667  0.00  0.00    +0.000 HD
ENDBRANCH   8  17
TORSDOF 2
ENDMDL
MODEL 8
REMARK VINA RESULT:      -4.8     27.300     28.261
REMARK  Name = PhIP.pdbqt.pdb
REMARK  2 active torsions:
REMARK  status: ('A' for Active; 'I' for Inactive)
REMARK    1  A    between atoms: N_4  and  C_9
REMARK    2  A    between atoms: C_7  and  C_10
REMARK                            x       y       z     vdW  Elec       q    Type
REMARK                         _______ _______ _______ _____ _____    ______ ____
ROOT
ATOM      1  N   UNL     1      28.018   9.057  -8.714  0.00  0.00    +0.000 N 
ATOM      2  N   UNL     1      26.834  10.389  -7.133  0.00  0.00    +0.000 NA
ATOM      3  N   UNL     1      28.756  11.038  -5.800  0.00  0.00    +0.000 NA
ATOM      4  C   UNL     1      28.948   9.577  -7.865  0.00  0.00    +0.000 C 
ATOM      5  C   UNL     1      28.118  10.412  -6.879  0.00  0.00    +0.000 C 
ATOM      6  C   UNL     1      30.872   9.893  -6.406  0.00  0.00    +0.000 C 
ATOM      7  C   UNL     1      30.182   9.347  -7.534  0.00  0.00    +0.000 C 
ATOM      8  C   UNL     1      26.801   9.539  -8.227  0.00  0.00    +0.000 C 
ATOM      9  C   UNL     1      28.154   7.738  -9.308  0.00  0.00    +0.000 C 
ATOM     10  C   UNL     1      29.884  10.698  -5.742  0.00  0.00    +0.000 C 
ENDROOT
BRANCH   6  11
ATOM     11  C   UNL     1      32.270   9.736  -6.055  0.00  0.00    +0.000 A 
ATOM     12  C   UNL     1      33.170  10.790  -6.229  0.00  0.00    +0.000 A 
ATOM     13  C   UNL     1      32.742   8.528  -5.536  0.00  0.00    +0.000 A 
ATOM     14  C   UNL     1      34.515  10.641  -5.893  0.00  0.00    +0.000 A 
ATOM     15  C   UNL     1      34.086   8.374  -5.198  0.00  0.00    +0.000 A 
ATOM     16  C   UNL     1      34.972   9.433  -5.378  0.00  0.00    +0.000 A 
ENDBRANCH   6  11
BRANCH   8  17
ATOM     17  N   UNL     1      25.533   9.157  -8.696  0.00  0.00    +0.000 NA
ATOM     18  H   UNL     1      24.894   8.883  -7.957  0.00  0.00    +0.000 HD
ATOM     19  H   UNL     1      25.143   9.817  -9.356  0.00  0.00    +0.000 HD
ENDBRANCH   8  17
TORSDOF 2
ENDMDL
MODEL 9
REMARK VINA RESULT:      -4.7      7.696      9.646
REMARK  Name = PhIP.pdbqt.pdb
REMARK  2 active torsions:
REMARK  status: ('A' for Active; 'I' for Inactive)
REMARK    1  A    between atoms: N_4  and  C_9
REMARK    2  A    between atoms: C_7  and  C_10
REMARK                            x       y       z     vdW  Elec       q    Type
REMARK                         _______ _______ _______ _____ _____    ______ ____
ROOT
ATOM      1  N   UNL     1      46.564   5.587  13.760  0.00  0.00    +0.000 N 
ATOM      2  N   UNL     1      45.417   4.335  15.431  0.00  0.00    +0.000 NA
ATOM      3  N   UNL     1      45.817   2.140  14.477  0.00  0.00    +0.000 NA
ATOM      4  C   UNL     1      46.708   4.272  13.433  0.00  0.00    +0.000 C 
ATOM      5  C   UNL     1      45.944   3.533  14.542  0.00  0.00    +0.000 C 
ATOM      6  C   UNL     1      46.868   2.161  12.230  0.00  0.00    +0.000 C 
ATOM      7  C   UNL     1      47.039   3.572  12.391  0.00  0.00    +0.000 C 
ATOM      8  C   UNL     1      45.781   5.569  14.916  0.00  0.00    +0.000 C 
ATOM      9  C   UNL     1      46.454   6.633  12.758  0.00  0.00    +0.000 C 
ATOM     10  C   UNL     1      46.233   1.740  13.448  0.00  0.00    +0.000 C 
ENDROOT
BRANCH   6  11
ATOM     11  C   UNL     1      47.308   1.331  11.126  0.00  0.00    +0.000 A 
ATOM     12  C   UNL     1      46.599   0.180  10.775  0.00  0.00    +0.000 A 
ATOM     13  C   UNL     1      48.447   1.668  10.392  0.00  0.00    +0.000 A 
ATOM     14  C   UNL     1      47.019  -0.620   9.713  0.00  0.00    +0.000 A 
ATOM     15  C   UNL     1      48.872   0.871   9.330  0.00  0.00    +0.000 A 
ATOM     16  C   UNL     1      48.156  -0.274   8.991  0.00  0.00    +0.000 A 
ENDBRANCH   6  11
BRANCH   8  17
ATOM     17  N   UNL     1      45.249   6.704  15.551  0.00  0.00    +0.000 NA
ATOM     18  H   UNL     1      44.484   6.493  16.183  0.00  0.00    +0.000 HD
ATOM     19  H   UNL     1      45.961   7.302  15.950  0.00  0.00    +0.000 HD
ENDBRANCH   8  17
TORSDOF 2
ENDMDL
