REMARK  Name = PhIP.pdbqt.pdb
REMARK  2 active torsions:
REMARK  status: ('A' for Active; 'I' for Inactive)
REMARK    1  A    between atoms: N_4  and  C_9
REMARK    2  A    between atoms: C_7  and  C_10
REMARK                            x       y       z     vdW  Elec       q    Type
REMARK                         _______ _______ _______ _____ _____    ______ ____
ROOT
ATOM      1  N   UNL     1      -2.730   0.918   0.735  0.00  0.00    +0.000 N 
ATOM      2  N   UNL     1      -3.281  -1.136  -0.339  0.00  0.00    +0.000 NA
ATOM      3  N   UNL     1      -1.006  -1.920  -0.655  0.00  0.00    +0.000 NA
ATOM      4  C   UNL     1      -1.555   0.270   0.500  0.00  0.00    +0.000 C 
ATOM      5  C   UNL     1      -1.985  -1.031  -0.193  0.00  0.00    +0.000 C 
ATOM      6  C   UNL     1       0.750  -0.268  -0.072  0.00  0.00    +0.000 C 
ATOM      7  C   UNL     1      -0.290   0.561   0.454  0.00  0.00    +0.000 C 
ATOM      8  C   UNL     1      -3.702   0.068   0.202  0.00  0.00    +0.000 C 
ATOM      9  C   UNL     1      -2.847   2.365   0.687  0.00  0.00    +0.000 C 
ATOM     10  C   UNL     1       0.065  -1.438  -0.547  0.00  0.00    +0.000 C 
ENDROOT
BRANCH   6  11
ATOM     11  C   UNL     1       2.179  -0.021  -0.057  0.00  0.00    +0.000 A 
ATOM     12  C   UNL     1       3.069  -0.961  -0.581  0.00  0.00    +0.000 A 
ATOM     13  C   UNL     1       2.691   1.162   0.480  0.00  0.00    +0.000 A 
ATOM     14  C   UNL     1       4.443  -0.726  -0.568  0.00  0.00    +0.000 A 
ATOM     15  C   UNL     1       4.064   1.402   0.496  0.00  0.00    +0.000 A 
ATOM     16  C   UNL     1       4.940   0.456  -0.029  0.00  0.00    +0.000 A 
ENDBRANCH   6  11
BRANCH   8  17
ATOM     17  N   UNL     1      -5.068   0.375   0.082  0.00  0.00    +0.000 NA
ATOM     18  H   UNL     1      -5.259   1.371   0.063  0.00  0.00    +0.000 HD
ATOM     19  H   UNL     1      -5.525  -0.147  -0.655  0.00  0.00    +0.000 HD
ENDBRANCH   8  17
TORSDOF 2
