MODEL 1
REMARK VINA RESULT:      -6.5      0.000      0.000
REMARK  Name = Piroxicam.pdbqt.pdb
REMARK  3 active torsions:
REMARK  status: ('A' for Active; 'I' for Inactive)
REMARK    1  A    between atoms: C_7  and  C_14
REMARK    2  A    between atoms: C_8  and  O_24
REMARK    3  A    between atoms: N_16  and  C_18
REMARK                            x       y       z     vdW  Elec       q    Type
REMARK                         _______ _______ _______ _____ _____    ______ ____
ROOT
ATOM      1  S   UNL     1      13.318   6.829  30.229  0.00  0.00    +0.000 S 
ATOM      2  O   UNL     1      14.572   6.705  30.949  0.00  0.00    +0.000 OA
ATOM      3  O   UNL     1      12.455   5.679  30.041  0.00  0.00    +0.000 OA
ATOM      4  N   UNL     1      12.430   8.144  30.897  0.00  0.00    +0.000 N 
ATOM      5  C   UNL     1      13.719   7.467  28.648  0.00  0.00    +0.000 A 
ATOM      6  C   UNL     1      13.931   8.841  28.544  0.00  0.00    +0.000 A 
ATOM      7  C   UNL     1      13.126   9.398  30.831  0.00  0.00    +0.000 C 
ATOM      8  C   UNL     1      13.836   9.721  29.725  0.00  0.00    +0.000 C 
ATOM      9  C   UNL     1      13.784   6.611  27.555  0.00  0.00    +0.000 A 
ATOM     10  C   UNL     1      11.005   8.281  30.550  0.00  0.00    +0.000 C 
ATOM     11  C   UNL     1      14.260   9.349  27.287  0.00  0.00    +0.000 A 
ATOM     12  C   UNL     1      14.101   7.143  26.310  0.00  0.00    +0.000 A 
ATOM     13  C   UNL     1      14.345   8.508  26.176  0.00  0.00    +0.000 A 
ENDROOT
BRANCH   7  14
ATOM     14  C   UNL     1      13.060  10.318  32.013  0.00  0.00    +0.000 C 
ATOM     15  O   UNL     1      13.695  10.041  33.029  0.00  0.00    +0.000 OA
ATOM     16  N   UNL     1      12.263  11.422  31.845  0.00  0.00    +0.000 N 
ATOM     17  H   UNL     1      11.826  11.610  30.950  0.00  0.00    +0.000 HD
BRANCH  16  18
ATOM     18  C   UNL     1      12.009  12.414  32.793  0.00  0.00    +0.000 A 
ATOM     19  N   UNL     1      10.895  12.210  33.525  0.00  0.00    +0.000 NA
ATOM     20  C   UNL     1      10.603  13.140  34.463  0.00  0.00    +0.000 A 
ATOM     21  C   UNL     1      11.369  14.266  34.710  0.00  0.00    +0.000 A 
ATOM     22  C   UNL     1      12.510  14.444  33.941  0.00  0.00    +0.000 A 
ATOM     23  C   UNL     1      12.842  13.510  32.968  0.00  0.00    +0.000 A 
ENDBRANCH  16  18
ENDBRANCH   7  14
BRANCH   8  24
ATOM     24  O   UNL     1      14.533  10.909  29.579  0.00  0.00    +0.000 OA
ATOM     25  H   UNL     1      14.461  11.222  28.649  0.00  0.00    +0.000 HD
ENDBRANCH   8  24
TORSDOF 3
ENDMDL
MODEL 2
REMARK VINA RESULT:      -6.1     22.623     23.797
REMARK  Name = Piroxicam.pdbqt.pdb
REMARK  3 active torsions:
REMARK  status: ('A' for Active; 'I' for Inactive)
REMARK    1  A    between atoms: C_7  and  C_14
REMARK    2  A    between atoms: C_8  and  O_24
REMARK    3  A    between atoms: N_16  and  C_18
REMARK                            x       y       z     vdW  Elec       q    Type
REMARK                         _______ _______ _______ _____ _____    ______ ____
ROOT
ATOM      1  S   UNL     1      13.134  -0.497  10.405  0.00  0.00    +0.000 S 
ATOM      2  O   UNL     1      12.618   0.581  11.228  0.00  0.00    +0.000 OA
ATOM      3  O   UNL     1      12.306  -1.641  10.078  0.00  0.00    +0.000 OA
ATOM      4  N   UNL     1      13.812   0.183   8.974  0.00  0.00    +0.000 N 
ATOM      5  C   UNL     1      14.575  -1.084  11.208  0.00  0.00    +0.000 A 
ATOM      6  C   UNL     1      15.753  -0.361  11.026  0.00  0.00    +0.000 A 
ATOM      7  C   UNL     1      14.871   1.117   9.230  0.00  0.00    +0.000 C 
ATOM      8  C   UNL     1      15.780   0.861  10.200  0.00  0.00    +0.000 C 
ATOM      9  C   UNL     1      14.516  -2.248  11.966  0.00  0.00    +0.000 A 
ATOM     10  C   UNL     1      14.120  -0.713   7.846  0.00  0.00    +0.000 C 
ATOM     11  C   UNL     1      16.899  -0.824  11.674  0.00  0.00    +0.000 A 
ATOM     12  C   UNL     1      15.674  -2.696  12.591  0.00  0.00    +0.000 A 
ATOM     13  C   UNL     1      16.863  -1.983  12.451  0.00  0.00    +0.000 A 
ENDROOT
BRANCH   7  14
ATOM     14  C   UNL     1      14.932   2.375   8.416  0.00  0.00    +0.000 C 
ATOM     15  O   UNL     1      13.893   2.988   8.178  0.00  0.00    +0.000 OA
ATOM     16  N   UNL     1      16.186   2.733   7.993  0.00  0.00    +0.000 N 
ATOM     17  H   UNL     1      16.999   2.206   8.290  0.00  0.00    +0.000 HD
BRANCH  16  18
ATOM     18  C   UNL     1      16.512   3.837   7.204  0.00  0.00    +0.000 A 
ATOM     19  N   UNL     1      16.557   3.579   5.881  0.00  0.00    +0.000 NA
ATOM     20  C   UNL     1      16.865   4.615   5.068  0.00  0.00    +0.000 A 
ATOM     21  C   UNL     1      17.129   5.900   5.508  0.00  0.00    +0.000 A 
ATOM     22  C   UNL     1      17.071   6.133   6.875  0.00  0.00    +0.000 A 
ATOM     23  C   UNL     1      16.759   5.092   7.741  0.00  0.00    +0.000 A 
ENDBRANCH  16  18
ENDBRANCH   7  14
BRANCH   8  24
ATOM     24  O   UNL     1      16.833   1.705  10.508  0.00  0.00    +0.000 OA
ATOM     25  H   UNL     1      17.461   1.742   9.750  0.00  0.00    +0.000 HD
ENDBRANCH   8  24
TORSDOF 3
ENDMDL
MODEL 3
REMARK VINA RESULT:      -5.9     22.298     24.755
REMARK  Name = Piroxicam.pdbqt.pdb
REMARK  3 active torsions:
REMARK  status: ('A' for Active; 'I' for Inactive)
REMARK    1  A    between atoms: C_7  and  C_14
REMARK    2  A    between atoms: C_8  and  O_24
REMARK    3  A    between atoms: N_16  and  C_18
REMARK                            x       y       z     vdW  Elec       q    Type
REMARK                         _______ _______ _______ _____ _____    ______ ____
ROOT
ATOM      1  S   UNL     1      15.657   2.610   4.688  0.00  0.00    +0.000 S 
ATOM      2  O   UNL     1      16.548   1.467   4.765  0.00  0.00    +0.000 OA
ATOM      3  O   UNL     1      15.144   3.064   3.410  0.00  0.00    +0.000 OA
ATOM      4  N   UNL     1      14.366   2.374   5.803  0.00  0.00    +0.000 N 
ATOM      5  C   UNL     1      16.503   3.946   5.437  0.00  0.00    +0.000 A 
ATOM      6  C   UNL     1      16.494   4.015   6.829  0.00  0.00    +0.000 A 
ATOM      7  C   UNL     1      14.804   2.220   7.162  0.00  0.00    +0.000 C 
ATOM      8  C   UNL     1      15.809   2.990   7.641  0.00  0.00    +0.000 C 
ATOM      9  C   UNL     1      17.124   4.903   4.642  0.00  0.00    +0.000 A 
ATOM     10  C   UNL     1      13.175   3.235   5.697  0.00  0.00    +0.000 C 
ATOM     11  C   UNL     1      17.177   5.075   7.427  0.00  0.00    +0.000 A 
ATOM     12  C   UNL     1      17.787   5.956   5.260  0.00  0.00    +0.000 A 
ATOM     13  C   UNL     1      17.819   6.040   6.650  0.00  0.00    +0.000 A 
ENDROOT
BRANCH   7  14
ATOM     14  C   UNL     1      14.137   1.185   8.018  0.00  0.00    +0.000 C 
ATOM     15  O   UNL     1      13.975   0.050   7.575  0.00  0.00    +0.000 OA
ATOM     16  N   UNL     1      13.752   1.620   9.260  0.00  0.00    +0.000 N 
ATOM     17  H   UNL     1      13.984   2.556   9.573  0.00  0.00    +0.000 HD
BRANCH  16  18
ATOM     18  C   UNL     1      13.091   0.871  10.235  0.00  0.00    +0.000 A 
ATOM     19  N   UNL     1      11.776   0.689   9.998  0.00  0.00    +0.000 NA
ATOM     20  C   UNL     1      11.087  -0.035  10.910  0.00  0.00    +0.000 A 
ATOM     21  C   UNL     1      11.645  -0.591  12.047  0.00  0.00    +0.000 A 
ATOM     22  C   UNL     1      13.001  -0.388  12.259  0.00  0.00    +0.000 A 
ATOM     23  C   UNL     1      13.741   0.351  11.345  0.00  0.00    +0.000 A 
ENDBRANCH  16  18
ENDBRANCH   7  14
BRANCH   8  24
ATOM     24  O   UNL     1      16.288   2.908   8.937  0.00  0.00    +0.000 OA
ATOM     25  H   UNL     1      15.842   2.169   9.409  0.00  0.00    +0.000 HD
ENDBRANCH   8  24
TORSDOF 3
ENDMDL
MODEL 4
REMARK VINA RESULT:      -5.6     43.516     45.011
REMARK  Name = Piroxicam.pdbqt.pdb
REMARK  3 active torsions:
REMARK  status: ('A' for Active; 'I' for Inactive)
REMARK    1  A    between atoms: C_7  and  C_14
REMARK    2  A    between atoms: C_8  and  O_24
REMARK    3  A    between atoms: N_16  and  C_18
REMARK                            x       y       z     vdW  Elec       q    Type
REMARK                         _______ _______ _______ _____ _____    ______ ____
ROOT
ATOM      1  S   UNL     1      46.163 -12.321   7.841  0.00  0.00    +0.000 S 
ATOM      2  O   UNL     1      45.283 -12.583   8.966  0.00  0.00    +0.000 OA
ATOM      3  O   UNL     1      47.293 -13.187   7.568  0.00  0.00    +0.000 OA
ATOM      4  N   UNL     1      45.199 -12.127   6.427  0.00  0.00    +0.000 N 
ATOM      5  C   UNL     1      46.768 -10.693   8.058  0.00  0.00    +0.000 A 
ATOM      6  C   UNL     1      45.938  -9.641   7.672  0.00  0.00    +0.000 A 
ATOM      7  C   UNL     1      44.246 -11.059   6.526  0.00  0.00    +0.000 C 
ATOM      8  C   UNL     1      44.594  -9.892   7.117  0.00  0.00    +0.000 C 
ATOM      9  C   UNL     1      48.045 -10.494   8.569  0.00  0.00    +0.000 A 
ATOM     10  C   UNL     1      45.863 -12.160   5.112  0.00  0.00    +0.000 C 
ATOM     11  C   UNL     1      46.416  -8.343   7.853  0.00  0.00    +0.000 A 
ATOM     12  C   UNL     1      48.505  -9.192   8.728  0.00  0.00    +0.000 A 
ATOM     13  C   UNL     1      47.690  -8.117   8.377  0.00  0.00    +0.000 A 
ENDROOT
BRANCH   7  14
ATOM     14  C   UNL     1      42.866 -11.275   5.979  0.00  0.00    +0.000 C 
ATOM     15  O   UNL     1      42.217 -10.309   5.582  0.00  0.00    +0.000 OA
ATOM     16  N   UNL     1      42.440 -12.579   5.978  0.00  0.00    +0.000 N 
ATOM     17  H   UNL     1      43.064 -13.324   6.262  0.00  0.00    +0.000 HD
BRANCH  16  18
ATOM     18  C   UNL     1      41.195 -13.044   5.552  0.00  0.00    +0.000 A 
ATOM     19  N   UNL     1      40.485 -13.681   6.505  0.00  0.00    +0.000 NA
ATOM     20  C   UNL     1      39.268 -14.151   6.147  0.00  0.00    +0.000 A 
ATOM     21  C   UNL     1      38.720 -14.014   4.884  0.00  0.00    +0.000 A 
ATOM     22  C   UNL     1      39.475 -13.352   3.928  0.00  0.00    +0.000 A 
ATOM     23  C   UNL     1      40.731 -12.856   4.258  0.00  0.00    +0.000 A 
ENDBRANCH  16  18
ENDBRANCH   7  14
BRANCH   8  24
ATOM     24  O   UNL     1      43.737  -8.812   7.250  0.00  0.00    +0.000 OA
ATOM     25  H   UNL     1      43.896  -8.172   6.520  0.00  0.00    +0.000 HD
ENDBRANCH   8  24
TORSDOF 3
ENDMDL
MODEL 5
REMARK VINA RESULT:      -5.1     10.328     11.701
REMARK  Name = Piroxicam.pdbqt.pdb
REMARK  3 active torsions:
REMARK  status: ('A' for Active; 'I' for Inactive)
REMARK    1  A    between atoms: C_7  and  C_14
REMARK    2  A    between atoms: C_8  and  O_24
REMARK    3  A    between atoms: N_16  and  C_18
REMARK                            x       y       z     vdW  Elec       q    Type
REMARK                         _______ _______ _______ _____ _____    ______ ____
ROOT
ATOM      1  S   UNL     1      21.844  12.279  36.864  0.00  0.00    +0.000 S 
ATOM      2  O   UNL     1      22.819  13.348  36.980  0.00  0.00    +0.000 OA
ATOM      3  O   UNL     1      20.728  12.191  37.786  0.00  0.00    +0.000 OA
ATOM      4  N   UNL     1      21.284  12.223  35.236  0.00  0.00    +0.000 N 
ATOM      5  C   UNL     1      22.743  10.780  36.958  0.00  0.00    +0.000 A 
ATOM      6  C   UNL     1      23.384  10.340  35.801  0.00  0.00    +0.000 A 
ATOM      7  C   UNL     1      22.330  12.001  34.278  0.00  0.00    +0.000 C 
ATOM      8  C   UNL     1      23.320  11.118  34.549  0.00  0.00    +0.000 C 
ATOM      9  C   UNL     1      22.769  10.064  38.150  0.00  0.00    +0.000 A 
ATOM     10  C   UNL     1      20.076  11.436  34.933  0.00  0.00    +0.000 C 
ATOM     11  C   UNL     1      24.109   9.150  35.879  0.00  0.00    +0.000 A 
ATOM     12  C   UNL     1      23.487   8.875  38.199  0.00  0.00    +0.000 A 
ATOM     13  C   UNL     1      24.161   8.421  37.067  0.00  0.00    +0.000 A 
ENDROOT
BRANCH   7  14
ATOM     14  C   UNL     1      22.305  12.776  32.995  0.00  0.00    +0.000 C 
ATOM     15  O   UNL     1      22.643  12.222  31.950  0.00  0.00    +0.000 OA
ATOM     16  N   UNL     1      21.898  14.080  33.112  0.00  0.00    +0.000 N 
ATOM     17  H   UNL     1      21.572  14.439  34.002  0.00  0.00    +0.000 HD
BRANCH  16  18
ATOM     18  C   UNL     1      21.812  15.018  32.083  0.00  0.00    +0.000 A 
ATOM     19  N   UNL     1      22.178  16.267  32.439  0.00  0.00    +0.000 NA
ATOM     20  C   UNL     1      22.118  17.217  31.477  0.00  0.00    +0.000 A 
ATOM     21  C   UNL     1      21.714  16.984  30.175  0.00  0.00    +0.000 A 
ATOM     22  C   UNL     1      21.347  15.689  29.841  0.00  0.00    +0.000 A 
ATOM     23  C   UNL     1      21.395  14.686  30.802  0.00  0.00    +0.000 A 
ENDBRANCH  16  18
ENDBRANCH   7  14
BRANCH   8  24
ATOM     24  O   UNL     1      24.362  10.842  33.680  0.00  0.00    +0.000 OA
ATOM     25  H   UNL     1      24.833  11.677  33.452  0.00  0.00    +0.000 HD
ENDBRANCH   8  24
TORSDOF 3
ENDMDL
MODEL 6
REMARK VINA RESULT:      -4.9     41.282     43.271
REMARK  Name = Piroxicam.pdbqt.pdb
REMARK  3 active torsions:
REMARK  status: ('A' for Active; 'I' for Inactive)
REMARK    1  A    between atoms: C_7  and  C_14
REMARK    2  A    between atoms: C_8  and  O_24
REMARK    3  A    between atoms: N_16  and  C_18
REMARK                            x       y       z     vdW  Elec       q    Type
REMARK                         _______ _______ _______ _____ _____    ______ ____
ROOT
ATOM      1  S   UNL     1      33.346  -2.877  -5.023  0.00  0.00    +0.000 S 
ATOM      2  O   UNL     1      34.195  -3.786  -5.770  0.00  0.00    +0.000 OA
ATOM      3  O   UNL     1      31.916  -3.099  -4.940  0.00  0.00    +0.000 OA
ATOM      4  N   UNL     1      34.015  -2.672  -3.449  0.00  0.00    +0.000 N 
ATOM      5  C   UNL     1      33.607  -1.285  -5.705  0.00  0.00    +0.000 A 
ATOM      6  C   UNL     1      34.741  -0.587  -5.293  0.00  0.00    +0.000 A 
ATOM      7  C   UNL     1      35.352  -2.152  -3.458  0.00  0.00    +0.000 C 
ATOM      8  C   UNL     1      35.693  -1.174  -4.331  0.00  0.00    +0.000 C 
ATOM      9  C   UNL     1      32.681  -0.756  -6.597  0.00  0.00    +0.000 A 
ATOM     10  C   UNL     1      33.183  -2.048  -2.406  0.00  0.00    +0.000 C 
ATOM     11  C   UNL     1      34.955   0.678  -5.844  0.00  0.00    +0.000 A 
ATOM     12  C   UNL     1      32.909   0.510  -7.122  0.00  0.00    +0.000 A 
ATOM     13  C   UNL     1      34.046   1.225  -6.752  0.00  0.00    +0.000 A 
ENDROOT
BRANCH   7  14
ATOM     14  C   UNL     1      36.353  -2.725  -2.500  0.00  0.00    +0.000 C 
ATOM     15  O   UNL     1      36.931  -1.978  -1.713  0.00  0.00    +0.000 OA
ATOM     16  N   UNL     1      36.540  -4.080  -2.598  0.00  0.00    +0.000 N 
ATOM     17  H   UNL     1      35.973  -4.634  -3.231  0.00  0.00    +0.000 HD
BRANCH  16  18
ATOM     18  C   UNL     1      37.428  -4.852  -1.847  0.00  0.00    +0.000 A 
ATOM     19  N   UNL     1      36.925  -5.293  -0.676  0.00  0.00    +0.000 NA
ATOM     20  C   UNL     1      37.743  -6.051   0.091  0.00  0.00    +0.000 A 
ATOM     21  C   UNL     1      39.038  -6.394  -0.253  0.00  0.00    +0.000 A 
ATOM     22  C   UNL     1      39.524  -5.926  -1.465  0.00  0.00    +0.000 A 
ATOM     23  C   UNL     1      38.713  -5.144  -2.280  0.00  0.00    +0.000 A 
ENDBRANCH  16  18
ENDBRANCH   7  14
BRANCH   8  24
ATOM     24  O   UNL     1      36.958  -0.616  -4.403  0.00  0.00    +0.000 OA
ATOM     25  H   UNL     1      37.016  -0.027  -5.190  0.00  0.00    +0.000 HD
ENDBRANCH   8  24
TORSDOF 3
ENDMDL
MODEL 7
REMARK VINA RESULT:      -4.7      2.254      3.205
REMARK  Name = Piroxicam.pdbqt.pdb
REMARK  3 active torsions:
REMARK  status: ('A' for Active; 'I' for Inactive)
REMARK    1  A    between atoms: C_7  and  C_14
REMARK    2  A    between atoms: C_8  and  O_24
REMARK    3  A    between atoms: N_16  and  C_18
REMARK                            x       y       z     vdW  Elec       q    Type
REMARK                         _______ _______ _______ _____ _____    ______ ____
ROOT
ATOM      1  S   UNL     1      12.996   7.084  29.273  0.00  0.00    +0.000 S 
ATOM      2  O   UNL     1      11.654   6.890  29.791  0.00  0.00    +0.000 OA
ATOM      3  O   UNL     1      13.227   7.217  27.848  0.00  0.00    +0.000 OA
ATOM      4  N   UNL     1      13.729   8.389  30.125  0.00  0.00    +0.000 N 
ATOM      5  C   UNL     1      13.948   5.733  29.852  0.00  0.00    +0.000 A 
ATOM      6  C   UNL     1      14.427   5.797  31.159  0.00  0.00    +0.000 A 
ATOM      7  C   UNL     1      13.807   8.175  31.543  0.00  0.00    +0.000 C 
ATOM      8  C   UNL     1      14.131   6.953  32.027  0.00  0.00    +0.000 C 
ATOM      9  C   UNL     1      14.221   4.667  29.002  0.00  0.00    +0.000 A 
ATOM     10  C   UNL     1      14.965   8.979  29.583  0.00  0.00    +0.000 C 
ATOM     11  C   UNL     1      15.178   4.716  31.624  0.00  0.00    +0.000 A 
ATOM     12  C   UNL     1      14.981   3.608  29.484  0.00  0.00    +0.000 A 
ATOM     13  C   UNL     1      15.455   3.628  30.794  0.00  0.00    +0.000 A 
ENDROOT
BRANCH   7  14
ATOM     14  C   UNL     1      13.507   9.323  32.459  0.00  0.00    +0.000 C 
ATOM     15  O   UNL     1      14.181   9.473  33.477  0.00  0.00    +0.000 OA
ATOM     16  N   UNL     1      12.467  10.125  32.065  0.00  0.00    +0.000 N 
ATOM     17  H   UNL     1      12.006   9.969  31.176  0.00  0.00    +0.000 HD
BRANCH  16  18
ATOM     18  C   UNL     1      11.970  11.235  32.748  0.00  0.00    +0.000 A 
ATOM     19  N   UNL     1      10.830  11.003  33.430  0.00  0.00    +0.000 NA
ATOM     20  C   UNL     1      10.306  12.045  34.115  0.00  0.00    +0.000 A 
ATOM     21  C   UNL     1      10.863  13.311  34.156  0.00  0.00    +0.000 A 
ATOM     22  C   UNL     1      12.037  13.516  33.446  0.00  0.00    +0.000 A 
ATOM     23  C   UNL     1      12.605  12.469  32.730  0.00  0.00    +0.000 A 
ENDBRANCH  16  18
ENDBRANCH   7  14
BRANCH   8  24
ATOM     24  O   UNL     1      14.232   6.664  33.377  0.00  0.00    +0.000 OA
ATOM     25  H   UNL     1      14.992   6.058  33.530  0.00  0.00    +0.000 HD
ENDBRANCH   8  24
TORSDOF 3
ENDMDL
MODEL 8
REMARK VINA RESULT:      -4.7     21.648     23.949
REMARK  Name = Piroxicam.pdbqt.pdb
REMARK  3 active torsions:
REMARK  status: ('A' for Active; 'I' for Inactive)
REMARK    1  A    between atoms: C_7  and  C_14
REMARK    2  A    between atoms: C_8  and  O_24
REMARK    3  A    between atoms: N_16  and  C_18
REMARK                            x       y       z     vdW  Elec       q    Type
REMARK                         _______ _______ _______ _____ _____    ______ ____
ROOT
ATOM      1  S   UNL     1      26.246  31.589  27.205  0.00  0.00    +0.000 S 
ATOM      2  O   UNL     1      25.304  32.169  28.145  0.00  0.00    +0.000 OA
ATOM      3  O   UNL     1      27.675  31.743  27.399  0.00  0.00    +0.000 OA
ATOM      4  N   UNL     1      25.846  29.929  26.984  0.00  0.00    +0.000 N 
ATOM      5  C   UNL     1      25.839  32.242  25.632  0.00  0.00    +0.000 A 
ATOM      6  C   UNL     1      24.775  31.657  24.949  0.00  0.00    +0.000 A 
ATOM      7  C   UNL     1      24.514  29.722  26.490  0.00  0.00    +0.000 C 
ATOM      8  C   UNL     1      24.011  30.540  25.536  0.00  0.00    +0.000 C 
ATOM      9  C   UNL     1      26.591  33.284  25.103  0.00  0.00    +0.000 A 
ATOM     10  C   UNL     1      26.826  29.049  26.324  0.00  0.00    +0.000 C 
ATOM     11  C   UNL     1      24.444  32.184  23.699  0.00  0.00    +0.000 A 
ATOM     12  C   UNL     1      26.251  33.783  23.851  0.00  0.00    +0.000 A 
ATOM     13  C   UNL     1      25.176  33.239  23.152  0.00  0.00    +0.000 A 
ENDROOT
BRANCH   7  14
ATOM     14  C   UNL     1      23.701  28.601  27.064  0.00  0.00    +0.000 C 
ATOM     15  O   UNL     1      23.311  27.699  26.325  0.00  0.00    +0.000 OA
ATOM     16  N   UNL     1      23.455  28.693  28.410  0.00  0.00    +0.000 N 
ATOM     17  H   UNL     1      23.870  29.436  28.960  0.00  0.00    +0.000 HD
BRANCH  16  18
ATOM     18  C   UNL     1      22.705  27.802  29.180  0.00  0.00    +0.000 A 
ATOM     19  N   UNL     1      23.416  26.776  29.690  0.00  0.00    +0.000 NA
ATOM     20  C   UNL     1      22.739  25.883  30.449  0.00  0.00    +0.000 A 
ATOM     21  C   UNL     1      21.387  25.962  30.727  0.00  0.00    +0.000 A 
ATOM     22  C   UNL     1      20.685  27.032  30.189  0.00  0.00    +0.000 A 
ATOM     23  C   UNL     1      21.346  27.969  29.404  0.00  0.00    +0.000 A 
ENDBRANCH  16  18
ENDBRANCH   7  14
BRANCH   8  24
ATOM     24  O   UNL     1      22.739  30.408  25.003  0.00  0.00    +0.000 OA
ATOM     25  H   UNL     1      22.278  31.277  25.029  0.00  0.00    +0.000 HD
ENDBRANCH   8  24
TORSDOF 3
ENDMDL
MODEL 9
REMARK VINA RESULT:      -4.6     32.721     34.272
REMARK  Name = Piroxicam.pdbqt.pdb
REMARK  3 active torsions:
REMARK  status: ('A' for Active; 'I' for Inactive)
REMARK    1  A    between atoms: C_7  and  C_14
REMARK    2  A    between atoms: C_8  and  O_24
REMARK    3  A    between atoms: N_16  and  C_18
REMARK                            x       y       z     vdW  Elec       q    Type
REMARK                         _______ _______ _______ _____ _____    ______ ____
ROOT
ATOM      1  S   UNL     1      31.074  32.150  10.794  0.00  0.00    +0.000 S 
ATOM      2  O   UNL     1      31.911  32.856  11.746  0.00  0.00    +0.000 OA
ATOM      3  O   UNL     1      31.535  30.926  10.168  0.00  0.00    +0.000 OA
ATOM      4  N   UNL     1      29.520  31.916  11.499  0.00  0.00    +0.000 N 
ATOM      5  C   UNL     1      30.694  33.297   9.526  0.00  0.00    +0.000 A 
ATOM      6  C   UNL     1      29.671  34.210   9.771  0.00  0.00    +0.000 A 
ATOM      7  C   UNL     1      28.868  33.140  11.868  0.00  0.00    +0.000 C 
ATOM      8  C   UNL     1      28.945  34.220  11.055  0.00  0.00    +0.000 C 
ATOM      9  C   UNL     1      31.387  33.248   8.322  0.00  0.00    +0.000 A 
ATOM     10  C   UNL     1      28.594  30.963  10.864  0.00  0.00    +0.000 C 
ATOM     11  C   UNL     1      29.374  35.131   8.764  0.00  0.00    +0.000 A 
ATOM     12  C   UNL     1      31.065  34.167   7.330  0.00  0.00    +0.000 A 
ATOM     13  C   UNL     1      30.065  35.111   7.551  0.00  0.00    +0.000 A 
ENDROOT
BRANCH   7  14
ATOM     14  C   UNL     1      28.125  33.194  13.169  0.00  0.00    +0.000 C 
ATOM     15  O   UNL     1      26.946  32.847  13.204  0.00  0.00    +0.000 OA
ATOM     16  N   UNL     1      28.856  33.649  14.237  0.00  0.00    +0.000 N 
ATOM     17  H   UNL     1      29.843  33.852  14.135  0.00  0.00    +0.000 HD
BRANCH  16  18
ATOM     18  C   UNL     1      28.397  33.820  15.544  0.00  0.00    +0.000 A 
ATOM     19  N   UNL     1      28.910  32.944  16.431  0.00  0.00    +0.000 NA
ATOM     20  C   UNL     1      28.502  33.068  17.715  0.00  0.00    +0.000 A 
ATOM     21  C   UNL     1      27.609  34.025  18.161  0.00  0.00    +0.000 A 
ATOM     22  C   UNL     1      27.102  34.913  17.223  0.00  0.00    +0.000 A 
ATOM     23  C   UNL     1      27.497  34.816  15.894  0.00  0.00    +0.000 A 
ENDBRANCH  16  18
ENDBRANCH   7  14
BRANCH   8  24
ATOM     24  O   UNL     1      28.343  35.436  11.334  0.00  0.00    +0.000 OA
ATOM     25  H   UNL     1      27.752  35.691  10.590  0.00  0.00    +0.000 HD
ENDBRANCH   8  24
TORSDOF 3
ENDMDL
