MODEL 1
REMARK VINA RESULT:      -7.6      0.000      0.000
REMARK  Name = PKR_Inhibitor.pdbqt.pdb
REMARK  0 active torsions:
REMARK  status: ('A' for Active; 'I' for Inactive)
REMARK                            x       y       z     vdW  Elec       q    Type
REMARK                         _______ _______ _______ _____ _____    ______ ____
ROOT
ATOM      1  S   UNL     1      44.761  -5.411  12.452  0.00  0.00    +0.000 S 
ATOM      2  O   UNL     1      45.729  -7.775   7.265  0.00  0.00    +0.000 OA
ATOM      3  N   UNL     1      43.580  -7.297   8.075  0.00  0.00    +0.000 N 
ATOM      4  N   UNL     1      42.222  -5.069  12.907  0.00  0.00    +0.000 NA
ATOM      5  C   UNL     1      44.061  -6.410  10.122  0.00  0.00    +0.000 A 
ATOM      6  C   UNL     1      43.021  -6.755   9.223  0.00  0.00    +0.000 A 
ATOM      7  C   UNL     1      45.342  -6.778   9.455  0.00  0.00    +0.000 C 
ATOM      8  C   UNL     1      43.652  -5.867  11.293  0.00  0.00    +0.000 A 
ATOM      9  C   UNL     1      44.973  -7.353   8.119  0.00  0.00    +0.000 C 
ATOM     10  C   UNL     1      42.341  -5.636  11.649  0.00  0.00    +0.000 A 
ATOM     11  C   UNL     1      41.663  -6.571   9.467  0.00  0.00    +0.000 A 
ATOM     12  C   UNL     1      46.564  -6.661   9.867  0.00  0.00    +0.000 C 
ATOM     13  C   UNL     1      41.339  -5.996  10.717  0.00  0.00    +0.000 A 
ATOM     14  C   UNL     1      43.429  -4.911  13.410  0.00  0.00    +0.000 A 
ATOM     15  H   UNL     1      43.054  -7.624   7.276  0.00  0.00    +0.000 HD
ATOM     16  C   UNL     1      47.924  -6.568  10.245  0.00  0.00    +0.000 C 
ATOM     17  N   UNL     1      48.981  -6.967   9.475  0.00  0.00    +0.000 N 
ATOM     18  C   UNL     1      50.125  -6.716  10.181  0.00  0.00    +0.000 C 
ATOM     19  H   UNL     1      48.933  -7.375   8.552  0.00  0.00    +0.000 HD
ATOM     20  N   UNL     1      49.858  -6.181  11.352  0.00  0.00    +0.000 NA
ATOM     21  C   UNL     1      48.488  -6.084  11.403  0.00  0.00    +0.000 C 
ENDROOT
TORSDOF 0
ENDMDL
MODEL 2
REMARK VINA RESULT:      -7.3      1.717      5.213
REMARK  Name = PKR_Inhibitor.pdbqt.pdb
REMARK  0 active torsions:
REMARK  status: ('A' for Active; 'I' for Inactive)
REMARK                            x       y       z     vdW  Elec       q    Type
REMARK                         _______ _______ _______ _____ _____    ______ ____
ROOT
ATOM      1  S   UNL     1      46.938  -6.214  11.268  0.00  0.00    +0.000 S 
ATOM      2  O   UNL     1      41.316  -6.414   9.934  0.00  0.00    +0.000 OA
ATOM      3  N   UNL     1      42.998  -7.244   8.525  0.00  0.00    +0.000 N 
ATOM      4  N   UNL     1      48.418  -7.255   9.399  0.00  0.00    +0.000 NA
ATOM      5  C   UNL     1      44.869  -6.793   9.751  0.00  0.00    +0.000 A 
ATOM      6  C   UNL     1      44.380  -7.348   8.541  0.00  0.00    +0.000 A 
ATOM      7  C   UNL     1      43.680  -6.320  10.515  0.00  0.00    +0.000 C 
ATOM      8  C   UNL     1      46.215  -6.830   9.898  0.00  0.00    +0.000 A 
ATOM      9  C   UNL     1      42.481  -6.638   9.671  0.00  0.00    +0.000 C 
ATOM     10  C   UNL     1      47.102  -7.353   8.982  0.00  0.00    +0.000 A 
ATOM     11  C   UNL     1      45.174  -7.905   7.542  0.00  0.00    +0.000 A 
ATOM     12  C   UNL     1      43.604  -5.745  11.672  0.00  0.00    +0.000 C 
ATOM     13  C   UNL     1      46.566  -7.896   7.791  0.00  0.00    +0.000 A 
ATOM     14  C   UNL     1      48.440  -6.675  10.582  0.00  0.00    +0.000 A 
ATOM     15  H   UNL     1      42.403  -7.566   7.774  0.00  0.00    +0.000 HD
ATOM     16  C   UNL     1      43.437  -5.113  12.927  0.00  0.00    +0.000 C 
ATOM     17  N   UNL     1      42.236  -4.751  13.469  0.00  0.00    +0.000 N 
ATOM     18  C   UNL     1      42.487  -4.173  14.683  0.00  0.00    +0.000 C 
ATOM     19  H   UNL     1      41.324  -4.882  13.054  0.00  0.00    +0.000 HD
ATOM     20  N   UNL     1      43.775  -4.148  14.944  0.00  0.00    +0.000 NA
ATOM     21  C   UNL     1      44.378  -4.731  13.856  0.00  0.00    +0.000 C 
ENDROOT
TORSDOF 0
ENDMDL
MODEL 3
REMARK VINA RESULT:      -7.3      2.061      2.171
REMARK  Name = PKR_Inhibitor.pdbqt.pdb
REMARK  0 active torsions:
REMARK  status: ('A' for Active; 'I' for Inactive)
REMARK                            x       y       z     vdW  Elec       q    Type
REMARK                         _______ _______ _______ _____ _____    ______ ____
ROOT
ATOM      1  S   UNL     1      44.277  -3.765  12.815  0.00  0.00    +0.000 S 
ATOM      2  O   UNL     1      45.724  -7.275   8.455  0.00  0.00    +0.000 OA
ATOM      3  N   UNL     1      43.796  -7.577   9.757  0.00  0.00    +0.000 N 
ATOM      4  N   UNL     1      42.059  -4.500  13.961  0.00  0.00    +0.000 NA
ATOM      5  C   UNL     1      43.960  -5.824  11.209  0.00  0.00    +0.000 A 
ATOM      6  C   UNL     1      43.183  -6.946  10.829  0.00  0.00    +0.000 A 
ATOM      7  C   UNL     1      45.132  -5.784  10.289  0.00  0.00    +0.000 C 
ATOM      8  C   UNL     1      43.472  -5.112  12.253  0.00  0.00    +0.000 A 
ATOM      9  C   UNL     1      44.978  -6.951   9.358  0.00  0.00    +0.000 C 
ATOM     10  C   UNL     1      42.312  -5.400  12.940  0.00  0.00    +0.000 A 
ATOM     11  C   UNL     1      41.996  -7.338  11.443  0.00  0.00    +0.000 A 
ATOM     12  C   UNL     1      46.123  -4.953  10.232  0.00  0.00    +0.000 C 
ATOM     13  C   UNL     1      41.570  -6.530  12.522  0.00  0.00    +0.000 A 
ATOM     14  C   UNL     1      43.028  -3.607  13.979  0.00  0.00    +0.000 A 
ATOM     15  H   UNL     1      43.444  -8.404   9.295  0.00  0.00    +0.000 HD
ATOM     16  C   UNL     1      47.237  -4.090  10.104  0.00  0.00    +0.000 C 
ATOM     17  N   UNL     1      48.228  -4.222   9.173  0.00  0.00    +0.000 N 
ATOM     18  C   UNL     1      49.119  -3.203   9.369  0.00  0.00    +0.000 C 
ATOM     19  H   UNL     1      48.298  -4.940   8.464  0.00  0.00    +0.000 HD
ATOM     20  N   UNL     1      48.751  -2.432  10.369  0.00  0.00    +0.000 NA
ATOM     21  C   UNL     1      47.579  -2.976  10.836  0.00  0.00    +0.000 C 
ENDROOT
TORSDOF 0
ENDMDL
MODEL 4
REMARK VINA RESULT:      -7.2      2.191      4.120
REMARK  Name = PKR_Inhibitor.pdbqt.pdb
REMARK  0 active torsions:
REMARK  status: ('A' for Active; 'I' for Inactive)
REMARK                            x       y       z     vdW  Elec       q    Type
REMARK                         _______ _______ _______ _____ _____    ______ ____
ROOT
ATOM      1  S   UNL     1      42.761  -6.554  11.061  0.00  0.00    +0.000 S 
ATOM      2  O   UNL     1      48.516  -6.013  10.939  0.00  0.00    +0.000 OA
ATOM      3  N   UNL     1      47.194  -5.242  12.717  0.00  0.00    +0.000 N 
ATOM      4  N   UNL     1      41.736  -5.551  13.232  0.00  0.00    +0.000 NA
ATOM      5  C   UNL     1      45.106  -5.825  12.005  0.00  0.00    +0.000 A 
ATOM      6  C   UNL     1      45.847  -5.214  13.047  0.00  0.00    +0.000 A 
ATOM      7  C   UNL     1      46.091  -6.250  10.972  0.00  0.00    +0.000 C 
ATOM      8  C   UNL     1      43.766  -5.865  12.200  0.00  0.00    +0.000 A 
ATOM      9  C   UNL     1      47.442  -5.846  11.484  0.00  0.00    +0.000 C 
ATOM     10  C   UNL     1      43.107  -5.370  13.304  0.00  0.00    +0.000 A 
ATOM     11  C   UNL     1      45.297  -4.678  14.208  0.00  0.00    +0.000 A 
ATOM     12  C   UNL     1      45.909  -6.849   9.838  0.00  0.00    +0.000 C 
ATOM     13  C   UNL     1      43.891  -4.770  14.318  0.00  0.00    +0.000 A 
ATOM     14  C   UNL     1      41.454  -6.160  12.099  0.00  0.00    +0.000 A 
ATOM     15  H   UNL     1      47.937  -4.870  13.292  0.00  0.00    +0.000 HD
ATOM     16  C   UNL     1      45.794  -7.501   8.587  0.00  0.00    +0.000 C 
ATOM     17  N   UNL     1      46.841  -7.813   7.766  0.00  0.00    +0.000 N 
ATOM     18  C   UNL     1      46.330  -8.432   6.660  0.00  0.00    +0.000 C 
ATOM     19  H   UNL     1      47.819  -7.623   7.939  0.00  0.00    +0.000 HD
ATOM     20  N   UNL     1      45.021  -8.532   6.730  0.00  0.00    +0.000 NA
ATOM     21  C   UNL     1      44.675  -7.954   7.928  0.00  0.00    +0.000 C 
ENDROOT
TORSDOF 0
ENDMDL
MODEL 5
REMARK VINA RESULT:      -6.9      3.016      4.747
REMARK  Name = PKR_Inhibitor.pdbqt.pdb
REMARK  0 active torsions:
REMARK  status: ('A' for Active; 'I' for Inactive)
REMARK                            x       y       z     vdW  Elec       q    Type
REMARK                         _______ _______ _______ _____ _____    ______ ____
ROOT
ATOM      1  S   UNL     1      43.345  -4.954  12.877  0.00  0.00    +0.000 S 
ATOM      2  O   UNL     1      47.217  -2.854   9.133  0.00  0.00    +0.000 OA
ATOM      3  N   UNL     1      46.547  -1.703  11.064  0.00  0.00    +0.000 N 
ATOM      4  N   UNL     1      42.925  -3.322  14.860  0.00  0.00    +0.000 NA
ATOM      5  C   UNL     1      45.047  -3.171  11.960  0.00  0.00    +0.000 A 
ATOM      6  C   UNL     1      45.679  -1.913  12.124  0.00  0.00    +0.000 A 
ATOM      7  C   UNL     1      45.583  -3.756  10.699  0.00  0.00    +0.000 C 
ATOM      8  C   UNL     1      44.166  -3.504  12.933  0.00  0.00    +0.000 A 
ATOM      9  C   UNL     1      46.560  -2.758  10.151  0.00  0.00    +0.000 C 
ATOM     10  C   UNL     1      43.860  -2.727  14.030  0.00  0.00    +0.000 A 
ATOM     11  C   UNL     1      45.453  -1.040  13.185  0.00  0.00    +0.000 A 
ATOM     12  C   UNL     1      45.319  -4.885  10.122  0.00  0.00    +0.000 C 
ATOM     13  C   UNL     1      44.517  -1.480  14.150  0.00  0.00    +0.000 A 
ATOM     14  C   UNL     1      42.592  -4.488  14.346  0.00  0.00    +0.000 A 
ATOM     15  H   UNL     1      47.121  -0.880  10.941  0.00  0.00    +0.000 HD
ATOM     16  C   UNL     1      45.084  -6.097   9.430  0.00  0.00    +0.000 C 
ATOM     17  N   UNL     1      45.689  -6.462   8.260  0.00  0.00    +0.000 N 
ATOM     18  C   UNL     1      45.204  -7.691   7.909  0.00  0.00    +0.000 C 
ATOM     19  H   UNL     1      46.372  -5.925   7.742  0.00  0.00    +0.000 HD
ATOM     20  N   UNL     1      44.328  -8.128   8.786  0.00  0.00    +0.000 NA
ATOM     21  C   UNL     1      44.244  -7.142   9.739  0.00  0.00    +0.000 C 
ENDROOT
TORSDOF 0
ENDMDL
MODEL 6
REMARK VINA RESULT:      -6.9      2.276      4.479
REMARK  Name = PKR_Inhibitor.pdbqt.pdb
REMARK  0 active torsions:
REMARK  status: ('A' for Active; 'I' for Inactive)
REMARK                            x       y       z     vdW  Elec       q    Type
REMARK                         _______ _______ _______ _____ _____    ______ ____
ROOT
ATOM      1  S   UNL     1      47.458  -6.211  10.991  0.00  0.00    +0.000 S 
ATOM      2  O   UNL     1      41.820  -7.150  10.124  0.00  0.00    +0.000 OA
ATOM      3  N   UNL     1      42.652  -5.956  11.964  0.00  0.00    +0.000 N 
ATOM      4  N   UNL     1      47.894  -4.842  13.160  0.00  0.00    +0.000 NA
ATOM      5  C   UNL     1      44.898  -6.038  11.569  0.00  0.00    +0.000 A 
ATOM      6  C   UNL     1      43.892  -5.568  12.450  0.00  0.00    +0.000 A 
ATOM      7  C   UNL     1      44.200  -6.765  10.472  0.00  0.00    +0.000 C 
ATOM      8  C   UNL     1      46.167  -5.726  11.927  0.00  0.00    +0.000 A 
ATOM      9  C   UNL     1      42.734  -6.683  10.776  0.00  0.00    +0.000 C 
ATOM     10  C   UNL     1      46.524  -5.009  13.049  0.00  0.00    +0.000 A 
ATOM     11  C   UNL     1      44.126  -4.835  13.610  0.00  0.00    +0.000 A 
ATOM     12  C   UNL     1      44.680  -7.371   9.433  0.00  0.00    +0.000 C 
ATOM     13  C   UNL     1      45.484  -4.561  13.896  0.00  0.00    +0.000 A 
ATOM     14  C   UNL     1      48.472  -5.432  12.134  0.00  0.00    +0.000 A 
ATOM     15  H   UNL     1      41.768  -5.747  12.406  0.00  0.00    +0.000 HD
ATOM     16  C   UNL     1      45.124  -8.053   8.275  0.00  0.00    +0.000 C 
ATOM     17  N   UNL     1      44.310  -8.670   7.367  0.00  0.00    +0.000 N 
ATOM     18  C   UNL     1      45.107  -9.211   6.397  0.00  0.00    +0.000 C 
ATOM     19  H   UNL     1      43.301  -8.721   7.400  0.00  0.00    +0.000 HD
ATOM     20  N   UNL     1      46.378  -8.975   6.635  0.00  0.00    +0.000 NA
ATOM     21  C   UNL     1      46.401  -8.254   7.804  0.00  0.00    +0.000 C 
ENDROOT
TORSDOF 0
ENDMDL
MODEL 7
REMARK VINA RESULT:      -6.6      4.955      6.474
REMARK  Name = PKR_Inhibitor.pdbqt.pdb
REMARK  0 active torsions:
REMARK  status: ('A' for Active; 'I' for Inactive)
REMARK                            x       y       z     vdW  Elec       q    Type
REMARK                         _______ _______ _______ _____ _____    ______ ____
ROOT
ATOM      1  S   UNL     1      42.944  -1.167  13.069  0.00  0.00    +0.000 S 
ATOM      2  O   UNL     1      47.107  -2.424   9.259  0.00  0.00    +0.000 OA
ATOM      3  N   UNL     1      46.906  -0.327  10.292  0.00  0.00    +0.000 N 
ATOM      4  N   UNL     1      43.131   1.277  13.942  0.00  0.00    +0.000 NA
ATOM      5  C   UNL     1      45.069  -0.652  11.607  0.00  0.00    +0.000 A 
ATOM      6  C   UNL     1      46.062   0.278  11.211  0.00  0.00    +0.000 A 
ATOM      7  C   UNL     1      45.345  -1.914  10.862  0.00  0.00    +0.000 C 
ATOM      8  C   UNL     1      44.172  -0.188  12.508  0.00  0.00    +0.000 A 
ATOM      9  C   UNL     1      46.556  -1.649  10.017  0.00  0.00    +0.000 C 
ATOM     10  C   UNL     1      44.166   1.082  13.044  0.00  0.00    +0.000 A 
ATOM     11  C   UNL     1      46.161   1.586  11.679  0.00  0.00    +0.000 A 
ATOM     12  C   UNL     1      44.723  -3.049  10.881  0.00  0.00    +0.000 C 
ATOM     13  C   UNL     1      45.178   1.975  12.618  0.00  0.00    +0.000 A 
ATOM     14  C   UNL     1      42.435   0.162  14.026  0.00  0.00    +0.000 A 
ATOM     15  H   UNL     1      47.699   0.121   9.853  0.00  0.00    +0.000 HD
ATOM     16  C   UNL     1      44.098  -4.318  10.843  0.00  0.00    +0.000 C 
ATOM     17  N   UNL     1      44.511  -5.373  10.079  0.00  0.00    +0.000 N 
ATOM     18  C   UNL     1      43.659  -6.415  10.316  0.00  0.00    +0.000 C 
ATOM     19  H   UNL     1      45.302  -5.388   9.450  0.00  0.00    +0.000 HD
ATOM     20  N   UNL     1      42.729  -6.085  11.186  0.00  0.00    +0.000 NA
ATOM     21  C   UNL     1      42.993  -4.779  11.521  0.00  0.00    +0.000 C 
ENDROOT
TORSDOF 0
ENDMDL
MODEL 8
REMARK VINA RESULT:      -6.5      3.567      3.956
REMARK  Name = PKR_Inhibitor.pdbqt.pdb
REMARK  0 active torsions:
REMARK  status: ('A' for Active; 'I' for Inactive)
REMARK                            x       y       z     vdW  Elec       q    Type
REMARK                         _______ _______ _______ _____ _____    ______ ____
ROOT
ATOM      1  S   UNL     1      44.019  -2.084  12.812  0.00  0.00    +0.000 S 
ATOM      2  O   UNL     1      46.761  -5.818   9.353  0.00  0.00    +0.000 OA
ATOM      3  N   UNL     1      45.097  -6.465  10.874  0.00  0.00    +0.000 N 
ATOM      4  N   UNL     1      42.260  -3.267  14.321  0.00  0.00    +0.000 NA
ATOM      5  C   UNL     1      44.549  -4.460  11.815  0.00  0.00    +0.000 A 
ATOM      6  C   UNL     1      44.278  -5.851  11.809  0.00  0.00    +0.000 A 
ATOM      7  C   UNL     1      45.617  -4.228  10.802  0.00  0.00    +0.000 C 
ATOM      8  C   UNL     1      43.813  -3.734  12.690  0.00  0.00    +0.000 A 
ATOM      9  C   UNL     1      45.941  -5.570  10.215  0.00  0.00    +0.000 C 
ATOM     10  C   UNL     1      42.854  -4.244  13.539  0.00  0.00    +0.000 A 
ATOM     11  C   UNL     1      43.336  -6.483  12.617  0.00  0.00    +0.000 A 
ATOM     12  C   UNL     1      46.202  -3.132  10.439  0.00  0.00    +0.000 C 
ATOM     13  C   UNL     1      42.619  -5.638  13.495  0.00  0.00    +0.000 A 
ATOM     14  C   UNL     1      42.799  -2.104  14.017  0.00  0.00    +0.000 A 
ATOM     15  H   UNL     1      45.102  -7.455  10.673  0.00  0.00    +0.000 HD
ATOM     16  C   UNL     1      46.888  -1.979   9.988  0.00  0.00    +0.000 C 
ATOM     17  N   UNL     1      47.859  -1.970   9.026  0.00  0.00    +0.000 N 
ATOM     18  C   UNL     1      48.275  -0.678   8.870  0.00  0.00    +0.000 C 
ATOM     19  H   UNL     1      48.210  -2.771   8.517  0.00  0.00    +0.000 HD
ATOM     20  N   UNL     1      47.627   0.135   9.675  0.00  0.00    +0.000 NA
ATOM     21  C   UNL     1      46.760  -0.666  10.378  0.00  0.00    +0.000 C 
ENDROOT
TORSDOF 0
ENDMDL
MODEL 9
REMARK VINA RESULT:      -6.4      4.330      6.251
REMARK  Name = PKR_Inhibitor.pdbqt.pdb
REMARK  0 active torsions:
REMARK  status: ('A' for Active; 'I' for Inactive)
REMARK                            x       y       z     vdW  Elec       q    Type
REMARK                         _______ _______ _______ _____ _____    ______ ____
ROOT
ATOM      1  S   UNL     1      44.953  -0.658  12.173  0.00  0.00    +0.000 S 
ATOM      2  O   UNL     1      46.295  -5.645   9.572  0.00  0.00    +0.000 OA
ATOM      3  N   UNL     1      47.384  -3.621   9.102  0.00  0.00    +0.000 N 
ATOM      4  N   UNL     1      46.431   1.309  11.325  0.00  0.00    +0.000 NA
ATOM      5  C   UNL     1      46.293  -2.191  10.507  0.00  0.00    +0.000 A 
ATOM      6  C   UNL     1      47.311  -2.303   9.526  0.00  0.00    +0.000 A 
ATOM      7  C   UNL     1      45.714  -3.553  10.679  0.00  0.00    +0.000 C 
ATOM      8  C   UNL     1      46.114  -0.947  11.011  0.00  0.00    +0.000 A 
ATOM      9  C   UNL     1      46.462  -4.452   9.738  0.00  0.00    +0.000 C 
ATOM     10  C   UNL     1      46.831   0.172  10.644  0.00  0.00    +0.000 A 
ATOM     11  C   UNL     1      48.100  -1.249   9.074  0.00  0.00    +0.000 A 
ATOM     12  C   UNL     1      44.764  -3.967  11.455  0.00  0.00    +0.000 C 
ATOM     13  C   UNL     1      47.836   0.009   9.662  0.00  0.00    +0.000 A 
ATOM     14  C   UNL     1      45.455   0.981  12.148  0.00  0.00    +0.000 A 
ATOM     15  H   UNL     1      48.029  -3.968   8.406  0.00  0.00    +0.000 HD
ATOM     16  C   UNL     1      43.736  -4.496  12.271  0.00  0.00    +0.000 C 
ATOM     17  N   UNL     1      43.343  -5.805  12.287  0.00  0.00    +0.000 N 
ATOM     18  C   UNL     1      42.331  -5.922  13.199  0.00  0.00    +0.000 C 
ATOM     19  H   UNL     1      43.725  -6.555  11.728  0.00  0.00    +0.000 HD
ATOM     20  N   UNL     1      42.059  -4.766  13.763  0.00  0.00    +0.000 NA
ATOM     21  C   UNL     1      42.929  -3.869  13.192  0.00  0.00    +0.000 C 
ENDROOT
TORSDOF 0
ENDMDL
