REMARK  Name = PKR_Inhibitor.pdbqt.pdb
REMARK  0 active torsions:
REMARK  status: ('A' for Active; 'I' for Inactive)
REMARK                            x       y       z     vdW  Elec       q    Type
REMARK                         _______ _______ _______ _____ _____    ______ ____
ROOT
ATOM      1  S   UNL     1       1.234   2.065  -0.292  0.00  0.00    +0.000 S 
ATOM      2  O   UNL     1      -1.716  -2.833   0.566  0.00  0.00    +0.000 OA
ATOM      3  N   UNL     1       0.615  -2.769   0.309  0.00  0.00    +0.000 N 
ATOM      4  N   UNL     1       3.790   1.634  -0.518  0.00  0.00    +0.000 NA
ATOM      5  C   UNL     1       0.971  -0.533   0.024  0.00  0.00    +0.000 A 
ATOM      6  C   UNL     1       1.590  -1.806   0.098  0.00  0.00    +0.000 A 
ATOM      7  C   UNL     1      -0.491  -0.758   0.205  0.00  0.00    +0.000 C 
ATOM      8  C   UNL     1       1.815   0.506  -0.182  0.00  0.00    +0.000 A 
ATOM      9  C   UNL     1      -0.672  -2.236   0.388  0.00  0.00    +0.000 C 
ATOM     10  C   UNL     1       3.183   0.406  -0.317  0.00  0.00    +0.000 A 
ATOM     11  C   UNL     1       2.958  -2.035  -0.023  0.00  0.00    +0.000 A 
ATOM     12  C   UNL     1      -1.472   0.087   0.217  0.00  0.00    +0.000 C 
ATOM     13  C   UNL     1       3.754  -0.886  -0.235  0.00  0.00    +0.000 A 
ATOM     14  C   UNL     1       2.858   2.565  -0.521  0.00  0.00    +0.000 A 
ATOM     15  H   UNL     1       0.792  -3.760   0.400  0.00  0.00    +0.000 HD
ATOM     16  C   UNL     1      -2.597   0.945   0.242  0.00  0.00    +0.000 C 
ATOM     17  N   UNL     1      -3.889   0.539   0.427  0.00  0.00    +0.000 N 
ATOM     18  C   UNL     1      -4.682   1.652   0.388  0.00  0.00    +0.000 C 
ATOM     19  H   UNL     1      -4.208  -0.410   0.567  0.00  0.00    +0.000 HD
ATOM     20  N   UNL     1      -3.971   2.740   0.190  0.00  0.00    +0.000 NA
ATOM     21  C   UNL     1      -2.669   2.311   0.097  0.00  0.00    +0.000 C 
ENDROOT
TORSDOF 0
