MODEL 1
REMARK VINA RESULT:      -8.5      0.000      0.000
REMARK  Name = 
REMARK  14 active torsions:
REMARK  status: ('A' for Active; 'I' for Inactive)
REMARK    1  A    between atoms: O_1  and  C_14
REMARK    2  A    between atoms: O_1  and  C_15
REMARK    3  A    between atoms: O_4  and  C_16
REMARK    4  A    between atoms: O_5  and  C_18
REMARK    5  A    between atoms: O_6  and  C_26
REMARK    6  A    between atoms: O_7  and  C_29
REMARK    7  A    between atoms: O_8  and  C_35
REMARK    8  A    between atoms: O_9  and  C_36
REMARK    9  A    between atoms: O_10  and  C_39
REMARK   10  A    between atoms: O_11  and  C_40
REMARK   11  A    between atoms: O_12  and  C_41
REMARK   12  A    between atoms: O_13  and  C_43
REMARK   13  A    between atoms: C_14  and  C_20
REMARK   14  A    between atoms: C_17  and  C_24
REMARK                            x       y       z     vdW  Elec       q    Type
REMARK                         _______ _______ _______ _____ _____    ______ ____
ROOT
ATOM      1  O   UNL     1      46.085  -5.852  11.257  0.00  0.00    +0.000 OA
ATOM      2  C   UNL     1      45.424  -4.629  11.610  0.00  0.00    +0.000 C 
ATOM      3  C   UNL     1      43.881  -4.749  11.418  0.00  0.00    +0.000 C 
ATOM      4  C   UNL     1      43.552  -5.176   9.991  0.00  0.00    +0.000 C 
ATOM      5  C   UNL     1      44.392  -6.342   9.564  0.00  0.00    +0.000 A 
ATOM      6  C   UNL     1      45.602  -6.594  10.215  0.00  0.00    +0.000 A 
ATOM      7  C   UNL     1      44.027  -7.177   8.497  0.00  0.00    +0.000 A 
ATOM      8  C   UNL     1      46.413  -7.661   9.820  0.00  0.00    +0.000 A 
ATOM      9  C   UNL     1      44.838  -8.229   8.082  0.00  0.00    +0.000 A 
ATOM     10  C   UNL     1      46.028  -8.466   8.754  0.00  0.00    +0.000 A 
ENDROOT
BRANCH   2  11
ATOM     11  C   UNL     1      45.980  -3.406  10.855  0.00  0.00    +0.000 A 
ATOM     12  C   UNL     1      47.216  -3.481  10.174  0.00  0.00    +0.000 A 
ATOM     13  C   UNL     1      45.272  -2.186  10.809  0.00  0.00    +0.000 A 
ATOM     14  C   UNL     1      47.711  -2.374   9.493  0.00  0.00    +0.000 A 
ATOM     15  C   UNL     1      45.785  -1.075  10.134  0.00  0.00    +0.000 A 
ATOM     16  C   UNL     1      47.003  -1.177   9.488  0.00  0.00    +0.000 A 
BRANCH  14  17
ATOM     17  O   UNL     1      48.890  -2.405   8.802  0.00  0.00    +0.000 OA
ATOM     18  H   UNL     1      49.309  -1.521   8.832  0.00  0.00    +0.000 HD
ENDBRANCH  14  17
BRANCH  16  19
ATOM     19  O   UNL     1      47.503  -0.093   8.825  0.00  0.00    +0.000 OA
ATOM     20  H   UNL     1      48.227  -0.457   8.277  0.00  0.00    +0.000 HD
ENDBRANCH  16  19
ENDBRANCH   2  11
BRANCH   3  21
ATOM     21  O   UNL     1      43.290  -5.714  12.334  0.00  0.00    +0.000 OA
ATOM     22  H   UNL     1      44.028  -6.305  12.586  0.00  0.00    +0.000 HD
ENDBRANCH   3  21
BRANCH   4  23
ATOM     23  O   UNL     1      42.161  -5.533   9.907  0.00  0.00    +0.000 OA
ATOM     24  H   UNL     1      41.698  -4.805  10.379  0.00  0.00    +0.000 HD
ENDBRANCH   4  23
BRANCH   7  25
ATOM     25  O   UNL     1      42.847  -7.007   7.823  0.00  0.00    +0.000 OA
ATOM     26  H   UNL     1      42.395  -6.231   8.224  0.00  0.00    +0.000 HD
ENDBRANCH   7  25
BRANCH  10  27
ATOM     27  O   UNL     1      46.856  -9.489   8.396  0.00  0.00    +0.000 OA
ATOM     28  H   UNL     1      46.721 -10.225   9.017  0.00  0.00    +0.000 HD
ENDBRANCH  10  27
BRANCH   2  29
ATOM     29  O   UNL     1      45.562  -4.435  13.046  0.00  0.00    +0.000 OA
BRANCH  29  31
ATOM     30  O   UNL     1      47.183  -1.861  15.161  0.00  0.00    +0.000 OA
ATOM     31  C   UNL     1      46.656  -3.611  13.494  0.00  0.00    +0.000 C 
ATOM     32  C   UNL     1      46.173  -2.769  14.701  0.00  0.00    +0.000 C 
ATOM     33  C   UNL     1      47.845  -4.454  13.967  0.00  0.00    +0.000 C 
ATOM     34  C   UNL     1      48.771  -3.685  14.868  0.00  0.00    +0.000 A 
ATOM     35  C   UNL     1      48.395  -2.450  15.403  0.00  0.00    +0.000 A 
ATOM     36  C   UNL     1      50.033  -4.197  15.195  0.00  0.00    +0.000 A 
ATOM     37  C   UNL     1      49.273  -1.721  16.208  0.00  0.00    +0.000 A 
ATOM     38  C   UNL     1      50.912  -3.487  16.011  0.00  0.00    +0.000 A 
ATOM     39  C   UNL     1      50.524  -2.249  16.506  0.00  0.00    +0.000 A 
BRANCH  32  40
ATOM     40  C   UNL     1      44.946  -1.943  14.339  0.00  0.00    +0.000 A 
ATOM     41  C   UNL     1      43.655  -2.484  14.441  0.00  0.00    +0.000 A 
ATOM     42  C   UNL     1      45.093  -0.592  13.974  0.00  0.00    +0.000 A 
ATOM     43  C   UNL     1      42.542  -1.672  14.230  0.00  0.00    +0.000 A 
ATOM     44  C   UNL     1      43.973   0.212  13.745  0.00  0.00    +0.000 A 
ATOM     45  C   UNL     1      42.700  -0.330  13.890  0.00  0.00    +0.000 A 
BRANCH  43  46
ATOM     46  O   UNL     1      41.284  -2.167  14.421  0.00  0.00    +0.000 OA
ATOM     47  H   UNL     1      40.751  -1.507  14.896  0.00  0.00    +0.000 HD
ENDBRANCH  43  46
BRANCH  45  48
ATOM     48  O   UNL     1      41.592   0.453  13.732  0.00  0.00    +0.000 OA
ATOM     49  H   UNL     1      41.188   0.261  12.871  0.00  0.00    +0.000 HD
ENDBRANCH  45  48
ENDBRANCH  32  40
BRANCH  36  50
ATOM     50  O   UNL     1      50.394  -5.416  14.694  0.00  0.00    +0.000 OA
ATOM     51  H   UNL     1      51.360  -5.438  14.585  0.00  0.00    +0.000 HD
ENDBRANCH  36  50
BRANCH  39  52
ATOM     52  O   UNL     1      51.410  -1.575  17.295  0.00  0.00    +0.000 OA
ATOM     53  H   UNL     1      51.752  -0.812  16.798  0.00  0.00    +0.000 HD
ENDBRANCH  39  52
ENDBRANCH  29  31
ENDBRANCH   2  29
TORSDOF 14
ENDMDL
MODEL 2
REMARK VINA RESULT:      -7.8      2.368      3.904
REMARK  Name = 
REMARK  14 active torsions:
REMARK  status: ('A' for Active; 'I' for Inactive)
REMARK    1  A    between atoms: O_1  and  C_14
REMARK    2  A    between atoms: O_1  and  C_15
REMARK    3  A    between atoms: O_4  and  C_16
REMARK    4  A    between atoms: O_5  and  C_18
REMARK    5  A    between atoms: O_6  and  C_26
REMARK    6  A    between atoms: O_7  and  C_29
REMARK    7  A    between atoms: O_8  and  C_35
REMARK    8  A    between atoms: O_9  and  C_36
REMARK    9  A    between atoms: O_10  and  C_39
REMARK   10  A    between atoms: O_11  and  C_40
REMARK   11  A    between atoms: O_12  and  C_41
REMARK   12  A    between atoms: O_13  and  C_43
REMARK   13  A    between atoms: C_14  and  C_20
REMARK   14  A    between atoms: C_17  and  C_24
REMARK                            x       y       z     vdW  Elec       q    Type
REMARK                         _______ _______ _______ _____ _____    ______ ____
ROOT
ATOM      1  O   UNL     1      46.102  -4.900  11.690  0.00  0.00    +0.000 OA
ATOM      2  C   UNL     1      45.606  -3.586  11.976  0.00  0.00    +0.000 C 
ATOM      3  C   UNL     1      44.050  -3.542  11.890  0.00  0.00    +0.000 C 
ATOM      4  C   UNL     1      43.576  -4.040  10.528  0.00  0.00    +0.000 C 
ATOM      5  C   UNL     1      44.251  -5.325  10.153  0.00  0.00    +0.000 A 
ATOM      6  C   UNL     1      45.469  -5.662  10.748  0.00  0.00    +0.000 A 
ATOM      7  C   UNL     1      43.722  -6.194   9.186  0.00  0.00    +0.000 A 
ATOM      8  C   UNL     1      46.128  -6.843  10.397  0.00  0.00    +0.000 A 
ATOM      9  C   UNL     1      44.382  -7.362   8.815  0.00  0.00    +0.000 A 
ATOM     10  C   UNL     1      45.583  -7.680   9.431  0.00  0.00    +0.000 A 
ENDROOT
BRANCH   2  11
ATOM     11  C   UNL     1      46.238  -2.498  11.086  0.00  0.00    +0.000 A 
ATOM     12  C   UNL     1      46.082  -1.130  11.402  0.00  0.00    +0.000 A 
ATOM     13  C   UNL     1      47.000  -2.833   9.947  0.00  0.00    +0.000 A 
ATOM     14  C   UNL     1      46.658  -0.153  10.595  0.00  0.00    +0.000 A 
ATOM     15  C   UNL     1      47.563  -1.844   9.135  0.00  0.00    +0.000 A 
ATOM     16  C   UNL     1      47.380  -0.513   9.463  0.00  0.00    +0.000 A 
BRANCH  14  17
ATOM     17  O   UNL     1      46.552   1.181  10.871  0.00  0.00    +0.000 OA
ATOM     18  H   UNL     1      46.642   1.694  10.042  0.00  0.00    +0.000 HD
ENDBRANCH  14  17
BRANCH  16  19
ATOM     19  O   UNL     1      47.933   0.454   8.673  0.00  0.00    +0.000 OA
ATOM     20  H   UNL     1      48.824   0.110   8.456  0.00  0.00    +0.000 HD
ENDBRANCH  16  19
ENDBRANCH   2  11
BRANCH   3  21
ATOM     21  O   UNL     1      43.423  -4.358  12.920  0.00  0.00    +0.000 OA
ATOM     22  H   UNL     1      44.087  -5.043  13.137  0.00  0.00    +0.000 HD
ENDBRANCH   3  21
BRANCH   4  23
ATOM     23  O   UNL     1      42.152  -4.241  10.561  0.00  0.00    +0.000 OA
ATOM     24  H   UNL     1      41.780  -3.348  10.378  0.00  0.00    +0.000 HD
ENDBRANCH   4  23
BRANCH   7  25
ATOM     25  O   UNL     1      42.523  -5.943   8.574  0.00  0.00    +0.000 OA
ATOM     26  H   UNL     1      41.826  -6.016   9.263  0.00  0.00    +0.000 HD
ENDBRANCH   7  25
BRANCH  10  27
ATOM     27  O   UNL     1      46.267  -8.817   9.112  0.00  0.00    +0.000 OA
ATOM     28  H   UNL     1      46.492  -8.784   8.167  0.00  0.00    +0.000 HD
ENDBRANCH  10  27
BRANCH   2  29
ATOM     29  O   UNL     1      45.866  -3.297  13.379  0.00  0.00    +0.000 OA
BRANCH  29  31
ATOM     30  O   UNL     1      48.853  -4.120  15.411  0.00  0.00    +0.000 OA
ATOM     31  C   UNL     1      46.773  -4.176  14.072  0.00  0.00    +0.000 C 
ATOM     32  C   UNL     1      47.862  -3.314  14.759  0.00  0.00    +0.000 C 
ATOM     33  C   UNL     1      46.062  -4.977  15.167  0.00  0.00    +0.000 C 
ATOM     34  C   UNL     1      47.016  -5.512  16.199  0.00  0.00    +0.000 A 
ATOM     35  C   UNL     1      48.338  -5.062  16.260  0.00  0.00    +0.000 A 
ATOM     36  C   UNL     1      46.594  -6.470  17.129  0.00  0.00    +0.000 A 
ATOM     37  C   UNL     1      49.231  -5.589  17.195  0.00  0.00    +0.000 A 
ATOM     38  C   UNL     1      47.471  -6.992  18.077  0.00  0.00    +0.000 A 
ATOM     39  C   UNL     1      48.787  -6.549  18.097  0.00  0.00    +0.000 A 
BRANCH  32  40
ATOM     40  C   UNL     1      48.582  -2.431  13.750  0.00  0.00    +0.000 A 
ATOM     41  C   UNL     1      48.553  -1.032  13.863  0.00  0.00    +0.000 A 
ATOM     42  C   UNL     1      49.359  -3.016  12.733  0.00  0.00    +0.000 A 
ATOM     43  C   UNL     1      49.323  -0.248  13.007  0.00  0.00    +0.000 A 
ATOM     44  C   UNL     1      50.114  -2.224  11.865  0.00  0.00    +0.000 A 
ATOM     45  C   UNL     1      50.105  -0.841  12.017  0.00  0.00    +0.000 A 
BRANCH  43  46
ATOM     46  O   UNL     1      49.374   1.106  13.173  0.00  0.00    +0.000 OA
ATOM     47  H   UNL     1      48.539   1.409  13.569  0.00  0.00    +0.000 HD
ENDBRANCH  43  46
BRANCH  45  48
ATOM     48  O   UNL     1      50.885  -0.052  11.221  0.00  0.00    +0.000 OA
ATOM     49  H   UNL     1      51.788  -0.035  11.578  0.00  0.00    +0.000 HD
ENDBRANCH  45  48
ENDBRANCH  32  40
BRANCH  36  50
ATOM     50  O   UNL     1      45.296  -6.894  17.089  0.00  0.00    +0.000 OA
ATOM     51  H   UNL     1      44.890  -6.586  16.260  0.00  0.00    +0.000 HD
ENDBRANCH  36  50
BRANCH  39  52
ATOM     52  O   UNL     1      49.623  -7.084  19.033  0.00  0.00    +0.000 OA
ATOM     53  H   UNL     1      49.230  -6.956  19.913  0.00  0.00    +0.000 HD
ENDBRANCH  39  52
ENDBRANCH  29  31
ENDBRANCH   2  29
TORSDOF 14
ENDMDL
MODEL 3
REMARK VINA RESULT:      -7.7     35.314     39.093
REMARK  Name = 
REMARK  14 active torsions:
REMARK  status: ('A' for Active; 'I' for Inactive)
REMARK    1  A    between atoms: O_1  and  C_14
REMARK    2  A    between atoms: O_1  and  C_15
REMARK    3  A    between atoms: O_4  and  C_16
REMARK    4  A    between atoms: O_5  and  C_18
REMARK    5  A    between atoms: O_6  and  C_26
REMARK    6  A    between atoms: O_7  and  C_29
REMARK    7  A    between atoms: O_8  and  C_35
REMARK    8  A    between atoms: O_9  and  C_36
REMARK    9  A    between atoms: O_10  and  C_39
REMARK   10  A    between atoms: O_11  and  C_40
REMARK   11  A    between atoms: O_12  and  C_41
REMARK   12  A    between atoms: O_13  and  C_43
REMARK   13  A    between atoms: C_14  and  C_20
REMARK   14  A    between atoms: C_17  and  C_24
REMARK                            x       y       z     vdW  Elec       q    Type
REMARK                         _______ _______ _______ _____ _____    ______ ____
ROOT
ATOM      1  O   UNL     1      21.211  15.971  33.345  0.00  0.00    +0.000 OA
ATOM      2  C   UNL     1      21.307  16.285  31.949  0.00  0.00    +0.000 C 
ATOM      3  C   UNL     1      21.128  15.008  31.073  0.00  0.00    +0.000 C 
ATOM      4  C   UNL     1      22.134  13.936  31.480  0.00  0.00    +0.000 C 
ATOM      5  C   UNL     1      22.163  13.752  32.968  0.00  0.00    +0.000 A 
ATOM      6  C   UNL     1      21.712  14.783  33.798  0.00  0.00    +0.000 A 
ATOM      7  C   UNL     1      22.668  12.590  33.569  0.00  0.00    +0.000 A 
ATOM      8  C   UNL     1      21.751  14.644  35.187  0.00  0.00    +0.000 A 
ATOM      9  C   UNL     1      22.730  12.451  34.953  0.00  0.00    +0.000 A 
ATOM     10  C   UNL     1      22.264  13.483  35.753  0.00  0.00    +0.000 A 
ENDROOT
BRANCH   2  11
ATOM     11  C   UNL     1      22.609  17.025  31.587  0.00  0.00    +0.000 A 
ATOM     12  C   UNL     1      23.434  17.567  32.599  0.00  0.00    +0.000 A 
ATOM     13  C   UNL     1      23.024  17.169  30.246  0.00  0.00    +0.000 A 
ATOM     14  C   UNL     1      24.610  18.232  32.265  0.00  0.00    +0.000 A 
ATOM     15  C   UNL     1      24.200  17.851  29.920  0.00  0.00    +0.000 A 
ATOM     16  C   UNL     1      24.978  18.382  30.933  0.00  0.00    +0.000 A 
BRANCH  14  17
ATOM     17  O   UNL     1      25.449  18.755  33.208  0.00  0.00    +0.000 OA
ATOM     18  H   UNL     1      26.271  18.225  33.243  0.00  0.00    +0.000 HD
ENDBRANCH  14  17
BRANCH  16  19
ATOM     19  O   UNL     1      26.129  19.044  30.615  0.00  0.00    +0.000 OA
ATOM     20  H   UNL     1      25.896  19.570  29.823  0.00  0.00    +0.000 HD
ENDBRANCH  16  19
ENDBRANCH   2  11
BRANCH   3  21
ATOM     21  O   UNL     1      19.789  14.448  31.190  0.00  0.00    +0.000 OA
ATOM     22  H   UNL     1      19.924  13.549  31.552  0.00  0.00    +0.000 HD
ENDBRANCH   3  21
BRANCH   4  23
ATOM     23  O   UNL     1      21.787  12.690  30.852  0.00  0.00    +0.000 OA
ATOM     24  H   UNL     1      20.816  12.756  30.710  0.00  0.00    +0.000 HD
ENDBRANCH   4  23
BRANCH   7  25
ATOM     25  O   UNL     1      23.109  11.530  32.823  0.00  0.00    +0.000 OA
ATOM     26  H   UNL     1      24.012  11.754  32.507  0.00  0.00    +0.000 HD
ENDBRANCH   7  25
BRANCH  10  27
ATOM     27  O   UNL     1      22.292  13.395  37.115  0.00  0.00    +0.000 OA
ATOM     28  H   UNL     1      23.088  13.852  37.435  0.00  0.00    +0.000 HD
ENDBRANCH  10  27
BRANCH   2  29
ATOM     29  O   UNL     1      20.154  17.097  31.586  0.00  0.00    +0.000 OA
BRANCH  29  31
ATOM     30  O   UNL     1      18.630  20.030  33.260  0.00  0.00    +0.000 OA
ATOM     31  C   UNL     1      19.474  17.785  32.655  0.00  0.00    +0.000 C 
ATOM     32  C   UNL     1      19.237  19.253  32.219  0.00  0.00    +0.000 C 
ATOM     33  C   UNL     1      18.104  17.165  32.947  0.00  0.00    +0.000 C 
ATOM     34  C   UNL     1      17.190  18.110  33.676  0.00  0.00    +0.000 A 
ATOM     35  C   UNL     1      17.502  19.468  33.792  0.00  0.00    +0.000 A 
ATOM     36  C   UNL     1      15.999  17.648  34.250  0.00  0.00    +0.000 A 
ATOM     37  C   UNL     1      16.669  20.335  34.503  0.00  0.00    +0.000 A 
ATOM     38  C   UNL     1      15.152  18.506  34.948  0.00  0.00    +0.000 A 
ATOM     39  C   UNL     1      15.500  19.845  35.073  0.00  0.00    +0.000 A 
BRANCH  32  40
ATOM     40  C   UNL     1      20.547  19.933  31.844  0.00  0.00    +0.000 A 
ATOM     41  C   UNL     1      20.929  20.073  30.501  0.00  0.00    +0.000 A 
ATOM     42  C   UNL     1      21.351  20.506  32.845  0.00  0.00    +0.000 A 
ATOM     43  C   UNL     1      22.065  20.812  30.174  0.00  0.00    +0.000 A 
ATOM     44  C   UNL     1      22.499  21.229  32.512  0.00  0.00    +0.000 A 
ATOM     45  C   UNL     1      22.842  21.392  31.174  0.00  0.00    +0.000 A 
BRANCH  43  46
ATOM     46  O   UNL     1      22.389  21.032  28.866  0.00  0.00    +0.000 OA
ATOM     47  H   UNL     1      23.178  20.511  28.642  0.00  0.00    +0.000 HD
ENDBRANCH  43  46
BRANCH  45  48
ATOM     48  O   UNL     1      23.924  22.148  30.823  0.00  0.00    +0.000 OA
ATOM     49  H   UNL     1      23.883  22.998  31.291  0.00  0.00    +0.000 HD
ENDBRANCH  45  48
ENDBRANCH  32  40
BRANCH  36  50
ATOM     50  O   UNL     1      15.679  16.326  34.117  0.00  0.00    +0.000 OA
ATOM     51  H   UNL     1      16.338  15.899  33.543  0.00  0.00    +0.000 HD
ENDBRANCH  36  50
BRANCH  39  52
ATOM     52  O   UNL     1      14.653  20.658  35.769  0.00  0.00    +0.000 OA
ATOM     53  H   UNL     1      14.949  20.698  36.694  0.00  0.00    +0.000 HD
ENDBRANCH  39  52
ENDBRANCH  29  31
ENDBRANCH   2  29
TORSDOF 14
ENDMDL
MODEL 4
REMARK VINA RESULT:      -7.7     17.214     21.404
REMARK  Name = 
REMARK  14 active torsions:
REMARK  status: ('A' for Active; 'I' for Inactive)
REMARK    1  A    between atoms: O_1  and  C_14
REMARK    2  A    between atoms: O_1  and  C_15
REMARK    3  A    between atoms: O_4  and  C_16
REMARK    4  A    between atoms: O_5  and  C_18
REMARK    5  A    between atoms: O_6  and  C_26
REMARK    6  A    between atoms: O_7  and  C_29
REMARK    7  A    between atoms: O_8  and  C_35
REMARK    8  A    between atoms: O_9  and  C_36
REMARK    9  A    between atoms: O_10  and  C_39
REMARK   10  A    between atoms: O_11  and  C_40
REMARK   11  A    between atoms: O_12  and  C_41
REMARK   12  A    between atoms: O_13  and  C_43
REMARK   13  A    between atoms: C_14  and  C_20
REMARK   14  A    between atoms: C_17  and  C_24
REMARK                            x       y       z     vdW  Elec       q    Type
REMARK                         _______ _______ _______ _____ _____    ______ ____
ROOT
ATOM      1  O   UNL     1      26.847  -5.324  14.662  0.00  0.00    +0.000 OA
ATOM      2  C   UNL     1      26.730  -4.500  13.494  0.00  0.00    +0.000 C 
ATOM      3  C   UNL     1      28.126  -4.238  12.850  0.00  0.00    +0.000 C 
ATOM      4  C   UNL     1      29.081  -3.632  13.874  0.00  0.00    +0.000 C 
ATOM      5  C   UNL     1      29.050  -4.393  15.165  0.00  0.00    +0.000 A 
ATOM      6  C   UNL     1      27.935  -5.176  15.477  0.00  0.00    +0.000 A 
ATOM      7  C   UNL     1      30.090  -4.318  16.103  0.00  0.00    +0.000 A 
ATOM      8  C   UNL     1      27.873  -5.875  16.684  0.00  0.00    +0.000 A 
ATOM      9  C   UNL     1      30.029  -4.995  17.318  0.00  0.00    +0.000 A 
ATOM     10  C   UNL     1      28.917  -5.776  17.597  0.00  0.00    +0.000 A 
ENDROOT
BRANCH   2  11
ATOM     11  C   UNL     1      25.989  -3.176  13.763  0.00  0.00    +0.000 A 
ATOM     12  C   UNL     1      25.772  -2.248  12.721  0.00  0.00    +0.000 A 
ATOM     13  C   UNL     1      25.495  -2.860  15.046  0.00  0.00    +0.000 A 
ATOM     14  C   UNL     1      25.100  -1.056  12.971  0.00  0.00    +0.000 A 
ATOM     15  C   UNL     1      24.833  -1.653  15.291  0.00  0.00    +0.000 A 
ATOM     16  C   UNL     1      24.648  -0.759  14.251  0.00  0.00    +0.000 A 
BRANCH  14  17
ATOM     17  O   UNL     1      24.848  -0.137  11.991  0.00  0.00    +0.000 OA
ATOM     18  H   UNL     1      25.099  -0.509  11.122  0.00  0.00    +0.000 HD
ENDBRANCH  14  17
BRANCH  16  19
ATOM     19  O   UNL     1      23.998   0.418  14.488  0.00  0.00    +0.000 OA
ATOM     20  H   UNL     1      23.327   0.472  13.778  0.00  0.00    +0.000 HD
ENDBRANCH  16  19
ENDBRANCH   2  11
BRANCH   3  21
ATOM     21  O   UNL     1      28.726  -5.458  12.330  0.00  0.00    +0.000 OA
ATOM     22  H   UNL     1      28.214  -6.184  12.740  0.00  0.00    +0.000 HD
ENDBRANCH   3  21
BRANCH   4  23
ATOM     23  O   UNL     1      30.419  -3.642  13.346  0.00  0.00    +0.000 OA
ATOM     24  H   UNL     1      30.882  -2.940  13.855  0.00  0.00    +0.000 HD
ENDBRANCH   4  23
BRANCH   7  25
ATOM     25  O   UNL     1      31.224  -3.589  15.861  0.00  0.00    +0.000 OA
ATOM     26  H   UNL     1      30.956  -2.645  15.813  0.00  0.00    +0.000 HD
ENDBRANCH   7  25
BRANCH  10  27
ATOM     27  O   UNL     1      28.809  -6.468  18.768  0.00  0.00    +0.000 OA
ATOM     28  H   UNL     1      29.702  -6.610  19.123  0.00  0.00    +0.000 HD
ENDBRANCH  10  27
BRANCH   2  29
ATOM     29  O   UNL     1      26.033  -5.263  12.468  0.00  0.00    +0.000 OA
BRANCH  29  31
ATOM     30  O   UNL     1      23.595  -8.026  12.854  0.00  0.00    +0.000 OA
ATOM     31  C   UNL     1      25.615  -6.598  12.815  0.00  0.00    +0.000 C 
ATOM     32  C   UNL     1      24.112  -6.745  12.468  0.00  0.00    +0.000 C 
ATOM     33  C   UNL     1      26.378  -7.658  12.014  0.00  0.00    +0.000 C 
ATOM     34  C   UNL     1      25.659  -8.978  11.979  0.00  0.00    +0.000 A 
ATOM     35  C   UNL     1      24.329  -9.086  12.397  0.00  0.00    +0.000 A 
ATOM     36  C   UNL     1      26.308 -10.130  11.517  0.00  0.00    +0.000 A 
ATOM     37  C   UNL     1      23.677 -10.321  12.399  0.00  0.00    +0.000 A 
ATOM     38  C   UNL     1      25.663 -11.364  11.498  0.00  0.00    +0.000 A 
ATOM     39  C   UNL     1      24.351 -11.449  11.947  0.00  0.00    +0.000 A 
BRANCH  32  40
ATOM     40  C   UNL     1      23.278  -5.683  13.173  0.00  0.00    +0.000 A 
ATOM     41  C   UNL     1      23.129  -5.692  14.569  0.00  0.00    +0.000 A 
ATOM     42  C   UNL     1      22.714  -4.628  12.434  0.00  0.00    +0.000 A 
ATOM     43  C   UNL     1      22.472  -4.640  15.204  0.00  0.00    +0.000 A 
ATOM     44  C   UNL     1      22.039  -3.587  13.075  0.00  0.00    +0.000 A 
ATOM     45  C   UNL     1      21.935  -3.590  14.463  0.00  0.00    +0.000 A 
BRANCH  43  46
ATOM     46  O   UNL     1      22.407  -4.594  16.568  0.00  0.00    +0.000 OA
ATOM     47  H   UNL     1      22.066  -3.726  16.841  0.00  0.00    +0.000 HD
ENDBRANCH  43  46
BRANCH  45  48
ATOM     48  O   UNL     1      21.336  -2.551  15.115  0.00  0.00    +0.000 OA
ATOM     49  H   UNL     1      20.433  -2.440  14.773  0.00  0.00    +0.000 HD
ENDBRANCH  45  48
ENDBRANCH  32  40
BRANCH  36  50
ATOM     50  O   UNL     1      27.599 -10.023  11.083  0.00  0.00    +0.000 OA
ATOM     51  H   UNL     1      27.892 -10.887  10.748  0.00  0.00    +0.000 HD
ENDBRANCH  36  50
BRANCH  39  52
ATOM     52  O   UNL     1      23.751 -12.674  11.923  0.00  0.00    +0.000 OA
ATOM     53  H   UNL     1      23.594 -12.963  12.839  0.00  0.00    +0.000 HD
ENDBRANCH  39  52
ENDBRANCH  29  31
ENDBRANCH   2  29
TORSDOF 14
ENDMDL
MODEL 5
REMARK VINA RESULT:      -7.5     17.536     21.260
REMARK  Name = 
REMARK  14 active torsions:
REMARK  status: ('A' for Active; 'I' for Inactive)
REMARK    1  A    between atoms: O_1  and  C_14
REMARK    2  A    between atoms: O_1  and  C_15
REMARK    3  A    between atoms: O_4  and  C_16
REMARK    4  A    between atoms: O_5  and  C_18
REMARK    5  A    between atoms: O_6  and  C_26
REMARK    6  A    between atoms: O_7  and  C_29
REMARK    7  A    between atoms: O_8  and  C_35
REMARK    8  A    between atoms: O_9  and  C_36
REMARK    9  A    between atoms: O_10  and  C_39
REMARK   10  A    between atoms: O_11  and  C_40
REMARK   11  A    between atoms: O_12  and  C_41
REMARK   12  A    between atoms: O_13  and  C_43
REMARK   13  A    between atoms: C_14  and  C_20
REMARK   14  A    between atoms: C_17  and  C_24
REMARK                            x       y       z     vdW  Elec       q    Type
REMARK                         _______ _______ _______ _____ _____    ______ ____
ROOT
ATOM      1  O   UNL     1      26.915  -5.077  15.353  0.00  0.00    +0.000 OA
ATOM      2  C   UNL     1      25.676  -5.626  14.883  0.00  0.00    +0.000 C 
ATOM      3  C   UNL     1      25.923  -6.735  13.815  0.00  0.00    +0.000 C 
ATOM      4  C   UNL     1      26.772  -6.194  12.669  0.00  0.00    +0.000 C 
ATOM      5  C   UNL     1      27.969  -5.452  13.181  0.00  0.00    +0.000 A 
ATOM      6  C   UNL     1      27.956  -4.935  14.479  0.00  0.00    +0.000 A 
ATOM      7  C   UNL     1      29.101  -5.216  12.385  0.00  0.00    +0.000 A 
ATOM      8  C   UNL     1      29.051  -4.220  14.971  0.00  0.00    +0.000 A 
ATOM      9  C   UNL     1      30.188  -4.487  12.859  0.00  0.00    +0.000 A 
ATOM     10  C   UNL     1      30.155  -3.997  14.156  0.00  0.00    +0.000 A 
ENDROOT
BRANCH   2  11
ATOM     11  C   UNL     1      24.707  -4.553  14.350  0.00  0.00    +0.000 A 
ATOM     12  C   UNL     1      25.047  -3.183  14.411  0.00  0.00    +0.000 A 
ATOM     13  C   UNL     1      23.467  -4.904  13.775  0.00  0.00    +0.000 A 
ATOM     14  C   UNL     1      24.168  -2.220  13.925  0.00  0.00    +0.000 A 
ATOM     15  C   UNL     1      22.585  -3.928  13.303  0.00  0.00    +0.000 A 
ATOM     16  C   UNL     1      22.941  -2.594  13.389  0.00  0.00    +0.000 A 
BRANCH  14  17
ATOM     17  O   UNL     1      24.461  -0.885  13.943  0.00  0.00    +0.000 OA
ATOM     18  H   UNL     1      24.582  -0.565  13.026  0.00  0.00    +0.000 HD
ENDBRANCH  14  17
BRANCH  16  19
ATOM     19  O   UNL     1      22.082  -1.640  12.924  0.00  0.00    +0.000 OA
ATOM     20  H   UNL     1      21.845  -1.944  12.024  0.00  0.00    +0.000 HD
ENDBRANCH  16  19
ENDBRANCH   2  11
BRANCH   3  21
ATOM     21  O   UNL     1      26.600  -7.895  14.379  0.00  0.00    +0.000 OA
ATOM     22  H   UNL     1      26.036  -8.657  14.135  0.00  0.00    +0.000 HD
ENDBRANCH   3  21
BRANCH   4  23
ATOM     23  O   UNL     1      27.206  -7.284  11.837  0.00  0.00    +0.000 OA
ATOM     24  H   UNL     1      28.063  -7.561  12.233  0.00  0.00    +0.000 HD
ENDBRANCH   4  23
BRANCH   7  25
ATOM     25  O   UNL     1      29.197  -5.707  11.111  0.00  0.00    +0.000 OA
ATOM     26  H   UNL     1      30.149  -5.694  10.867  0.00  0.00    +0.000 HD
ENDBRANCH   7  25
BRANCH  10  27
ATOM     27  O   UNL     1      31.197  -3.284  14.674  0.00  0.00    +0.000 OA
ATOM     28  H   UNL     1      31.875  -3.910  14.979  0.00  0.00    +0.000 HD
ENDBRANCH  10  27
BRANCH   2  29
ATOM     29  O   UNL     1      25.058  -6.357  15.979  0.00  0.00    +0.000 OA
BRANCH  29  31
ATOM     30  O   UNL     1      24.627  -5.674  19.595  0.00  0.00    +0.000 OA
ATOM     31  C   UNL     1      25.506  -6.043  17.312  0.00  0.00    +0.000 C 
ATOM     32  C   UNL     1      24.278  -6.054  18.257  0.00  0.00    +0.000 C 
ATOM     33  C   UNL     1      26.499  -7.084  17.837  0.00  0.00    +0.000 C 
ATOM     34  C   UNL     1      26.605  -7.072  19.337  0.00  0.00    +0.000 A 
ATOM     35  C   UNL     1      25.679  -6.376  20.119  0.00  0.00    +0.000 A 
ATOM     36  C   UNL     1      27.635  -7.767  19.984  0.00  0.00    +0.000 A 
ATOM     37  C   UNL     1      25.803  -6.335  21.509  0.00  0.00    +0.000 A 
ATOM     38  C   UNL     1      27.760  -7.747  21.371  0.00  0.00    +0.000 A 
ATOM     39  C   UNL     1      26.843  -7.024  22.122  0.00  0.00    +0.000 A 
BRANCH  32  40
ATOM     40  C   UNL     1      23.204  -5.089  17.773  0.00  0.00    +0.000 A 
ATOM     41  C   UNL     1      23.436  -3.705  17.745  0.00  0.00    +0.000 A 
ATOM     42  C   UNL     1      21.989  -5.587  17.268  0.00  0.00    +0.000 A 
ATOM     43  C   UNL     1      22.490  -2.853  17.179  0.00  0.00    +0.000 A 
ATOM     44  C   UNL     1      21.037  -4.725  16.719  0.00  0.00    +0.000 A 
ATOM     45  C   UNL     1      21.300  -3.360  16.663  0.00  0.00    +0.000 A 
BRANCH  43  46
ATOM     46  O   UNL     1      22.751  -1.517  17.062  0.00  0.00    +0.000 OA
ATOM     47  H   UNL     1      23.708  -1.389  16.952  0.00  0.00    +0.000 HD
ENDBRANCH  43  46
BRANCH  45  48
ATOM     48  O   UNL     1      20.411  -2.507  16.074  0.00  0.00    +0.000 OA
ATOM     49  H   UNL     1      20.375  -2.694  15.121  0.00  0.00    +0.000 HD
ENDBRANCH  45  48
ENDBRANCH  32  40
BRANCH  36  50
ATOM     50  O   UNL     1      28.527  -8.469  19.223  0.00  0.00    +0.000 OA
ATOM     51  H   UNL     1      28.994  -9.105  19.792  0.00  0.00    +0.000 HD
ENDBRANCH  36  50
BRANCH  39  52
ATOM     52  O   UNL     1      26.998  -7.018  23.478  0.00  0.00    +0.000 OA
ATOM     53  H   UNL     1      27.827  -7.476  23.699  0.00  0.00    +0.000 HD
ENDBRANCH  39  52
ENDBRANCH  29  31
ENDBRANCH   2  29
TORSDOF 14
ENDMDL
MODEL 6
REMARK VINA RESULT:      -7.5     21.834     26.556
REMARK  Name = 
REMARK  14 active torsions:
REMARK  status: ('A' for Active; 'I' for Inactive)
REMARK    1  A    between atoms: O_1  and  C_14
REMARK    2  A    between atoms: O_1  and  C_15
REMARK    3  A    between atoms: O_4  and  C_16
REMARK    4  A    between atoms: O_5  and  C_18
REMARK    5  A    between atoms: O_6  and  C_26
REMARK    6  A    between atoms: O_7  and  C_29
REMARK    7  A    between atoms: O_8  and  C_35
REMARK    8  A    between atoms: O_9  and  C_36
REMARK    9  A    between atoms: O_10  and  C_39
REMARK   10  A    between atoms: O_11  and  C_40
REMARK   11  A    between atoms: O_12  and  C_41
REMARK   12  A    between atoms: O_13  and  C_43
REMARK   13  A    between atoms: C_14  and  C_20
REMARK   14  A    between atoms: C_17  and  C_24
REMARK                            x       y       z     vdW  Elec       q    Type
REMARK                         _______ _______ _______ _____ _____    ______ ____
ROOT
ATOM      1  O   UNL     1      25.995  -2.961  30.699  0.00  0.00    +0.000 OA
ATOM      2  C   UNL     1      26.487  -2.781  29.364  0.00  0.00    +0.000 C 
ATOM      3  C   UNL     1      27.032  -1.335  29.157  0.00  0.00    +0.000 C 
ATOM      4  C   UNL     1      25.962  -0.306  29.508  0.00  0.00    +0.000 C 
ATOM      5  C   UNL     1      25.318  -0.617  30.825  0.00  0.00    +0.000 A 
ATOM      6  C   UNL     1      25.368  -1.921  31.325  0.00  0.00    +0.000 A 
ATOM      7  C   UNL     1      24.623   0.351  31.566  0.00  0.00    +0.000 A 
ATOM      8  C   UNL     1      24.754  -2.240  32.539  0.00  0.00    +0.000 A 
ATOM      9  C   UNL     1      23.991   0.038  32.767  0.00  0.00    +0.000 A 
ATOM     10  C   UNL     1      24.068  -1.261  33.247  0.00  0.00    +0.000 A 
ENDROOT
BRANCH   2  11
ATOM     11  C   UNL     1      25.445  -3.138  28.287  0.00  0.00    +0.000 A 
ATOM     12  C   UNL     1      24.367  -4.000  28.586  0.00  0.00    +0.000 A 
ATOM     13  C   UNL     1      25.525  -2.606  26.982  0.00  0.00    +0.000 A 
ATOM     14  C   UNL     1      23.428  -4.316  27.609  0.00  0.00    +0.000 A 
ATOM     15  C   UNL     1      24.585  -2.941  26.004  0.00  0.00    +0.000 A 
ATOM     16  C   UNL     1      23.549  -3.798  26.325  0.00  0.00    +0.000 A 
BRANCH  14  17
ATOM     17  O   UNL     1      22.357  -5.129  27.857  0.00  0.00    +0.000 OA
ATOM     18  H   UNL     1      21.956  -4.887  28.716  0.00  0.00    +0.000 HD
ENDBRANCH  14  17
BRANCH  16  19
ATOM     19  O   UNL     1      22.628  -4.122  25.371  0.00  0.00    +0.000 OA
ATOM     20  H   UNL     1      21.985  -3.385  25.393  0.00  0.00    +0.000 HD
ENDBRANCH  16  19
ENDBRANCH   2  11
BRANCH   3  21
ATOM     21  O   UNL     1      28.207  -1.072  29.975  0.00  0.00    +0.000 OA
ATOM     22  H   UNL     1      28.558  -0.220  29.643  0.00  0.00    +0.000 HD
ENDBRANCH   3  21
BRANCH   4  23
ATOM     23  O   UNL     1      26.556   1.003  29.565  0.00  0.00    +0.000 OA
ATOM     24  H   UNL     1      26.577   1.214  30.525  0.00  0.00    +0.000 HD
ENDBRANCH   4  23
BRANCH   7  25
ATOM     25  O   UNL     1      24.548   1.654  31.152  0.00  0.00    +0.000 OA
ATOM     26  H   UNL     1      24.624   1.651  30.173  0.00  0.00    +0.000 HD
ENDBRANCH   7  25
BRANCH  10  27
ATOM     27  O   UNL     1      23.475  -1.620  34.422  0.00  0.00    +0.000 OA
ATOM     28  H   UNL     1      24.148  -1.602  35.124  0.00  0.00    +0.000 HD
ENDBRANCH  10  27
BRANCH   2  29
ATOM     29  O   UNL     1      27.675  -3.606  29.202  0.00  0.00    +0.000 OA
BRANCH  29  31
ATOM     30  O   UNL     1      28.574  -6.891  27.742  0.00  0.00    +0.000 OA
ATOM     31  C   UNL     1      27.469  -4.998  28.890  0.00  0.00    +0.000 C 
ATOM     32  C   UNL     1      28.728  -5.527  28.158  0.00  0.00    +0.000 C 
ATOM     33  C   UNL     1      27.283  -5.842  30.155  0.00  0.00    +0.000 C 
ATOM     34  C   UNL     1      27.553  -7.302  29.916  0.00  0.00    +0.000 A 
ATOM     35  C   UNL     1      28.171  -7.737  28.740  0.00  0.00    +0.000 A 
ATOM     36  C   UNL     1      27.195  -8.258  30.874  0.00  0.00    +0.000 A 
ATOM     37  C   UNL     1      28.384  -9.098  28.504  0.00  0.00    +0.000 A 
ATOM     38  C   UNL     1      27.418  -9.616  30.659  0.00  0.00    +0.000 A 
ATOM     39  C   UNL     1      28.007 -10.024  29.469  0.00  0.00    +0.000 A 
BRANCH  32  40
ATOM     40  C   UNL     1      29.029  -4.701  26.915  0.00  0.00    +0.000 A 
ATOM     41  C   UNL     1      30.138  -3.842  26.870  0.00  0.00    +0.000 A 
ATOM     42  C   UNL     1      28.239  -4.857  25.761  0.00  0.00    +0.000 A 
ATOM     43  C   UNL     1      30.468  -3.195  25.681  0.00  0.00    +0.000 A 
ATOM     44  C   UNL     1      28.565  -4.191  24.577  0.00  0.00    +0.000 A 
ATOM     45  C   UNL     1      29.690  -3.374  24.538  0.00  0.00    +0.000 A 
BRANCH  43  46
ATOM     46  O   UNL     1      31.599  -2.434  25.604  0.00  0.00    +0.000 OA
ATOM     47  H   UNL     1      31.349  -1.509  25.440  0.00  0.00    +0.000 HD
ENDBRANCH  43  46
BRANCH  45  48
ATOM     48  O   UNL     1      30.063  -2.763  23.375  0.00  0.00    +0.000 OA
ATOM     49  H   UNL     1      30.177  -1.812  23.538  0.00  0.00    +0.000 HD
ENDBRANCH  45  48
ENDBRANCH  32  40
BRANCH  36  50
ATOM     50  O   UNL     1      26.614  -7.834  32.036  0.00  0.00    +0.000 OA
ATOM     51  H   UNL     1      25.731  -7.478  31.835  0.00  0.00    +0.000 HD
ENDBRANCH  36  50
BRANCH  39  52
ATOM     52  O   UNL     1      28.204 -11.362  29.285  0.00  0.00    +0.000 OA
ATOM     53  H   UNL     1      27.383 -11.754  28.942  0.00  0.00    +0.000 HD
ENDBRANCH  39  52
ENDBRANCH  29  31
ENDBRANCH   2  29
TORSDOF 14
ENDMDL
MODEL 7
REMARK VINA RESULT:      -7.4     12.411     17.116
REMARK  Name = 
REMARK  14 active torsions:
REMARK  status: ('A' for Active; 'I' for Inactive)
REMARK    1  A    between atoms: O_1  and  C_14
REMARK    2  A    between atoms: O_1  and  C_15
REMARK    3  A    between atoms: O_4  and  C_16
REMARK    4  A    between atoms: O_5  and  C_18
REMARK    5  A    between atoms: O_6  and  C_26
REMARK    6  A    between atoms: O_7  and  C_29
REMARK    7  A    between atoms: O_8  and  C_35
REMARK    8  A    between atoms: O_9  and  C_36
REMARK    9  A    between atoms: O_10  and  C_39
REMARK   10  A    between atoms: O_11  and  C_40
REMARK   11  A    between atoms: O_12  and  C_41
REMARK   12  A    between atoms: O_13  and  C_43
REMARK   13  A    between atoms: C_14  and  C_20
REMARK   14  A    between atoms: C_17  and  C_24
REMARK                            x       y       z     vdW  Elec       q    Type
REMARK                         _______ _______ _______ _____ _____    ______ ____
ROOT
ATOM      1  O   UNL     1      39.741   9.321  19.515  0.00  0.00    +0.000 OA
ATOM      2  C   UNL     1      39.533   9.542  20.916  0.00  0.00    +0.000 C 
ATOM      3  C   UNL     1      38.326   8.708  21.443  0.00  0.00    +0.000 C 
ATOM      4  C   UNL     1      37.070   9.014  20.632  0.00  0.00    +0.000 C 
ATOM      5  C   UNL     1      37.349   8.968  19.160  0.00  0.00    +0.000 A 
ATOM      6  C   UNL     1      38.658   9.135  18.701  0.00  0.00    +0.000 A 
ATOM      7  C   UNL     1      36.330   8.803  18.210  0.00  0.00    +0.000 A 
ATOM      8  C   UNL     1      38.939   9.119  17.332  0.00  0.00    +0.000 A 
ATOM      9  C   UNL     1      36.596   8.806  16.844  0.00  0.00    +0.000 A 
ATOM     10  C   UNL     1      37.906   8.960  16.415  0.00  0.00    +0.000 A 
ENDROOT
BRANCH   2  11
ATOM     11  C   UNL     1      39.371  11.033  21.272  0.00  0.00    +0.000 A 
ATOM     12  C   UNL     1      39.335  12.015  20.256  0.00  0.00    +0.000 A 
ATOM     13  C   UNL     1      39.241  11.459  22.610  0.00  0.00    +0.000 A 
ATOM     14  C   UNL     1      39.186  13.359  20.584  0.00  0.00    +0.000 A 
ATOM     15  C   UNL     1      39.106  12.813  22.931  0.00  0.00    +0.000 A 
ATOM     16  C   UNL     1      39.087  13.750  21.914  0.00  0.00    +0.000 A 
BRANCH  14  17
ATOM     17  O   UNL     1      39.124  14.342  19.637  0.00  0.00    +0.000 OA
ATOM     18  H   UNL     1      39.890  14.943  19.740  0.00  0.00    +0.000 HD
ENDBRANCH  14  17
BRANCH  16  19
ATOM     19  O   UNL     1      38.951  15.073  22.226  0.00  0.00    +0.000 OA
ATOM     20  H   UNL     1      39.107  15.539  21.379  0.00  0.00    +0.000 HD
ENDBRANCH  16  19
ENDBRANCH   2  11
BRANCH   3  21
ATOM     21  O   UNL     1      38.579   7.276  21.374  0.00  0.00    +0.000 OA
ATOM     22  H   UNL     1      39.283   7.114  22.035  0.00  0.00    +0.000 HD
ENDBRANCH   3  21
BRANCH   4  23
ATOM     23  O   UNL     1      36.047   8.057  20.954  0.00  0.00    +0.000 OA
ATOM     24  H   UNL     1      36.546   7.249  21.211  0.00  0.00    +0.000 HD
ENDBRANCH   4  23
BRANCH   7  25
ATOM     25  O   UNL     1      35.026   8.612  18.582  0.00  0.00    +0.000 OA
ATOM     26  H   UNL     1      34.465   8.889  17.824  0.00  0.00    +0.000 HD
ENDBRANCH   7  25
BRANCH  10  27
ATOM     27  O   UNL     1      38.226   8.962  15.089  0.00  0.00    +0.000 OA
ATOM     28  H   UNL     1      38.565   8.082  14.854  0.00  0.00    +0.000 HD
ENDBRANCH  10  27
BRANCH   2  29
ATOM     29  O   UNL     1      40.663   8.977  21.638  0.00  0.00    +0.000 OA
BRANCH  29  31
ATOM     30  O   UNL     1      44.199   8.594  20.597  0.00  0.00    +0.000 OA
ATOM     31  C   UNL     1      41.743   8.439  20.849  0.00  0.00    +0.000 C 
ATOM     32  C   UNL     1      43.076   9.022  21.380  0.00  0.00    +0.000 C 
ATOM     33  C   UNL     1      41.827   6.914  20.968  0.00  0.00    +0.000 C 
ATOM     34  C   UNL     1      43.179   6.382  20.581  0.00  0.00    +0.000 A 
ATOM     35  C   UNL     1      44.271   7.240  20.417  0.00  0.00    +0.000 A 
ATOM     36  C   UNL     1      43.375   5.009  20.383  0.00  0.00    +0.000 A 
ATOM     37  C   UNL     1      45.516   6.746  20.019  0.00  0.00    +0.000 A 
ATOM     38  C   UNL     1      44.615   4.503  20.002  0.00  0.00    +0.000 A 
ATOM     39  C   UNL     1      45.676   5.380  19.818  0.00  0.00    +0.000 A 
BRANCH  32  40
ATOM     40  C   UNL     1      43.057  10.544  21.359  0.00  0.00    +0.000 A 
ATOM     41  C   UNL     1      43.021  11.250  20.146  0.00  0.00    +0.000 A 
ATOM     42  C   UNL     1      42.991  11.262  22.567  0.00  0.00    +0.000 A 
ATOM     43  C   UNL     1      42.873  12.635  20.151  0.00  0.00    +0.000 A 
ATOM     44  C   UNL     1      42.863  12.653  22.566  0.00  0.00    +0.000 A 
ATOM     45  C   UNL     1      42.788  13.333  21.354  0.00  0.00    +0.000 A 
BRANCH  43  46
ATOM     46  O   UNL     1      42.742  13.317  18.975  0.00  0.00    +0.000 OA
ATOM     47  H   UNL     1      43.145  12.797  18.260  0.00  0.00    +0.000 HD
ENDBRANCH  43  46
BRANCH  45  48
ATOM     48  O   UNL     1      42.599  14.685  21.329  0.00  0.00    +0.000 OA
ATOM     49  H   UNL     1      43.254  15.086  20.735  0.00  0.00    +0.000 HD
ENDBRANCH  45  48
ENDBRANCH  32  40
BRANCH  36  50
ATOM     50  O   UNL     1      42.316   4.165  20.567  0.00  0.00    +0.000 OA
ATOM     51  H   UNL     1      41.914   3.970  19.703  0.00  0.00    +0.000 HD
ENDBRANCH  36  50
BRANCH  39  52
ATOM     52  O   UNL     1      46.876   4.854  19.437  0.00  0.00    +0.000 OA
ATOM     53  H   UNL     1      47.154   4.200  20.101  0.00  0.00    +0.000 HD
ENDBRANCH  39  52
ENDBRANCH  29  31
ENDBRANCH   2  29
TORSDOF 14
ENDMDL
MODEL 8
REMARK VINA RESULT:      -7.4     17.219     21.588
REMARK  Name = 
REMARK  14 active torsions:
REMARK  status: ('A' for Active; 'I' for Inactive)
REMARK    1  A    between atoms: O_1  and  C_14
REMARK    2  A    between atoms: O_1  and  C_15
REMARK    3  A    between atoms: O_4  and  C_16
REMARK    4  A    between atoms: O_5  and  C_18
REMARK    5  A    between atoms: O_6  and  C_26
REMARK    6  A    between atoms: O_7  and  C_29
REMARK    7  A    between atoms: O_8  and  C_35
REMARK    8  A    between atoms: O_9  and  C_36
REMARK    9  A    between atoms: O_10  and  C_39
REMARK   10  A    between atoms: O_11  and  C_40
REMARK   11  A    between atoms: O_12  and  C_41
REMARK   12  A    between atoms: O_13  and  C_43
REMARK   13  A    between atoms: C_14  and  C_20
REMARK   14  A    between atoms: C_17  and  C_24
REMARK                            x       y       z     vdW  Elec       q    Type
REMARK                         _______ _______ _______ _____ _____    ______ ____
ROOT
ATOM      1  O   UNL     1      26.891  -5.517  14.858  0.00  0.00    +0.000 OA
ATOM      2  C   UNL     1      27.319  -5.234  16.198  0.00  0.00    +0.000 C 
ATOM      3  C   UNL     1      28.358  -4.072  16.222  0.00  0.00    +0.000 C 
ATOM      4  C   UNL     1      29.538  -4.392  15.309  0.00  0.00    +0.000 C 
ATOM      5  C   UNL     1      29.073  -4.873  13.967  0.00  0.00    +0.000 A 
ATOM      6  C   UNL     1      27.791  -5.411  13.834  0.00  0.00    +0.000 A 
ATOM      7  C   UNL     1      29.899  -4.841  12.834  0.00  0.00    +0.000 A 
ATOM      8  C   UNL     1      27.344  -5.887  12.599  0.00  0.00    +0.000 A 
ATOM      9  C   UNL     1      29.471  -5.332  11.603  0.00  0.00    +0.000 A 
ATOM     10  C   UNL     1      28.189  -5.849  11.496  0.00  0.00    +0.000 A 
ENDROOT
BRANCH   2  11
ATOM     11  C   UNL     1      27.862  -6.477  16.929  0.00  0.00    +0.000 A 
ATOM     12  C   UNL     1      28.606  -6.341  18.123  0.00  0.00    +0.000 A 
ATOM     13  C   UNL     1      27.624  -7.779  16.441  0.00  0.00    +0.000 A 
ATOM     14  C   UNL     1      29.092  -7.467  18.780  0.00  0.00    +0.000 A 
ATOM     15  C   UNL     1      28.129  -8.904  17.101  0.00  0.00    +0.000 A 
ATOM     16  C   UNL     1      28.863  -8.736  18.260  0.00  0.00    +0.000 A 
BRANCH  14  17
ATOM     17  O   UNL     1      29.797  -7.388  19.947  0.00  0.00    +0.000 OA
ATOM     18  H   UNL     1      30.753  -7.330  19.748  0.00  0.00    +0.000 HD
ENDBRANCH  14  17
BRANCH  16  19
ATOM     19  O   UNL     1      29.353  -9.835  18.907  0.00  0.00    +0.000 OA
ATOM     20  H   UNL     1      28.709 -10.544  18.703  0.00  0.00    +0.000 HD
ENDBRANCH  16  19
ENDBRANCH   2  11
BRANCH   3  21
ATOM     21  O   UNL     1      27.775  -2.809  15.793  0.00  0.00    +0.000 OA
ATOM     22  H   UNL     1      27.787  -2.846  14.815  0.00  0.00    +0.000 HD
ENDBRANCH   3  21
BRANCH   4  23
ATOM     23  O   UNL     1      30.346  -3.214  15.140  0.00  0.00    +0.000 OA
ATOM     24  H   UNL     1      31.259  -3.520  15.337  0.00  0.00    +0.000 HD
ENDBRANCH   4  23
BRANCH   7  25
ATOM     25  O   UNL     1      31.161  -4.310  12.879  0.00  0.00    +0.000 OA
ATOM     26  H   UNL     1      31.082  -3.411  13.268  0.00  0.00    +0.000 HD
ENDBRANCH   7  25
BRANCH  10  27
ATOM     27  O   UNL     1      27.714  -6.334  10.312  0.00  0.00    +0.000 OA
ATOM     28  H   UNL     1      28.015  -7.254  10.216  0.00  0.00    +0.000 HD
ENDBRANCH  10  27
BRANCH   2  29
ATOM     29  O   UNL     1      26.188  -4.680  16.928  0.00  0.00    +0.000 OA
BRANCH  29  31
ATOM     30  O   UNL     1      22.602  -5.592  17.121  0.00  0.00    +0.000 OA
ATOM     31  C   UNL     1      24.874  -4.935  16.394  0.00  0.00    +0.000 C 
ATOM     32  C   UNL     1      23.920  -5.250  17.573  0.00  0.00    +0.000 C 
ATOM     33  C   UNL     1      24.312  -3.712  15.662  0.00  0.00    +0.000 C 
ATOM     34  C   UNL     1      22.815  -3.761  15.528  0.00  0.00    +0.000 A 
ATOM     35  C   UNL     1      22.057  -4.686  16.252  0.00  0.00    +0.000 A 
ATOM     36  C   UNL     1      22.147  -2.871  14.678  0.00  0.00    +0.000 A 
ATOM     37  C   UNL     1      20.671  -4.753  16.096  0.00  0.00    +0.000 A 
ATOM     38  C   UNL     1      20.763  -2.918  14.526  0.00  0.00    +0.000 A 
ATOM     39  C   UNL     1      20.037  -3.866  15.235  0.00  0.00    +0.000 A 
BRANCH  32  40
ATOM     40  C   UNL     1      24.436  -6.418  18.402  0.00  0.00    +0.000 A 
ATOM     41  C   UNL     1      24.296  -7.741  17.951  0.00  0.00    +0.000 A 
ATOM     42  C   UNL     1      25.138  -6.176  19.596  0.00  0.00    +0.000 A 
ATOM     43  C   UNL     1      24.889  -8.783  18.660  0.00  0.00    +0.000 A 
ATOM     44  C   UNL     1      25.714  -7.228  20.313  0.00  0.00    +0.000 A 
ATOM     45  C   UNL     1      25.600  -8.528  19.831  0.00  0.00    +0.000 A 
BRANCH  43  46
ATOM     46  O   UNL     1      24.838 -10.059  18.177  0.00  0.00    +0.000 OA
ATOM     47  H   UNL     1      24.034 -10.493  18.508  0.00  0.00    +0.000 HD
ENDBRANCH  43  46
BRANCH  45  48
ATOM     48  O   UNL     1      26.209  -9.563  20.481  0.00  0.00    +0.000 OA
ATOM     49  H   UNL     1      27.108  -9.296  20.732  0.00  0.00    +0.000 HD
ENDBRANCH  45  48
ENDBRANCH  32  40
BRANCH  36  50
ATOM     50  O   UNL     1      22.883  -1.949  13.987  0.00  0.00    +0.000 OA
ATOM     51  H   UNL     1      22.336  -1.160  13.835  0.00  0.00    +0.000 HD
ENDBRANCH  36  50
BRANCH  39  52
ATOM     52  O   UNL     1      18.684  -3.890  15.058  0.00  0.00    +0.000 OA
ATOM     53  H   UNL     1      18.481  -3.583  14.158  0.00  0.00    +0.000 HD
ENDBRANCH  39  52
ENDBRANCH  29  31
ENDBRANCH   2  29
TORSDOF 14
ENDMDL
MODEL 9
REMARK VINA RESULT:      -7.3     34.812     38.312
REMARK  Name = 
REMARK  14 active torsions:
REMARK  status: ('A' for Active; 'I' for Inactive)
REMARK    1  A    between atoms: O_1  and  C_14
REMARK    2  A    between atoms: O_1  and  C_15
REMARK    3  A    between atoms: O_4  and  C_16
REMARK    4  A    between atoms: O_5  and  C_18
REMARK    5  A    between atoms: O_6  and  C_26
REMARK    6  A    between atoms: O_7  and  C_29
REMARK    7  A    between atoms: O_8  and  C_35
REMARK    8  A    between atoms: O_9  and  C_36
REMARK    9  A    between atoms: O_10  and  C_39
REMARK   10  A    between atoms: O_11  and  C_40
REMARK   11  A    between atoms: O_12  and  C_41
REMARK   12  A    between atoms: O_13  and  C_43
REMARK   13  A    between atoms: C_14  and  C_20
REMARK   14  A    between atoms: C_17  and  C_24
REMARK                            x       y       z     vdW  Elec       q    Type
REMARK                         _______ _______ _______ _____ _____    ______ ____
ROOT
ATOM      1  O   UNL     1      23.113  25.183   1.669  0.00  0.00    +0.000 OA
ATOM      2  C   UNL     1      22.141  24.723   0.721  0.00  0.00    +0.000 C 
ATOM      3  C   UNL     1      21.209  25.886   0.264  0.00  0.00    +0.000 C 
ATOM      4  C   UNL     1      20.551  26.549   1.470  0.00  0.00    +0.000 C 
ATOM      5  C   UNL     1      21.556  26.851   2.541  0.00  0.00    +0.000 A 
ATOM      6  C   UNL     1      22.760  26.143   2.576  0.00  0.00    +0.000 A 
ATOM      7  C   UNL     1      21.316  27.799   3.547  0.00  0.00    +0.000 A 
ATOM      8  C   UNL     1      23.701  26.390   3.577  0.00  0.00    +0.000 A 
ATOM      9  C   UNL     1      22.239  28.039   4.561  0.00  0.00    +0.000 A 
ATOM     10  C   UNL     1      23.432  27.331   4.564  0.00  0.00    +0.000 A 
ENDROOT
BRANCH   2  11
ATOM     11  C   UNL     1      21.318  23.526   1.236  0.00  0.00    +0.000 A 
ATOM     12  C   UNL     1      21.676  22.869   2.434  0.00  0.00    +0.000 A 
ATOM     13  C   UNL     1      20.181  23.063   0.540  0.00  0.00    +0.000 A 
ATOM     14  C   UNL     1      20.927  21.791   2.895  0.00  0.00    +0.000 A 
ATOM     15  C   UNL     1      19.444  21.969   1.003  0.00  0.00    +0.000 A 
ATOM     16  C   UNL     1      19.828  21.340   2.173  0.00  0.00    +0.000 A 
BRANCH  14  17
ATOM     17  O   UNL     1      21.222  21.137   4.058  0.00  0.00    +0.000 OA
ATOM     18  H   UNL     1      20.719  21.539   4.795  0.00  0.00    +0.000 HD
ENDBRANCH  14  17
BRANCH  16  19
ATOM     19  O   UNL     1      19.106  20.274   2.628  0.00  0.00    +0.000 OA
ATOM     20  H   UNL     1      18.582  19.987   1.853  0.00  0.00    +0.000 HD
ENDBRANCH  16  19
ENDBRANCH   2  11
BRANCH   3  21
ATOM     21  O   UNL     1      21.933  26.906  -0.481  0.00  0.00    +0.000 OA
ATOM     22  H   UNL     1      22.621  26.415  -0.975  0.00  0.00    +0.000 HD
ENDBRANCH   3  21
BRANCH   4  23
ATOM     23  O   UNL     1      19.912  27.769   1.058  0.00  0.00    +0.000 OA
ATOM     24  H   UNL     1      19.530  27.554   0.177  0.00  0.00    +0.000 HD
ENDBRANCH   4  23
BRANCH   7  25
ATOM     25  O   UNL     1      20.169  28.548   3.569  0.00  0.00    +0.000 OA
ATOM     26  H   UNL     1      20.435  29.479   3.732  0.00  0.00    +0.000 HD
ENDBRANCH   7  25
BRANCH  10  27
ATOM     27  O   UNL     1      24.375  27.532   5.529  0.00  0.00    +0.000 OA
ATOM     28  H   UNL     1      24.662  28.460   5.489  0.00  0.00    +0.000 HD
ENDBRANCH  10  27
BRANCH   2  29
ATOM     29  O   UNL     1      22.838  24.359  -0.505  0.00  0.00    +0.000 OA
BRANCH  29  31
ATOM     30  O   UNL     1      26.077  22.678  -1.144  0.00  0.00    +0.000 OA
ATOM     31  C   UNL     1      24.268  24.205  -0.424  0.00  0.00    +0.000 C 
ATOM     32  C   UNL     1      24.671  22.948  -1.236  0.00  0.00    +0.000 C 
ATOM     33  C   UNL     1      25.003  25.402  -1.035  0.00  0.00    +0.000 C 
ATOM     34  C   UNL     1      26.422  25.074  -1.409  0.00  0.00    +0.000 A 
ATOM     35  C   UNL     1      26.872  23.751  -1.439  0.00  0.00    +0.000 A 
ATOM     36  C   UNL     1      27.324  26.093  -1.743  0.00  0.00    +0.000 A 
ATOM     37  C   UNL     1      28.202  23.454  -1.749  0.00  0.00    +0.000 A 
ATOM     38  C   UNL     1      28.648  25.808  -2.070  0.00  0.00    +0.000 A 
ATOM     39  C   UNL     1      29.077  24.487  -2.064  0.00  0.00    +0.000 A 
BRANCH  32  40
ATOM     40  C   UNL     1      23.934  21.712  -0.737  0.00  0.00    +0.000 A 
ATOM     41  C   UNL     1      24.156  21.212   0.556  0.00  0.00    +0.000 A 
ATOM     42  C   UNL     1      22.955  21.106  -1.544  0.00  0.00    +0.000 A 
ATOM     43  C   UNL     1      23.379  20.160   1.037  0.00  0.00    +0.000 A 
ATOM     44  C   UNL     1      22.192  20.039  -1.062  0.00  0.00    +0.000 A 
ATOM     45  C   UNL     1      22.397  19.581   0.235  0.00  0.00    +0.000 A 
BRANCH  43  46
ATOM     46  O   UNL     1      23.524  19.732   2.326  0.00  0.00    +0.000 OA
ATOM     47  H   UNL     1      22.767  20.040   2.851  0.00  0.00    +0.000 HD
ENDBRANCH  43  46
BRANCH  45  48
ATOM     48  O   UNL     1      21.620  18.582   0.749  0.00  0.00    +0.000 OA
ATOM     49  H   UNL     1      21.761  17.773   0.230  0.00  0.00    +0.000 HD
ENDBRANCH  45  48
ENDBRANCH  32  40
BRANCH  36  50
ATOM     50  O   UNL     1      26.880  27.386  -1.740  0.00  0.00    +0.000 OA
ATOM     51  H   UNL     1      27.047  27.773  -0.864  0.00  0.00    +0.000 HD
ENDBRANCH  36  50
BRANCH  39  52
ATOM     52  O   UNL     1      30.381  24.242  -2.381  0.00  0.00    +0.000 OA
ATOM     53  H   UNL     1      30.469  23.308  -2.638  0.00  0.00    +0.000 HD
ENDBRANCH  39  52
ENDBRANCH  29  31
ENDBRANCH   2  29
TORSDOF 14
ENDMDL
