MODEL 1
REMARK VINA RESULT:      -7.7      0.000      0.000
REMARK  Name = Progesterone.pdbqt.pdb
REMARK  1 active torsions:
REMARK  status: ('A' for Active; 'I' for Inactive)
REMARK    1  A    between atoms: C_7  and  C_21
REMARK                            x       y       z     vdW  Elec       q    Type
REMARK                         _______ _______ _______ _____ _____    ______ ____
ROOT
ATOM      1  O   UNL     1      29.808 -11.376  19.209  0.00  0.00    +0.000 OA
ATOM      2  C   UNL     1      28.950  -4.392  16.191  0.00  0.00    +0.000 C 
ATOM      3  C   UNL     1      27.733  -4.036  15.177  0.00  0.00    +0.000 C 
ATOM      4  C   UNL     1      28.850  -5.460  17.205  0.00  0.00    +0.000 C 
ATOM      5  C   UNL     1      27.779  -6.514  17.278  0.00  0.00    +0.000 C 
ATOM      6  C   UNL     1      27.652  -7.537  18.428  0.00  0.00    +0.000 C 
ATOM      7  C   UNL     1      28.436  -3.835  13.867  0.00  0.00    +0.000 C 
ATOM      8  C   UNL     1      26.861  -5.210  15.242  0.00  0.00    +0.000 C 
ATOM      9  C   UNL     1      26.843  -6.359  16.219  0.00  0.00    +0.000 C 
ATOM     10  C   UNL     1      30.171  -4.194  15.472  0.00  0.00    +0.000 C 
ATOM     11  C   UNL     1      29.878  -5.667  18.153  0.00  0.00    +0.000 C 
ATOM     12  C   UNL     1      29.848  -3.879  14.036  0.00  0.00    +0.000 C 
ATOM     13  C   UNL     1      29.039  -7.789  19.299  0.00  0.00    +0.000 C 
ATOM     14  C   UNL     1      27.096  -2.725  15.694  0.00  0.00    +0.000 C 
ATOM     15  C   UNL     1      30.007  -6.764  19.167  0.00  0.00    +0.000 C 
ATOM     16  C   UNL     1      27.353  -8.902  17.880  0.00  0.00    +0.000 C 
ATOM     17  C   UNL     1      26.566  -7.067  19.431  0.00  0.00    +0.000 C 
ATOM     18  C   UNL     1      28.004 -10.286  18.100  0.00  0.00    +0.000 C 
ATOM     19  C   UNL     1      29.466  -9.028  19.428  0.00  0.00    +0.000 C 
ATOM     20  C   UNL     1      29.166 -10.373  18.962  0.00  0.00    +0.000 C 
ENDROOT
BRANCH   7  21
ATOM     21  C   UNL     1      27.758  -3.585  12.619  0.00  0.00    +0.000 C 
ATOM     22  O   UNL     1      27.406  -4.441  11.824  0.00  0.00    +0.000 OA
ATOM     23  C   UNL     1      27.307  -2.233  12.172  0.00  0.00    +0.000 C 
ENDBRANCH   7  21
TORSDOF 1
ENDMDL
MODEL 2
REMARK VINA RESULT:      -7.5     15.415     18.095
REMARK  Name = Progesterone.pdbqt.pdb
REMARK  1 active torsions:
REMARK  status: ('A' for Active; 'I' for Inactive)
REMARK    1  A    between atoms: C_7  and  C_21
REMARK                            x       y       z     vdW  Elec       q    Type
REMARK                         _______ _______ _______ _____ _____    ______ ____
ROOT
ATOM      1  O   UNL     1      44.564   2.705  14.756  0.00  0.00    +0.000 OA
ATOM      2  C   UNL     1      45.012  -4.758  13.106  0.00  0.00    +0.000 C 
ATOM      3  C   UNL     1      44.388  -5.377  11.741  0.00  0.00    +0.000 C 
ATOM      4  C   UNL     1      45.461  -3.355  13.208  0.00  0.00    +0.000 C 
ATOM      5  C   UNL     1      45.176  -2.261  12.217  0.00  0.00    +0.000 C 
ATOM      6  C   UNL     1      45.769  -0.838  12.308  0.00  0.00    +0.000 C 
ATOM      7  C   UNL     1      43.233  -6.193  12.240  0.00  0.00    +0.000 C 
ATOM      8  C   UNL     1      44.024  -4.200  10.952  0.00  0.00    +0.000 C 
ATOM      9  C   UNL     1      44.395  -2.749  11.133  0.00  0.00    +0.000 C 
ATOM     10  C   UNL     1      44.330  -5.377  14.202  0.00  0.00    +0.000 C 
ATOM     11  C   UNL     1      46.111  -2.878  14.369  0.00  0.00    +0.000 C 
ATOM     12  C   UNL     1      43.218  -6.237  13.663  0.00  0.00    +0.000 C 
ATOM     13  C   UNL     1      46.293  -0.392  13.815  0.00  0.00    +0.000 C 
ATOM     14  C   UNL     1      45.490  -6.263  11.114  0.00  0.00    +0.000 C 
ATOM     15  C   UNL     1      46.524  -1.475  14.699  0.00  0.00    +0.000 C 
ATOM     16  C   UNL     1      44.714   0.187  12.009  0.00  0.00    +0.000 C 
ATOM     17  C   UNL     1      46.983  -0.712  11.350  0.00  0.00    +0.000 C 
ATOM     18  C   UNL     1      44.237   1.451  12.758  0.00  0.00    +0.000 C 
ATOM     19  C   UNL     1      45.822   0.728  14.322  0.00  0.00    +0.000 C 
ATOM     20  C   UNL     1      44.848   1.770  14.033  0.00  0.00    +0.000 C 
ENDROOT
BRANCH   7  21
ATOM     21  C   UNL     1      42.298  -6.877  11.381  0.00  0.00    +0.000 C 
ATOM     22  O   UNL     1      42.148  -8.086  11.324  0.00  0.00    +0.000 OA
ATOM     23  C   UNL     1      41.310  -6.181  10.503  0.00  0.00    +0.000 C 
ENDBRANCH   7  21
TORSDOF 1
ENDMDL
MODEL 3
REMARK VINA RESULT:      -6.8     17.535     20.185
REMARK  Name = Progesterone.pdbqt.pdb
REMARK  1 active torsions:
REMARK  status: ('A' for Active; 'I' for Inactive)
REMARK    1  A    between atoms: C_7  and  C_21
REMARK                            x       y       z     vdW  Elec       q    Type
REMARK                         _______ _______ _______ _____ _____    ______ ____
ROOT
ATOM      1  O   UNL     1      52.176  -0.722  11.338  0.00  0.00    +0.000 OA
ATOM      2  C   UNL     1      45.446  -4.327  10.769  0.00  0.00    +0.000 C 
ATOM      3  C   UNL     1      44.098  -3.750  11.468  0.00  0.00    +0.000 C 
ATOM      4  C   UNL     1      46.562  -3.452  10.359  0.00  0.00    +0.000 C 
ATOM      5  C   UNL     1      46.747  -2.012  10.749  0.00  0.00    +0.000 C 
ATOM      6  C   UNL     1      47.870  -1.105  10.197  0.00  0.00    +0.000 C 
ATOM      7  C   UNL     1      43.834  -4.747  12.558  0.00  0.00    +0.000 C 
ATOM      8  C   UNL     1      44.480  -2.414  11.926  0.00  0.00    +0.000 C 
ATOM      9  C   UNL     1      45.687  -1.574  11.589  0.00  0.00    +0.000 C 
ATOM     10  C   UNL     1      45.710  -5.607  11.351  0.00  0.00    +0.000 C 
ATOM     11  C   UNL     1      47.669  -3.965   9.644  0.00  0.00    +0.000 C 
ATOM     12  C   UNL     1      44.732  -5.847  12.470  0.00  0.00    +0.000 C 
ATOM     13  C   UNL     1      49.181  -1.909   9.581  0.00  0.00    +0.000 C 
ATOM     14  C   UNL     1      42.994  -3.775  10.387  0.00  0.00    +0.000 C 
ATOM     15  C   UNL     1      48.935  -3.265   9.254  0.00  0.00    +0.000 C 
ATOM     16  C   UNL     1      48.472  -0.289  11.303  0.00  0.00    +0.000 C 
ATOM     17  C   UNL     1      47.310  -0.211   9.059  0.00  0.00    +0.000 C 
ATOM     18  C   UNL     1      49.928  -0.062  11.766  0.00  0.00    +0.000 C 
ATOM     19  C   UNL     1      50.370  -1.594  10.051  0.00  0.00    +0.000 C 
ATOM     20  C   UNL     1      50.990  -0.767  11.076  0.00  0.00    +0.000 C 
ENDROOT
BRANCH   7  21
ATOM     21  C   UNL     1      42.776  -4.617  13.529  0.00  0.00    +0.000 C 
ATOM     22  O   UNL     1      41.656  -5.086  13.417  0.00  0.00    +0.000 OA
ATOM     23  C   UNL     1      42.943  -3.963  14.862  0.00  0.00    +0.000 C 
ENDBRANCH   7  21
TORSDOF 1
ENDMDL
MODEL 4
REMARK VINA RESULT:      -6.8     20.927     22.846
REMARK  Name = Progesterone.pdbqt.pdb
REMARK  1 active torsions:
REMARK  status: ('A' for Active; 'I' for Inactive)
REMARK    1  A    between atoms: C_7  and  C_21
REMARK                            x       y       z     vdW  Elec       q    Type
REMARK                         _______ _______ _______ _____ _____    ______ ____
ROOT
ATOM      1  O   UNL     1      15.796   8.715  34.648  0.00  0.00    +0.000 OA
ATOM      2  C   UNL     1      13.736   5.808  27.872  0.00  0.00    +0.000 C 
ATOM      3  C   UNL     1      14.185   4.320  27.400  0.00  0.00    +0.000 C 
ATOM      4  C   UNL     1      13.598   6.181  29.293  0.00  0.00    +0.000 C 
ATOM      5  C   UNL     1      14.088   5.383  30.469  0.00  0.00    +0.000 C 
ATOM      6  C   UNL     1      13.814   5.758  31.942  0.00  0.00    +0.000 C 
ATOM      7  C   UNL     1      15.150   4.599  26.286  0.00  0.00    +0.000 C 
ATOM      8  C   UNL     1      14.775   3.731  28.602  0.00  0.00    +0.000 C 
ATOM      9  C   UNL     1      14.725   4.186  30.040  0.00  0.00    +0.000 C 
ATOM     10  C   UNL     1      14.293   6.735  26.935  0.00  0.00    +0.000 C 
ATOM     11  C   UNL     1      13.089   7.445  29.672  0.00  0.00    +0.000 C 
ATOM     12  C   UNL     1      15.185   5.989  25.979  0.00  0.00    +0.000 C 
ATOM     13  C   UNL     1      13.428   7.349  32.201  0.00  0.00    +0.000 C 
ATOM     14  C   UNL     1      12.907   3.614  26.891  0.00  0.00    +0.000 C 
ATOM     15  C   UNL     1      12.991   8.040  31.044  0.00  0.00    +0.000 C 
ATOM     16  C   UNL     1      15.056   5.581  32.765  0.00  0.00    +0.000 C 
ATOM     17  C   UNL     1      12.634   4.911  32.489  0.00  0.00    +0.000 C 
ATOM     18  C   UNL     1      15.807   6.512  33.745  0.00  0.00    +0.000 C 
ATOM     19  C   UNL     1      14.137   8.016  33.087  0.00  0.00    +0.000 C 
ATOM     20  C   UNL     1      15.304   7.857  33.942  0.00  0.00    +0.000 C 
ENDROOT
BRANCH   7  21
ATOM     21  C   UNL     1      15.900   3.579  25.596  0.00  0.00    +0.000 C 
ATOM     22  O   UNL     1      15.549   3.021  24.569  0.00  0.00    +0.000 OA
ATOM     23  C   UNL     1      17.267   3.133  25.999  0.00  0.00    +0.000 C 
ENDBRANCH   7  21
TORSDOF 1
ENDMDL
MODEL 5
REMARK VINA RESULT:      -6.4     16.518     18.899
REMARK  Name = Progesterone.pdbqt.pdb
REMARK  1 active torsions:
REMARK  status: ('A' for Active; 'I' for Inactive)
REMARK    1  A    between atoms: C_7  and  C_21
REMARK                            x       y       z     vdW  Elec       q    Type
REMARK                         _______ _______ _______ _____ _____    ______ ____
ROOT
ATOM      1  O   UNL     1      48.732   0.621  14.606  0.00  0.00    +0.000 OA
ATOM      2  C   UNL     1      44.922  -5.664  12.462  0.00  0.00    +0.000 C 
ATOM      3  C   UNL     1      44.221  -5.790  11.002  0.00  0.00    +0.000 C 
ATOM      4  C   UNL     1      46.090  -4.796  12.707  0.00  0.00    +0.000 C 
ATOM      5  C   UNL     1      46.619  -3.740  11.777  0.00  0.00    +0.000 C 
ATOM      6  C   UNL     1      47.917  -2.940  12.028  0.00  0.00    +0.000 C 
ATOM      7  C   UNL     1      42.757  -5.771  11.331  0.00  0.00    +0.000 C 
ATOM      8  C   UNL     1      44.711  -4.621  10.272  0.00  0.00    +0.000 C 
ATOM      9  C   UNL     1      45.836  -3.669  10.593  0.00  0.00    +0.000 C 
ATOM     10  C   UNL     1      43.882  -5.766  13.441  0.00  0.00    +0.000 C 
ATOM     11  C   UNL     1      46.754  -4.799  13.956  0.00  0.00    +0.000 C 
ATOM     12  C   UNL     1      42.551  -5.803  12.739  0.00  0.00    +0.000 C 
ATOM     13  C   UNL     1      48.420  -2.896  13.606  0.00  0.00    +0.000 C 
ATOM     14  C   UNL     1      44.661  -7.152  10.417  0.00  0.00    +0.000 C 
ATOM     15  C   UNL     1      47.867  -3.911  14.425  0.00  0.00    +0.000 C 
ATOM     16  C   UNL     1      47.705  -1.490  11.708  0.00  0.00    +0.000 C 
ATOM     17  C   UNL     1      49.078  -3.551  11.199  0.00  0.00    +0.000 C 
ATOM     18  C   UNL     1      47.973  -0.190  12.500  0.00  0.00    +0.000 C 
ATOM     19  C   UNL     1      48.637  -1.716  14.148  0.00  0.00    +0.000 C 
ATOM     20  C   UNL     1      48.500  -0.299  13.846  0.00  0.00    +0.000 C 
ENDROOT
BRANCH   7  21
ATOM     21  C   UNL     1      41.709  -5.768  10.340  0.00  0.00    +0.000 C 
ATOM     22  O   UNL     1      40.802  -6.580  10.273  0.00  0.00    +0.000 OA
ATOM     23  C   UNL     1      41.539  -4.700   9.310  0.00  0.00    +0.000 C 
ENDBRANCH   7  21
TORSDOF 1
ENDMDL
MODEL 6
REMARK VINA RESULT:      -6.1     16.738     18.506
REMARK  Name = Progesterone.pdbqt.pdb
REMARK  1 active torsions:
REMARK  status: ('A' for Active; 'I' for Inactive)
REMARK    1  A    between atoms: C_7  and  C_21
REMARK                            x       y       z     vdW  Elec       q    Type
REMARK                         _______ _______ _______ _____ _____    ______ ____
ROOT
ATOM      1  O   UNL     1      40.193  -3.089  23.732  0.00  0.00    +0.000 OA
ATOM      2  C   UNL     1      44.791   2.615  21.509  0.00  0.00    +0.000 C 
ATOM      3  C   UNL     1      44.829   4.042  22.284  0.00  0.00    +0.000 C 
ATOM      4  C   UNL     1      44.406   1.359  22.181  0.00  0.00    +0.000 C 
ATOM      5  C   UNL     1      43.757   1.241  23.532  0.00  0.00    +0.000 C 
ATOM      6  C   UNL     1      43.482  -0.103  24.244  0.00  0.00    +0.000 C 
ATOM      7  C   UNL     1      44.216   4.981  21.288  0.00  0.00    +0.000 C 
ATOM      8  C   UNL     1      44.037   3.811  23.492  0.00  0.00    +0.000 C 
ATOM      9  C   UNL     1      43.548   2.524  24.109  0.00  0.00    +0.000 C 
ATOM     10  C   UNL     1      44.366   2.874  20.167  0.00  0.00    +0.000 C 
ATOM     11  C   UNL     1      44.497   0.115  21.515  0.00  0.00    +0.000 C 
ATOM     12  C   UNL     1      43.987   4.326  20.045  0.00  0.00    +0.000 C 
ATOM     13  C   UNL     1      43.428  -1.425  23.248  0.00  0.00    +0.000 C 
ATOM     14  C   UNL     1      46.320   4.367  22.538  0.00  0.00    +0.000 C 
ATOM     15  C   UNL     1      44.044  -1.234  21.986  0.00  0.00    +0.000 C 
ATOM     16  C   UNL     1      42.113  -0.096  24.859  0.00  0.00    +0.000 C 
ATOM     17  C   UNL     1      44.588  -0.374  25.298  0.00  0.00    +0.000 C 
ATOM     18  C   UNL     1      40.921  -1.076  24.776  0.00  0.00    +0.000 C 
ATOM     19  C   UNL     1      42.359  -2.191  23.302  0.00  0.00    +0.000 C 
ATOM     20  C   UNL     1      41.047  -2.245  23.929  0.00  0.00    +0.000 C 
ENDROOT
BRANCH   7  21
ATOM     21  C   UNL     1      43.945   6.373  21.553  0.00  0.00    +0.000 C 
ATOM     22  O   UNL     1      44.667   7.303  21.237  0.00  0.00    +0.000 OA
ATOM     23  C   UNL     1      42.682   6.872  22.174  0.00  0.00    +0.000 C 
ENDBRANCH   7  21
TORSDOF 1
ENDMDL
MODEL 7
REMARK VINA RESULT:      -5.8      5.318      6.702
REMARK  Name = Progesterone.pdbqt.pdb
REMARK  1 active torsions:
REMARK  status: ('A' for Active; 'I' for Inactive)
REMARK    1  A    between atoms: C_7  and  C_21
REMARK                            x       y       z     vdW  Elec       q    Type
REMARK                         _______ _______ _______ _____ _____    ______ ____
ROOT
ATOM      1  O   UNL     1      18.594  -6.234  20.064  0.00  0.00    +0.000 OA
ATOM      2  C   UNL     1      24.472  -3.947  15.724  0.00  0.00    +0.000 C 
ATOM      3  C   UNL     1      24.767  -2.377  15.432  0.00  0.00    +0.000 C 
ATOM      4  C   UNL     1      23.775  -4.409  16.941  0.00  0.00    +0.000 C 
ATOM      5  C   UNL     1      23.023  -3.543  17.913  0.00  0.00    +0.000 C 
ATOM      6  C   UNL     1      22.411  -4.058  19.234  0.00  0.00    +0.000 C 
ATOM      7  C   UNL     1      24.446  -2.242  13.973  0.00  0.00    +0.000 C 
ATOM      8  C   UNL     1      23.859  -1.671  16.337  0.00  0.00    +0.000 C 
ATOM      9  C   UNL     1      23.059  -2.179  17.510  0.00  0.00    +0.000 C 
ATOM     10  C   UNL     1      24.210  -4.570  14.463  0.00  0.00    +0.000 C 
ATOM     11  C   UNL     1      23.640  -5.787  17.228  0.00  0.00    +0.000 C 
ATOM     12  C   UNL     1      24.167  -3.512  13.394  0.00  0.00    +0.000 C 
ATOM     13  C   UNL     1      22.140  -5.691  19.292  0.00  0.00    +0.000 C 
ATOM     14  C   UNL     1      26.270  -2.149  15.713  0.00  0.00    +0.000 C 
ATOM     15  C   UNL     1      22.870  -6.440  18.336  0.00  0.00    +0.000 C 
ATOM     16  C   UNL     1      21.037  -3.488  19.430  0.00  0.00    +0.000 C 
ATOM     17  C   UNL     1      23.353  -3.713  20.418  0.00  0.00    +0.000 C 
ATOM     18  C   UNL     1      19.669  -4.133  19.745  0.00  0.00    +0.000 C 
ATOM     19  C   UNL     1      20.928  -6.102  19.601  0.00  0.00    +0.000 C 
ATOM     20  C   UNL     1      19.595  -5.577  19.855  0.00  0.00    +0.000 C 
ENDROOT
BRANCH   7  21
ATOM     21  C   UNL     1      24.467  -0.991  13.255  0.00  0.00    +0.000 C 
ATOM     22  O   UNL     1      23.714  -0.052  13.454  0.00  0.00    +0.000 OA
ATOM     23  C   UNL     1      25.487  -0.639  12.223  0.00  0.00    +0.000 C 
ENDBRANCH   7  21
TORSDOF 1
ENDMDL
MODEL 8
REMARK VINA RESULT:      -5.8      3.037      7.347
REMARK  Name = Progesterone.pdbqt.pdb
REMARK  1 active torsions:
REMARK  status: ('A' for Active; 'I' for Inactive)
REMARK    1  A    between atoms: C_7  and  C_21
REMARK                            x       y       z     vdW  Elec       q    Type
REMARK                         _______ _______ _______ _____ _____    ______ ____
ROOT
ATOM      1  O   UNL     1      27.824  -2.973  14.672  0.00  0.00    +0.000 OA
ATOM      2  C   UNL     1      28.006  -6.900  21.241  0.00  0.00    +0.000 C 
ATOM      3  C   UNL     1      26.659  -7.494  21.927  0.00  0.00    +0.000 C 
ATOM      4  C   UNL     1      28.120  -6.670  19.788  0.00  0.00    +0.000 C 
ATOM      5  C   UNL     1      26.987  -6.682  18.799  0.00  0.00    +0.000 C 
ATOM      6  C   UNL     1      27.175  -6.553  17.271  0.00  0.00    +0.000 C 
ATOM      7  C   UNL     1      26.510  -6.651  23.158  0.00  0.00    +0.000 C 
ATOM      8  C   UNL     1      25.627  -7.298  20.909  0.00  0.00    +0.000 C 
ATOM      9  C   UNL     1      25.750  -6.947  19.447  0.00  0.00    +0.000 C 
ATOM     10  C   UNL     1      28.575  -5.967  22.165  0.00  0.00    +0.000 C 
ATOM     11  C   UNL     1      29.343  -6.267  19.205  0.00  0.00    +0.000 C 
ATOM     12  C   UNL     1      27.636  -5.797  23.329  0.00  0.00    +0.000 C 
ATOM     13  C   UNL     1      28.603  -5.863  16.794  0.00  0.00    +0.000 C 
ATOM     14  C   UNL     1      26.955  -8.972  22.275  0.00  0.00    +0.000 C 
ATOM     15  C   UNL     1      29.617  -5.873  17.784  0.00  0.00    +0.000 C 
ATOM     16  C   UNL     1      26.149  -5.620  16.696  0.00  0.00    +0.000 C 
ATOM     17  C   UNL     1      27.109  -7.958  16.614  0.00  0.00    +0.000 C 
ATOM     18  C   UNL     1      26.255  -4.384  15.776  0.00  0.00    +0.000 C 
ATOM     19  C   UNL     1      28.544  -4.828  15.984  0.00  0.00    +0.000 C 
ATOM     20  C   UNL     1      27.572  -3.940  15.363  0.00  0.00    +0.000 C 
ENDROOT
BRANCH   7  21
ATOM     21  C   UNL     1      25.392  -6.739  24.065  0.00  0.00    +0.000 C 
ATOM     22  O   UNL     1      25.345  -7.445  25.059  0.00  0.00    +0.000 OA
ATOM     23  C   UNL     1      24.164  -5.896  23.960  0.00  0.00    +0.000 C 
ENDBRANCH   7  21
TORSDOF 1
ENDMDL
MODEL 9
REMARK VINA RESULT:      -5.6     12.922     15.662
REMARK  Name = Progesterone.pdbqt.pdb
REMARK  1 active torsions:
REMARK  status: ('A' for Active; 'I' for Inactive)
REMARK    1  A    between atoms: C_7  and  C_21
REMARK                            x       y       z     vdW  Elec       q    Type
REMARK                         _______ _______ _______ _____ _____    ______ ____
ROOT
ATOM      1  O   UNL     1      27.421  -3.586  25.050  0.00  0.00    +0.000 OA
ATOM      2  C   UNL     1      25.098  -1.105  31.911  0.00  0.00    +0.000 C 
ATOM      3  C   UNL     1      23.795  -1.727  32.655  0.00  0.00    +0.000 C 
ATOM      4  C   UNL     1      25.899  -1.877  30.940  0.00  0.00    +0.000 C 
ATOM      5  C   UNL     1      25.507  -3.184  30.309  0.00  0.00    +0.000 C 
ATOM      6  C   UNL     1      26.433  -4.011  29.390  0.00  0.00    +0.000 C 
ATOM      7  C   UNL     1      22.811  -0.597  32.606  0.00  0.00    +0.000 C 
ATOM      8  C   UNL     1      23.446  -2.893  31.844  0.00  0.00    +0.000 C 
ATOM      9  C   UNL     1      24.229  -3.606  30.769  0.00  0.00    +0.000 C 
ATOM     10  C   UNL     1      24.834   0.283  31.684  0.00  0.00    +0.000 C 
ATOM     11  C   UNL     1      27.096  -1.353  30.400  0.00  0.00    +0.000 C 
ATOM     12  C   UNL     1      23.415   0.584  32.088  0.00  0.00    +0.000 C 
ATOM     13  C   UNL     1      27.667  -3.159  28.686  0.00  0.00    +0.000 C 
ATOM     14  C   UNL     1      24.227  -2.049  34.105  0.00  0.00    +0.000 C 
ATOM     15  C   UNL     1      27.968  -1.930  29.325  0.00  0.00    +0.000 C 
ATOM     16  C   UNL     1      25.668  -4.524  28.206  0.00  0.00    +0.000 C 
ATOM     17  C   UNL     1      27.083  -5.164  30.201  0.00  0.00    +0.000 C 
ATOM     18  C   UNL     1      25.925  -4.462  26.683  0.00  0.00    +0.000 C 
ATOM     19  C   UNL     1      27.784  -3.217  27.377  0.00  0.00    +0.000 C 
ATOM     20  C   UNL     1      27.098  -3.752  26.210  0.00  0.00    +0.000 C 
ENDROOT
BRANCH   7  21
ATOM     21  C   UNL     1      21.448  -0.694  33.069  0.00  0.00    +0.000 C 
ATOM     22  O   UNL     1      21.078  -0.495  34.213  0.00  0.00    +0.000 OA
ATOM     23  C   UNL     1      20.281  -0.963  32.176  0.00  0.00    +0.000 C 
ENDBRANCH   7  21
TORSDOF 1
ENDMDL
