MODEL 1
REMARK VINA RESULT:      -7.9      0.000      0.000
REMARK  Name = Quercetin.pdbqt.pdb
REMARK  6 active torsions:
REMARK  status: ('A' for Active; 'I' for Inactive)
REMARK    1  A    between atoms: C_5  and  C_12
REMARK    2  A    between atoms: C_6  and  O_22
REMARK    3  A    between atoms: C_8  and  O_24
REMARK    4  A    between atoms: C_10  and  O_26
REMARK    5  A    between atoms: C_15  and  O_18
REMARK    6  A    between atoms: C_17  and  O_20
REMARK                            x       y       z     vdW  Elec       q    Type
REMARK                         _______ _______ _______ _____ _____    ______ ____
ROOT
ATOM      1  O   UNL     1      45.076  -5.248  10.714  0.00  0.00    +0.000 OA
ATOM      2  O   UNL     1      42.382  -7.105   8.302  0.00  0.00    +0.000 OA
ATOM      3  C   UNL     1      44.599  -6.885   8.989  0.00  0.00    +0.000 A 
ATOM      4  C   UNL     1      45.478  -6.216   9.833  0.00  0.00    +0.000 A 
ATOM      5  C   UNL     1      43.729  -4.925  10.786  0.00  0.00    +0.000 A 
ATOM      6  C   UNL     1      42.767  -5.483  10.020  0.00  0.00    +0.000 A 
ATOM      7  C   UNL     1      43.176  -6.534   9.046  0.00  0.00    +0.000 A 
ATOM      8  C   UNL     1      45.080  -7.864   8.111  0.00  0.00    +0.000 A 
ATOM      9  C   UNL     1      46.838  -6.518   9.808  0.00  0.00    +0.000 A 
ATOM     10  C   UNL     1      47.306  -7.493   8.933  0.00  0.00    +0.000 A 
ATOM     11  C   UNL     1      46.438  -8.169   8.083  0.00  0.00    +0.000 A 
ENDROOT
BRANCH   5  12
ATOM     12  C   UNL     1      43.464  -3.889  11.794  0.00  0.00    +0.000 A 
ATOM     13  C   UNL     1      43.242  -4.227  13.133  0.00  0.00    +0.000 A 
ATOM     14  C   UNL     1      43.496  -2.538  11.424  0.00  0.00    +0.000 A 
ATOM     15  C   UNL     1      43.031  -3.225  14.072  0.00  0.00    +0.000 A 
ATOM     16  C   UNL     1      43.301  -1.534  12.372  0.00  0.00    +0.000 A 
ATOM     17  C   UNL     1      43.086  -1.887  13.697  0.00  0.00    +0.000 A 
BRANCH  15  18
ATOM     18  O   UNL     1      42.734  -3.579  15.355  0.00  0.00    +0.000 OA
ATOM     19  H   UNL     1      41.765  -3.528  15.449  0.00  0.00    +0.000 HD
ENDBRANCH  15  18
BRANCH  17  20
ATOM     20  O   UNL     1      42.952  -0.902  14.632  0.00  0.00    +0.000 OA
ATOM     21  H   UNL     1      43.708  -0.298  14.510  0.00  0.00    +0.000 HD
ENDBRANCH  17  20
ENDBRANCH   5  12
BRANCH   6  22
ATOM     22  O   UNL     1      41.427  -5.147  10.050  0.00  0.00    +0.000 OA
ATOM     23  H   UNL     1      40.910  -5.862  10.452  0.00  0.00    +0.000 HD
ENDBRANCH   6  22
BRANCH   8  24
ATOM     24  O   UNL     1      44.273  -8.560   7.252  0.00  0.00    +0.000 OA
ATOM     25  H   UNL     1      44.794  -9.309   6.878  0.00  0.00    +0.000 HD
ENDBRANCH   8  24
BRANCH  10  26
ATOM     26  O   UNL     1      48.642  -7.771   8.926  0.00  0.00    +0.000 OA
ATOM     27  H   UNL     1      49.066  -7.236   9.621  0.00  0.00    +0.000 HD
ENDBRANCH  10  26
TORSDOF 6
ENDMDL
MODEL 2
REMARK VINA RESULT:      -7.6      3.106      6.723
REMARK  Name = Quercetin.pdbqt.pdb
REMARK  6 active torsions:
REMARK  status: ('A' for Active; 'I' for Inactive)
REMARK    1  A    between atoms: C_5  and  C_12
REMARK    2  A    between atoms: C_6  and  O_22
REMARK    3  A    between atoms: C_8  and  O_24
REMARK    4  A    between atoms: C_10  and  O_26
REMARK    5  A    between atoms: C_15  and  O_18
REMARK    6  A    between atoms: C_17  and  O_20
REMARK                            x       y       z     vdW  Elec       q    Type
REMARK                         _______ _______ _______ _____ _____    ______ ____
ROOT
ATOM      1  O   UNL     1      43.312  -2.519  12.242  0.00  0.00    +0.000 OA
ATOM      2  O   UNL     1      46.722  -2.025  10.085  0.00  0.00    +0.000 OA
ATOM      3  C   UNL     1      45.102  -1.078  11.468  0.00  0.00    +0.000 A 
ATOM      4  C   UNL     1      43.933  -1.301  12.187  0.00  0.00    +0.000 A 
ATOM      5  C   UNL     1      43.878  -3.591  11.567  0.00  0.00    +0.000 A 
ATOM      6  C   UNL     1      45.001  -3.518  10.821  0.00  0.00    +0.000 A 
ATOM      7  C   UNL     1      45.694  -2.201  10.735  0.00  0.00    +0.000 A 
ATOM      8  C   UNL     1      45.682   0.197  11.455  0.00  0.00    +0.000 A 
ATOM      9  C   UNL     1      43.337  -0.259  12.895  0.00  0.00    +0.000 A 
ATOM     10  C   UNL     1      43.922   1.004  12.876  0.00  0.00    +0.000 A 
ATOM     11  C   UNL     1      45.091   1.241  12.161  0.00  0.00    +0.000 A 
ENDROOT
BRANCH   5  12
ATOM     12  C   UNL     1      43.103  -4.827  11.748  0.00  0.00    +0.000 A 
ATOM     13  C   UNL     1      42.168  -5.237  10.792  0.00  0.00    +0.000 A 
ATOM     14  C   UNL     1      43.346  -5.641  12.862  0.00  0.00    +0.000 A 
ATOM     15  C   UNL     1      41.477  -6.428  10.970  0.00  0.00    +0.000 A 
ATOM     16  C   UNL     1      42.664  -6.845  13.029  0.00  0.00    +0.000 A 
ATOM     17  C   UNL     1      41.742  -7.239  12.068  0.00  0.00    +0.000 A 
BRANCH  15  18
ATOM     18  O   UNL     1      40.511  -6.768  10.068  0.00  0.00    +0.000 OA
ATOM     19  H   UNL     1      40.900  -7.433   9.470  0.00  0.00    +0.000 HD
ENDBRANCH  15  18
BRANCH  17  20
ATOM     20  O   UNL     1      41.117  -8.443  12.205  0.00  0.00    +0.000 OA
ATOM     21  H   UNL     1      40.649  -8.418  13.060  0.00  0.00    +0.000 HD
ENDBRANCH  17  20
ENDBRANCH   5  12
BRANCH   6  22
ATOM     22  O   UNL     1      45.558  -4.563  10.109  0.00  0.00    +0.000 OA
ATOM     23  H   UNL     1      44.874  -5.210   9.873  0.00  0.00    +0.000 HD
ENDBRANCH   6  22
BRANCH   8  24
ATOM     24  O   UNL     1      46.830   0.489  10.769  0.00  0.00    +0.000 OA
ATOM     25  H   UNL     1      47.346   1.145  11.294  0.00  0.00    +0.000 HD
ENDBRANCH   8  24
BRANCH  10  26
ATOM     26  O   UNL     1      43.320   2.007  13.576  0.00  0.00    +0.000 OA
ATOM     27  H   UNL     1      42.616   2.386  13.019  0.00  0.00    +0.000 HD
ENDBRANCH  10  26
TORSDOF 6
ENDMDL
MODEL 3
REMARK VINA RESULT:      -7.3      3.078      5.293
REMARK  Name = Quercetin.pdbqt.pdb
REMARK  6 active torsions:
REMARK  status: ('A' for Active; 'I' for Inactive)
REMARK    1  A    between atoms: C_5  and  C_12
REMARK    2  A    between atoms: C_6  and  O_22
REMARK    3  A    between atoms: C_8  and  O_24
REMARK    4  A    between atoms: C_10  and  O_26
REMARK    5  A    between atoms: C_15  and  O_18
REMARK    6  A    between atoms: C_17  and  O_20
REMARK                            x       y       z     vdW  Elec       q    Type
REMARK                         _______ _______ _______ _____ _____    ______ ____
ROOT
ATOM      1  O   UNL     1      45.529  -4.374  10.572  0.00  0.00    +0.000 OA
ATOM      2  O   UNL     1      45.011  -0.425  11.381  0.00  0.00    +0.000 OA
ATOM      3  C   UNL     1      46.351  -2.096  10.461  0.00  0.00    +0.000 A 
ATOM      4  C   UNL     1      46.479  -3.458  10.212  0.00  0.00    +0.000 A 
ATOM      5  C   UNL     1      44.374  -3.932  11.200  0.00  0.00    +0.000 A 
ATOM      6  C   UNL     1      44.121  -2.643  11.515  0.00  0.00    +0.000 A 
ATOM      7  C   UNL     1      45.142  -1.623  11.142  0.00  0.00    +0.000 A 
ATOM      8  C   UNL     1      47.364  -1.214  10.065  0.00  0.00    +0.000 A 
ATOM      9  C   UNL     1      47.614  -3.948   9.570  0.00  0.00    +0.000 A 
ATOM     10  C   UNL     1      48.615  -3.063   9.179  0.00  0.00    +0.000 A 
ATOM     11  C   UNL     1      48.500  -1.699   9.423  0.00  0.00    +0.000 A 
ENDROOT
BRANCH   5  12
ATOM     12  C   UNL     1      43.450  -5.036  11.497  0.00  0.00    +0.000 A 
ATOM     13  C   UNL     1      42.402  -5.350  10.627  0.00  0.00    +0.000 A 
ATOM     14  C   UNL     1      43.657  -5.825  12.636  0.00  0.00    +0.000 A 
ATOM     15  C   UNL     1      41.566  -6.423  10.913  0.00  0.00    +0.000 A 
ATOM     16  C   UNL     1      42.827  -6.911  12.911  0.00  0.00    +0.000 A 
ATOM     17  C   UNL     1      41.794  -7.212  12.035  0.00  0.00    +0.000 A 
BRANCH  15  18
ATOM     18  O   UNL     1      40.501  -6.662  10.095  0.00  0.00    +0.000 OA
ATOM     19  H   UNL     1      40.770  -6.406   9.193  0.00  0.00    +0.000 HD
ENDBRANCH  15  18
BRANCH  17  20
ATOM     20  O   UNL     1      41.018  -8.308  12.276  0.00  0.00    +0.000 OA
ATOM     21  H   UNL     1      40.106  -8.061  12.036  0.00  0.00    +0.000 HD
ENDBRANCH  17  20
ENDBRANCH   5  12
BRANCH   6  22
ATOM     22  O   UNL     1      42.995  -2.187  12.175  0.00  0.00    +0.000 OA
ATOM     23  H   UNL     1      42.537  -2.926  12.605  0.00  0.00    +0.000 HD
ENDBRANCH   6  22
BRANCH   8  24
ATOM     24  O   UNL     1      47.306   0.137  10.279  0.00  0.00    +0.000 OA
ATOM     25  H   UNL     1      47.256   0.294  11.251  0.00  0.00    +0.000 HD
ENDBRANCH   8  24
BRANCH  10  26
ATOM     26  O   UNL     1      49.717  -3.567   8.552  0.00  0.00    +0.000 OA
ATOM     27  H   UNL     1      50.459  -2.955   8.704  0.00  0.00    +0.000 HD
ENDBRANCH  10  26
TORSDOF 6
ENDMDL
MODEL 4
REMARK VINA RESULT:      -7.2     33.704     35.873
REMARK  Name = Quercetin.pdbqt.pdb
REMARK  6 active torsions:
REMARK  status: ('A' for Active; 'I' for Inactive)
REMARK    1  A    between atoms: C_5  and  C_12
REMARK    2  A    between atoms: C_6  and  O_22
REMARK    3  A    between atoms: C_8  and  O_24
REMARK    4  A    between atoms: C_10  and  O_26
REMARK    5  A    between atoms: C_15  and  O_18
REMARK    6  A    between atoms: C_17  and  O_20
REMARK                            x       y       z     vdW  Elec       q    Type
REMARK                         _______ _______ _______ _____ _____    ______ ____
ROOT
ATOM      1  O   UNL     1      20.306  20.645   2.446  0.00  0.00    +0.000 OA
ATOM      2  O   UNL     1      20.403  17.680   5.226  0.00  0.00    +0.000 OA
ATOM      3  C   UNL     1      19.129  19.190   3.989  0.00  0.00    +0.000 A 
ATOM      4  C   UNL     1      19.153  20.203   3.036  0.00  0.00    +0.000 A 
ATOM      5  C   UNL     1      21.509  20.049   2.796  0.00  0.00    +0.000 A 
ATOM      6  C   UNL     1      21.637  19.066   3.713  0.00  0.00    +0.000 A 
ATOM      7  C   UNL     1      20.399  18.570   4.379  0.00  0.00    +0.000 A 
ATOM      8  C   UNL     1      17.911  18.789   4.553  0.00  0.00    +0.000 A 
ATOM      9  C   UNL     1      17.968  20.820   2.641  0.00  0.00    +0.000 A 
ATOM     10  C   UNL     1      16.763  20.413   3.206  0.00  0.00    +0.000 A 
ATOM     11  C   UNL     1      16.725  19.402   4.161  0.00  0.00    +0.000 A 
ENDROOT
BRANCH   5  12
ATOM     12  C   UNL     1      22.643  20.622   2.056  0.00  0.00    +0.000 A 
ATOM     13  C   UNL     1      22.956  20.182   0.766  0.00  0.00    +0.000 A 
ATOM     14  C   UNL     1      23.385  21.665   2.624  0.00  0.00    +0.000 A 
ATOM     15  C   UNL     1      24.010  20.766   0.075  0.00  0.00    +0.000 A 
ATOM     16  C   UNL     1      24.431  22.261   1.922  0.00  0.00    +0.000 A 
ATOM     17  C   UNL     1      24.726  21.816   0.641  0.00  0.00    +0.000 A 
BRANCH  15  18
ATOM     18  O   UNL     1      24.350  20.267  -1.148  0.00  0.00    +0.000 OA
ATOM     19  H   UNL     1      24.615  21.025  -1.702  0.00  0.00    +0.000 HD
ENDBRANCH  15  18
BRANCH  17  20
ATOM     20  O   UNL     1      25.713  22.438  -0.067  0.00  0.00    +0.000 OA
ATOM     21  H   UNL     1      25.959  23.234   0.441  0.00  0.00    +0.000 HD
ENDBRANCH  17  20
ENDBRANCH   5  12
BRANCH   6  22
ATOM     22  O   UNL     1      22.830  18.488   4.104  0.00  0.00    +0.000 OA
ATOM     23  H   UNL     1      23.560  18.823   3.559  0.00  0.00    +0.000 HD
ENDBRANCH   6  22
BRANCH   8  24
ATOM     24  O   UNL     1      17.813  17.802   5.496  0.00  0.00    +0.000 OA
ATOM     25  H   UNL     1      18.612  17.229   5.428  0.00  0.00    +0.000 HD
ENDBRANCH   8  24
BRANCH  10  26
ATOM     26  O   UNL     1      15.616  21.032   2.803  0.00  0.00    +0.000 OA
ATOM     27  H   UNL     1      15.190  21.422   3.588  0.00  0.00    +0.000 HD
ENDBRANCH  10  26
TORSDOF 6
ENDMDL
MODEL 5
REMARK VINA RESULT:      -7.2     34.602     35.906
REMARK  Name = Quercetin.pdbqt.pdb
REMARK  6 active torsions:
REMARK  status: ('A' for Active; 'I' for Inactive)
REMARK    1  A    between atoms: C_5  and  C_12
REMARK    2  A    between atoms: C_6  and  O_22
REMARK    3  A    between atoms: C_8  and  O_24
REMARK    4  A    between atoms: C_10  and  O_26
REMARK    5  A    between atoms: C_15  and  O_18
REMARK    6  A    between atoms: C_17  and  O_20
REMARK                            x       y       z     vdW  Elec       q    Type
REMARK                         _______ _______ _______ _____ _____    ______ ____
ROOT
ATOM      1  O   UNL     1      21.808  22.269   3.768  0.00  0.00    +0.000 OA
ATOM      2  O   UNL     1      24.439  20.824   1.027  0.00  0.00    +0.000 OA
ATOM      3  C   UNL     1      23.861  22.532   2.505  0.00  0.00    +0.000 A 
ATOM      4  C   UNL     1      22.928  22.981   3.432  0.00  0.00    +0.000 A 
ATOM      5  C   UNL     1      21.595  21.034   3.173  0.00  0.00    +0.000 A 
ATOM      6  C   UNL     1      22.409  20.480   2.249  0.00  0.00    +0.000 A 
ATOM      7  C   UNL     1      23.633  21.237   1.857  0.00  0.00    +0.000 A 
ATOM      8  C   UNL     1      24.985  23.314   2.209  0.00  0.00    +0.000 A 
ATOM      9  C   UNL     1      23.107  24.208   4.068  0.00  0.00    +0.000 A 
ATOM     10  C   UNL     1      24.227  24.977   3.768  0.00  0.00    +0.000 A 
ATOM     11  C   UNL     1      25.169  24.540   2.842  0.00  0.00    +0.000 A 
ENDROOT
BRANCH   5  12
ATOM     12  C   UNL     1      20.365  20.393   3.659  0.00  0.00    +0.000 A 
ATOM     13  C   UNL     1      20.372  19.067   4.103  0.00  0.00    +0.000 A 
ATOM     14  C   UNL     1      19.181  21.136   3.739  0.00  0.00    +0.000 A 
ATOM     15  C   UNL     1      19.203  18.497   4.592  0.00  0.00    +0.000 A 
ATOM     16  C   UNL     1      18.013  20.567   4.246  0.00  0.00    +0.000 A 
ATOM     17  C   UNL     1      18.039  19.251   4.686  0.00  0.00    +0.000 A 
BRANCH  15  18
ATOM     18  O   UNL     1      19.212  17.179   4.942  0.00  0.00    +0.000 OA
ATOM     19  H   UNL     1      18.728  16.695   4.247  0.00  0.00    +0.000 HD
ENDBRANCH  15  18
BRANCH  17  20
ATOM     20  O   UNL     1      16.911  18.714   5.234  0.00  0.00    +0.000 OA
ATOM     21  H   UNL     1      16.550  18.093   4.575  0.00  0.00    +0.000 HD
ENDBRANCH  17  20
ENDBRANCH   5  12
BRANCH   6  22
ATOM     22  O   UNL     1      22.194  19.271   1.616  0.00  0.00    +0.000 OA
ATOM     23  H   UNL     1      21.912  18.601   2.259  0.00  0.00    +0.000 HD
ENDBRANCH   6  22
BRANCH   8  24
ATOM     24  O   UNL     1      25.942  22.937   1.307  0.00  0.00    +0.000 OA
ATOM     25  H   UNL     1      25.597  22.169   0.793  0.00  0.00    +0.000 HD
ENDBRANCH   8  24
BRANCH  10  26
ATOM     26  O   UNL     1      24.381  26.174   4.403  0.00  0.00    +0.000 OA
ATOM     27  H   UNL     1      23.572  26.351   4.917  0.00  0.00    +0.000 HD
ENDBRANCH  10  26
TORSDOF 6
ENDMDL
MODEL 6
REMARK VINA RESULT:      -7.1      1.338      3.068
REMARK  Name = Quercetin.pdbqt.pdb
REMARK  6 active torsions:
REMARK  status: ('A' for Active; 'I' for Inactive)
REMARK    1  A    between atoms: C_5  and  C_12
REMARK    2  A    between atoms: C_6  and  O_22
REMARK    3  A    between atoms: C_8  and  O_24
REMARK    4  A    between atoms: C_10  and  O_26
REMARK    5  A    between atoms: C_15  and  O_18
REMARK    6  A    between atoms: C_17  and  O_20
REMARK                            x       y       z     vdW  Elec       q    Type
REMARK                         _______ _______ _______ _____ _____    ______ ____
ROOT
ATOM      1  O   UNL     1      44.387  -5.759  10.875  0.00  0.00    +0.000 OA
ATOM      2  O   UNL     1      48.382  -6.407  11.260  0.00  0.00    +0.000 OA
ATOM      3  C   UNL     1      46.407  -6.858  10.105  0.00  0.00    +0.000 A 
ATOM      4  C   UNL     1      45.043  -6.604  10.021  0.00  0.00    +0.000 A 
ATOM      5  C   UNL     1      45.112  -5.109  11.863  0.00  0.00    +0.000 A 
ATOM      6  C   UNL     1      46.437  -5.269  12.070  0.00  0.00    +0.000 A 
ATOM      7  C   UNL     1      47.177  -6.190  11.160  0.00  0.00    +0.000 A 
ATOM      8  C   UNL     1      47.013  -7.736   9.198  0.00  0.00    +0.000 A 
ATOM      9  C   UNL     1      44.276  -7.221   9.035  0.00  0.00    +0.000 A 
ATOM     10  C   UNL     1      44.887  -8.091   8.138  0.00  0.00    +0.000 A 
ATOM     11  C   UNL     1      46.251  -8.355   8.211  0.00  0.00    +0.000 A 
ENDROOT
BRANCH   5  12
ATOM     12  C   UNL     1      44.266  -4.223  12.675  0.00  0.00    +0.000 A 
ATOM     13  C   UNL     1      43.818  -4.618  13.940  0.00  0.00    +0.000 A 
ATOM     14  C   UNL     1      43.952  -2.942  12.206  0.00  0.00    +0.000 A 
ATOM     15  C   UNL     1      43.051  -3.746  14.703  0.00  0.00    +0.000 A 
ATOM     16  C   UNL     1      43.196  -2.063  12.980  0.00  0.00    +0.000 A 
ATOM     17  C   UNL     1      42.764  -2.468  14.235  0.00  0.00    +0.000 A 
BRANCH  15  18
ATOM     18  O   UNL     1      42.556  -4.181  15.897  0.00  0.00    +0.000 OA
ATOM     19  H   UNL     1      42.163  -3.407  16.342  0.00  0.00    +0.000 HD
ENDBRANCH  15  18
BRANCH  17  20
ATOM     20  O   UNL     1      42.072  -1.587  15.014  0.00  0.00    +0.000 OA
ATOM     21  H   UNL     1      41.166  -1.551  14.656  0.00  0.00    +0.000 HD
ENDBRANCH  17  20
ENDBRANCH   5  12
BRANCH   6  22
ATOM     22  O   UNL     1      47.170  -4.662  13.072  0.00  0.00    +0.000 OA
ATOM     23  H   UNL     1      47.294  -5.274  13.815  0.00  0.00    +0.000 HD
ENDBRANCH   6  22
BRANCH   8  24
ATOM     24  O   UNL     1      48.348  -8.035   9.223  0.00  0.00    +0.000 OA
ATOM     25  H   UNL     1      48.672  -7.924  10.147  0.00  0.00    +0.000 HD
ENDBRANCH   8  24
BRANCH  10  26
ATOM     26  O   UNL     1      44.115  -8.683   7.181  0.00  0.00    +0.000 OA
ATOM     27  H   UNL     1      43.366  -9.121   7.624  0.00  0.00    +0.000 HD
ENDBRANCH  10  26
TORSDOF 6
ENDMDL
MODEL 7
REMARK VINA RESULT:      -7.0     33.416     35.567
REMARK  Name = Quercetin.pdbqt.pdb
REMARK  6 active torsions:
REMARK  status: ('A' for Active; 'I' for Inactive)
REMARK    1  A    between atoms: C_5  and  C_12
REMARK    2  A    between atoms: C_6  and  O_22
REMARK    3  A    between atoms: C_8  and  O_24
REMARK    4  A    between atoms: C_10  and  O_26
REMARK    5  A    between atoms: C_15  and  O_18
REMARK    6  A    between atoms: C_17  and  O_20
REMARK                            x       y       z     vdW  Elec       q    Type
REMARK                         _______ _______ _______ _____ _____    ______ ____
ROOT
ATOM      1  O   UNL     1      21.499  21.245   2.017  0.00  0.00    +0.000 OA
ATOM      2  O   UNL     1      22.271  17.965   4.291  0.00  0.00    +0.000 OA
ATOM      3  C   UNL     1      20.684  19.372   3.323  0.00  0.00    +0.000 A 
ATOM      4  C   UNL     1      20.477  20.504   2.542  0.00  0.00    +0.000 A 
ATOM      5  C   UNL     1      22.807  20.847   2.254  0.00  0.00    +0.000 A 
ATOM      6  C   UNL     1      23.157  19.779   3.003  0.00  0.00    +0.000 A 
ATOM      7  C   UNL     1      22.063  18.957   3.595  0.00  0.00    +0.000 A 
ATOM      8  C   UNL     1      19.588  18.661   3.829  0.00  0.00    +0.000 A 
ATOM      9  C   UNL     1      19.180  20.933   2.263  0.00  0.00    +0.000 A 
ATOM     10  C   UNL     1      18.099  20.219   2.770  0.00  0.00    +0.000 A 
ATOM     11  C   UNL     1      18.292  19.086   3.552  0.00  0.00    +0.000 A 
ENDROOT
BRANCH   5  12
ATOM     12  C   UNL     1      23.780  21.734   1.602  0.00  0.00    +0.000 A 
ATOM     13  C   UNL     1      24.414  22.757   2.316  0.00  0.00    +0.000 A 
ATOM     14  C   UNL     1      24.127  21.517   0.262  0.00  0.00    +0.000 A 
ATOM     15  C   UNL     1      25.358  23.556   1.684  0.00  0.00    +0.000 A 
ATOM     16  C   UNL     1      25.087  22.310  -0.364  0.00  0.00    +0.000 A 
ATOM     17  C   UNL     1      25.710  23.318   0.360  0.00  0.00    +0.000 A 
BRANCH  15  18
ATOM     18  O   UNL     1      25.903  24.599   2.375  0.00  0.00    +0.000 OA
ATOM     19  H   UNL     1      25.354  25.384   2.188  0.00  0.00    +0.000 HD
ENDBRANCH  15  18
BRANCH  17  20
ATOM     20  O   UNL     1      26.689  24.056  -0.238  0.00  0.00    +0.000 OA
ATOM     21  H   UNL     1      26.289  24.455  -1.033  0.00  0.00    +0.000 HD
ENDBRANCH  17  20
ENDBRANCH   5  12
BRANCH   6  22
ATOM     22  O   UNL     1      24.453  19.389   3.284  0.00  0.00    +0.000 OA
ATOM     23  H   UNL     1      25.011  20.168   3.439  0.00  0.00    +0.000 HD
ENDBRANCH   6  22
BRANCH   8  24
ATOM     24  O   UNL     1      19.718  17.541   4.605  0.00  0.00    +0.000 OA
ATOM     25  H   UNL     1      20.195  16.856   4.082  0.00  0.00    +0.000 HD
ENDBRANCH   8  24
BRANCH  10  26
ATOM     26  O   UNL     1      16.840  20.659   2.482  0.00  0.00    +0.000 OA
ATOM     27  H   UNL     1      16.252  20.392   3.211  0.00  0.00    +0.000 HD
ENDBRANCH  10  26
TORSDOF 6
ENDMDL
MODEL 8
REMARK VINA RESULT:      -7.0      3.419      6.154
REMARK  Name = Quercetin.pdbqt.pdb
REMARK  6 active torsions:
REMARK  status: ('A' for Active; 'I' for Inactive)
REMARK    1  A    between atoms: C_5  and  C_12
REMARK    2  A    between atoms: C_6  and  O_22
REMARK    3  A    between atoms: C_8  and  O_24
REMARK    4  A    between atoms: C_10  and  O_26
REMARK    5  A    between atoms: C_15  and  O_18
REMARK    6  A    between atoms: C_17  and  O_20
REMARK                            x       y       z     vdW  Elec       q    Type
REMARK                         _______ _______ _______ _____ _____    ______ ____
ROOT
ATOM      1  O   UNL     1      45.201  -2.622  10.515  0.00  0.00    +0.000 OA
ATOM      2  O   UNL     1      44.276   0.667  12.717  0.00  0.00    +0.000 OA
ATOM      3  C   UNL     1      45.731  -0.362  11.213  0.00  0.00    +0.000 A 
ATOM      4  C   UNL     1      46.002  -1.514  10.484  0.00  0.00    +0.000 A 
ATOM      5  C   UNL     1      44.053  -2.599  11.295  0.00  0.00    +0.000 A 
ATOM      6  C   UNL     1      43.673  -1.555  12.063  0.00  0.00    +0.000 A 
ATOM      7  C   UNL     1      44.531  -0.337  12.056  0.00  0.00    +0.000 A 
ATOM      8  C   UNL     1      46.597   0.736  11.134  0.00  0.00    +0.000 A 
ATOM      9  C   UNL     1      47.134  -1.579   9.674  0.00  0.00    +0.000 A 
ATOM     10  C   UNL     1      47.988  -0.482   9.602  0.00  0.00    +0.000 A 
ATOM     11  C   UNL     1      47.729   0.676  10.327  0.00  0.00    +0.000 A 
ENDROOT
BRANCH   5  12
ATOM     12  C   UNL     1      43.295  -3.854  11.198  0.00  0.00    +0.000 A 
ATOM     13  C   UNL     1      43.323  -4.793  12.234  0.00  0.00    +0.000 A 
ATOM     14  C   UNL     1      42.484  -4.090  10.081  0.00  0.00    +0.000 A 
ATOM     15  C   UNL     1      42.567  -5.954  12.133  0.00  0.00    +0.000 A 
ATOM     16  C   UNL     1      41.713  -5.248   9.990  0.00  0.00    +0.000 A 
ATOM     17  C   UNL     1      41.749  -6.167  11.029  0.00  0.00    +0.000 A 
BRANCH  15  18
ATOM     18  O   UNL     1      42.672  -6.894  13.117  0.00  0.00    +0.000 OA
ATOM     19  H   UNL     1      42.891  -7.739  12.682  0.00  0.00    +0.000 HD
ENDBRANCH  15  18
BRANCH  17  20
ATOM     20  O   UNL     1      40.951  -7.273  10.964  0.00  0.00    +0.000 OA
ATOM     21  H   UNL     1      40.292  -7.182  11.677  0.00  0.00    +0.000 HD
ENDBRANCH  17  20
ENDBRANCH   5  12
BRANCH   6  22
ATOM     22  O   UNL     1      42.556  -1.527  12.877  0.00  0.00    +0.000 OA
ATOM     23  H   UNL     1      41.757  -1.708  12.356  0.00  0.00    +0.000 HD
ENDBRANCH   6  22
BRANCH   8  24
ATOM     24  O   UNL     1      46.394   1.900  11.825  0.00  0.00    +0.000 OA
ATOM     25  H   UNL     1      47.080   2.550  11.545  0.00  0.00    +0.000 HD
ENDBRANCH   8  24
BRANCH  10  26
ATOM     26  O   UNL     1      49.089  -0.570   8.802  0.00  0.00    +0.000 OA
ATOM     27  H   UNL     1      49.836  -0.878   9.347  0.00  0.00    +0.000 HD
ENDBRANCH  10  26
TORSDOF 6
ENDMDL
MODEL 9
REMARK VINA RESULT:      -6.7     30.959     34.750
REMARK  Name = Quercetin.pdbqt.pdb
REMARK  6 active torsions:
REMARK  status: ('A' for Active; 'I' for Inactive)
REMARK    1  A    between atoms: C_5  and  C_12
REMARK    2  A    between atoms: C_6  and  O_22
REMARK    3  A    between atoms: C_8  and  O_24
REMARK    4  A    between atoms: C_10  and  O_26
REMARK    5  A    between atoms: C_15  and  O_18
REMARK    6  A    between atoms: C_17  and  O_20
REMARK                            x       y       z     vdW  Elec       q    Type
REMARK                         _______ _______ _______ _____ _____    ______ ____
ROOT
ATOM      1  O   UNL     1      15.710   5.047  25.826  0.00  0.00    +0.000 OA
ATOM      2  O   UNL     1      13.505   4.979  29.240  0.00  0.00    +0.000 OA
ATOM      3  C   UNL     1      14.303   6.205  27.425  0.00  0.00    +0.000 A 
ATOM      4  C   UNL     1      15.072   6.174  26.267  0.00  0.00    +0.000 A 
ATOM      5  C   UNL     1      15.574   3.872  26.551  0.00  0.00    +0.000 A 
ATOM      6  C   UNL     1      14.871   3.759  27.698  0.00  0.00    +0.000 A 
ATOM      7  C   UNL     1      14.172   4.973  28.208  0.00  0.00    +0.000 A 
ATOM      8  C   UNL     1      13.679   7.396  27.818  0.00  0.00    +0.000 A 
ATOM      9  C   UNL     1      15.223   7.325  25.496  0.00  0.00    +0.000 A 
ATOM     10  C   UNL     1      14.599   8.503  25.895  0.00  0.00    +0.000 A 
ATOM     11  C   UNL     1      13.827   8.548  27.051  0.00  0.00    +0.000 A 
ENDROOT
BRANCH   5  12
ATOM     12  C   UNL     1      16.300   2.754  25.930  0.00  0.00    +0.000 A 
ATOM     13  C   UNL     1      17.633   2.491  26.258  0.00  0.00    +0.000 A 
ATOM     14  C   UNL     1      15.630   1.901  25.044  0.00  0.00    +0.000 A 
ATOM     15  C   UNL     1      18.283   1.406  25.685  0.00  0.00    +0.000 A 
ATOM     16  C   UNL     1      16.280   0.802  24.484  0.00  0.00    +0.000 A 
ATOM     17  C   UNL     1      17.602   0.553  24.823  0.00  0.00    +0.000 A 
BRANCH  15  18
ATOM     18  O   UNL     1      19.607   1.216  25.954  0.00  0.00    +0.000 OA
ATOM     19  H   UNL     1      20.077   2.019  25.660  0.00  0.00    +0.000 HD
ENDBRANCH  15  18
BRANCH  17  20
ATOM     20  O   UNL     1      18.219  -0.554  24.318  0.00  0.00    +0.000 OA
ATOM     21  H   UNL     1      18.587  -1.039  25.079  0.00  0.00    +0.000 HD
ENDBRANCH  17  20
ENDBRANCH   5  12
BRANCH   6  22
ATOM     22  O   UNL     1      14.757   2.609  28.456  0.00  0.00    +0.000 OA
ATOM     23  H   UNL     1      14.985   1.831  27.922  0.00  0.00    +0.000 HD
ENDBRANCH   6  22
BRANCH   8  24
ATOM     24  O   UNL     1      12.910   7.501  28.945  0.00  0.00    +0.000 OA
ATOM     25  H   UNL     1      12.705   8.454  29.093  0.00  0.00    +0.000 HD
ENDBRANCH   8  24
BRANCH  10  26
ATOM     26  O   UNL     1      14.762   9.616  25.124  0.00  0.00    +0.000 OA
ATOM     27  H   UNL     1      15.199  10.298  25.665  0.00  0.00    +0.000 HD
ENDBRANCH  10  26
TORSDOF 6
ENDMDL
