MODEL 1
REMARK VINA RESULT:      -8.5      0.000      0.000
REMARK  Name = 
REMARK  11 active torsions:
REMARK  status: ('A' for Active; 'I' for Inactive)
REMARK    1  A    between atoms: O_2  and  C_16
REMARK    2  A    between atoms: O_2  and  C_18
REMARK    3  A    between atoms: O_3  and  C_12
REMARK    4  A    between atoms: O_4  and  C_13
REMARK    5  A    between atoms: O_5  and  C_14
REMARK    6  A    between atoms: O_8  and  C_24
REMARK    7  A    between atoms: O_9  and  C_29
REMARK    8  A    between atoms: O_10  and  C_30
REMARK    9  A    between atoms: O_11  and  C_32
REMARK   10  A    between atoms: C_15  and  C_17
REMARK   11  A    between atoms: C_19  and  C_23
REMARK                            x       y       z     vdW  Elec       q    Type
REMARK                         _______ _______ _______ _____ _____    ______ ____
ROOT
ATOM      1  O   UNL     1      22.375  23.077   4.063  0.00  0.00    +0.000 OA
ATOM      2  O   UNL     1      25.258  23.261   1.213  0.00  0.00    +0.000 OA
ATOM      3  C   UNL     1      23.573  21.987   2.270  0.00  0.00    +0.000 A 
ATOM      4  C   UNL     1      22.567  22.043   3.165  0.00  0.00    +0.000 A 
ATOM      5  C   UNL     1      24.480  23.167   2.154  0.00  0.00    +0.000 A 
ATOM      6  C   UNL     1      24.355  24.204   3.203  0.00  0.00    +0.000 A 
ATOM      7  C   UNL     1      23.288  24.097   4.096  0.00  0.00    +0.000 A 
ATOM      8  C   UNL     1      25.241  25.284   3.328  0.00  0.00    +0.000 A 
ATOM      9  C   UNL     1      23.097  25.056   5.094  0.00  0.00    +0.000 A 
ATOM     10  C   UNL     1      25.056  26.246   4.327  0.00  0.00    +0.000 A 
ATOM     11  C   UNL     1      23.980  26.121   5.201  0.00  0.00    +0.000 A 
ENDROOT
BRANCH   4  12
ATOM     12  C   UNL     1      21.560  20.970   3.305  0.00  0.00    +0.000 A 
ATOM     13  C   UNL     1      21.947  19.629   3.144  0.00  0.00    +0.000 A 
ATOM     14  C   UNL     1      20.217  21.265   3.603  0.00  0.00    +0.000 A 
ATOM     15  C   UNL     1      20.997  18.619   3.256  0.00  0.00    +0.000 A 
ATOM     16  C   UNL     1      19.269  20.245   3.709  0.00  0.00    +0.000 A 
ATOM     17  C   UNL     1      19.669  18.930   3.530  0.00  0.00    +0.000 A 
BRANCH  15  18
ATOM     18  O   UNL     1      21.322  17.300   3.100  0.00  0.00    +0.000 OA
ATOM     19  H   UNL     1      20.545  16.762   3.334  0.00  0.00    +0.000 HD
ENDBRANCH  15  18
BRANCH  17  20
ATOM     20  O   UNL     1      18.741  17.934   3.630  0.00  0.00    +0.000 OA
ATOM     21  H   UNL     1      17.904  18.392   3.847  0.00  0.00    +0.000 HD
ENDBRANCH  17  20
ENDBRANCH   4  12
BRANCH   8  22
ATOM     22  O   UNL     1      26.313  25.407   2.492  0.00  0.00    +0.000 OA
ATOM     23  H   UNL     1      26.754  24.554   2.359  0.00  0.00    +0.000 HD
ENDBRANCH   8  22
BRANCH  11  24
ATOM     24  O   UNL     1      23.755  27.030   6.190  0.00  0.00    +0.000 OA
ATOM     25  H   UNL     1      24.182  27.873   5.960  0.00  0.00    +0.000 HD
ENDBRANCH  11  24
BRANCH   3  26
ATOM     26  O   UNL     1      23.756  20.943   1.376  0.00  0.00    +0.000 OA
BRANCH  26  32
ATOM     27  O   UNL     1      22.538  22.340  -0.142  0.00  0.00    +0.000 OA
ATOM     28  C   UNL     1      21.949  19.565  -0.662  0.00  0.00    +0.000 C 
ATOM     29  C   UNL     1      20.889  20.661  -0.816  0.00  0.00    +0.000 C 
ATOM     30  C   UNL     1      23.355  20.130  -0.874  0.00  0.00    +0.000 C 
ATOM     31  C   UNL     1      21.224  21.824   0.125  0.00  0.00    +0.000 C 
ATOM     32  C   UNL     1      23.578  21.372   0.018  0.00  0.00    +0.000 C 
ATOM     33  C   UNL     1      20.242  22.979  -0.037  0.00  0.00    +0.000 C 
BRANCH  28  34
ATOM     34  O   UNL     1      21.682  18.533  -1.630  0.00  0.00    +0.000 OA
ATOM     35  H   UNL     1      20.763  18.699  -1.927  0.00  0.00    +0.000 HD
ENDBRANCH  28  34
BRANCH  29  36
ATOM     36  O   UNL     1      19.601  20.106  -0.531  0.00  0.00    +0.000 OA
ATOM     37  H   UNL     1      19.034  20.869  -0.301  0.00  0.00    +0.000 HD
ENDBRANCH  29  36
BRANCH  30  38
ATOM     38  O   UNL     1      23.490  20.437  -2.278  0.00  0.00    +0.000 OA
ATOM     39  H   UNL     1      22.771  21.053  -2.511  0.00  0.00    +0.000 HD
ENDBRANCH  30  38
ENDBRANCH  26  32
ENDBRANCH   3  26
TORSDOF 10
ENDMDL
MODEL 2
REMARK VINA RESULT:      -8.4      1.818      6.421
REMARK  Name = 
REMARK  11 active torsions:
REMARK  status: ('A' for Active; 'I' for Inactive)
REMARK    1  A    between atoms: O_2  and  C_16
REMARK    2  A    between atoms: O_2  and  C_18
REMARK    3  A    between atoms: O_3  and  C_12
REMARK    4  A    between atoms: O_4  and  C_13
REMARK    5  A    between atoms: O_5  and  C_14
REMARK    6  A    between atoms: O_8  and  C_24
REMARK    7  A    between atoms: O_9  and  C_29
REMARK    8  A    between atoms: O_10  and  C_30
REMARK    9  A    between atoms: O_11  and  C_32
REMARK   10  A    between atoms: C_15  and  C_17
REMARK   11  A    between atoms: C_19  and  C_23
REMARK                            x       y       z     vdW  Elec       q    Type
REMARK                         _______ _______ _______ _____ _____    ______ ____
ROOT
ATOM      1  O   UNL     1      21.659  21.639   3.785  0.00  0.00    +0.000 OA
ATOM      2  O   UNL     1      23.067  20.458   0.167  0.00  0.00    +0.000 OA
ATOM      3  C   UNL     1      22.678  22.232   1.676  0.00  0.00    +0.000 A 
ATOM      4  C   UNL     1      22.289  22.527   2.933  0.00  0.00    +0.000 A 
ATOM      5  C   UNL     1      22.526  20.826   1.203  0.00  0.00    +0.000 A 
ATOM      6  C   UNL     1      21.733  19.918   2.063  0.00  0.00    +0.000 A 
ATOM      7  C   UNL     1      21.354  20.386   3.322  0.00  0.00    +0.000 A 
ATOM      8  C   UNL     1      21.362  18.622   1.680  0.00  0.00    +0.000 A 
ATOM      9  C   UNL     1      20.627  19.573   4.194  0.00  0.00    +0.000 A 
ATOM     10  C   UNL     1      20.631  17.803   2.548  0.00  0.00    +0.000 A 
ATOM     11  C   UNL     1      20.272  18.290   3.801  0.00  0.00    +0.000 A 
ENDROOT
BRANCH   4  12
ATOM     12  C   UNL     1      22.471  23.865   3.534  0.00  0.00    +0.000 A 
ATOM     13  C   UNL     1      23.079  23.982   4.796  0.00  0.00    +0.000 A 
ATOM     14  C   UNL     1      22.053  25.029   2.864  0.00  0.00    +0.000 A 
ATOM     15  C   UNL     1      23.234  25.238   5.372  0.00  0.00    +0.000 A 
ATOM     16  C   UNL     1      22.209  26.286   3.452  0.00  0.00    +0.000 A 
ATOM     17  C   UNL     1      22.795  26.378   4.704  0.00  0.00    +0.000 A 
BRANCH  15  18
ATOM     18  O   UNL     1      23.811  25.405   6.601  0.00  0.00    +0.000 OA
ATOM     19  H   UNL     1      24.676  25.834   6.479  0.00  0.00    +0.000 HD
ENDBRANCH  15  18
BRANCH  17  20
ATOM     20  O   UNL     1      22.943  27.606   5.280  0.00  0.00    +0.000 OA
ATOM     21  H   UNL     1      22.160  28.116   4.988  0.00  0.00    +0.000 HD
ENDBRANCH  17  20
ENDBRANCH   4  12
BRANCH   8  22
ATOM     22  O   UNL     1      21.688  18.139   0.445  0.00  0.00    +0.000 OA
ATOM     23  H   UNL     1      22.436  18.626   0.064  0.00  0.00    +0.000 HD
ENDBRANCH   8  22
BRANCH  11  24
ATOM     24  O   UNL     1      19.561  17.534   4.683  0.00  0.00    +0.000 OA
ATOM     25  H   UNL     1      18.667  17.381   4.333  0.00  0.00    +0.000 HD
ENDBRANCH  11  24
BRANCH   3  26
ATOM     26  O   UNL     1      23.307  23.133   0.831  0.00  0.00    +0.000 OA
BRANCH  26  32
ATOM     27  O   UNL     1      25.395  23.685   1.865  0.00  0.00    +0.000 OA
ATOM     28  C   UNL     1      25.273  24.821  -0.783  0.00  0.00    +0.000 C 
ATOM     29  C   UNL     1      25.971  25.541   0.376  0.00  0.00    +0.000 C 
ATOM     30  C   UNL     1      25.279  23.306  -0.571  0.00  0.00    +0.000 C 
ATOM     31  C   UNL     1      25.328  25.110   1.700  0.00  0.00    +0.000 C 
ATOM     32  C   UNL     1      24.731  22.954   0.830  0.00  0.00    +0.000 C 
ATOM     33  C   UNL     1      26.031  25.739   2.897  0.00  0.00    +0.000 C 
BRANCH  28  34
ATOM     34  O   UNL     1      25.960  25.150  -2.005  0.00  0.00    +0.000 OA
ATOM     35  H   UNL     1      26.529  25.915  -1.774  0.00  0.00    +0.000 HD
ENDBRANCH  28  34
BRANCH  29  36
ATOM     36  O   UNL     1      25.870  26.954   0.176  0.00  0.00    +0.000 OA
ATOM     37  H   UNL     1      25.387  27.063  -0.667  0.00  0.00    +0.000 HD
ENDBRANCH  29  36
BRANCH  30  38
ATOM     38  O   UNL     1      26.638  22.851  -0.753  0.00  0.00    +0.000 OA
ATOM     39  H   UNL     1      27.226  23.550  -0.414  0.00  0.00    +0.000 HD
ENDBRANCH  30  38
ENDBRANCH  26  32
ENDBRANCH   3  26
TORSDOF 10
ENDMDL
MODEL 3
REMARK VINA RESULT:      -8.3      2.336      6.947
REMARK  Name = 
REMARK  11 active torsions:
REMARK  status: ('A' for Active; 'I' for Inactive)
REMARK    1  A    between atoms: O_2  and  C_16
REMARK    2  A    between atoms: O_2  and  C_18
REMARK    3  A    between atoms: O_3  and  C_12
REMARK    4  A    between atoms: O_4  and  C_13
REMARK    5  A    between atoms: O_5  and  C_14
REMARK    6  A    between atoms: O_8  and  C_24
REMARK    7  A    between atoms: O_9  and  C_29
REMARK    8  A    between atoms: O_10  and  C_30
REMARK    9  A    between atoms: O_11  and  C_32
REMARK   10  A    between atoms: C_15  and  C_17
REMARK   11  A    between atoms: C_19  and  C_23
REMARK                            x       y       z     vdW  Elec       q    Type
REMARK                         _______ _______ _______ _____ _____    ______ ____
ROOT
ATOM      1  O   UNL     1      22.319  22.489   3.090  0.00  0.00    +0.000 OA
ATOM      2  O   UNL     1      25.389  22.286   0.444  0.00  0.00    +0.000 OA
ATOM      3  C   UNL     1      24.213  23.564   2.045  0.00  0.00    +0.000 A 
ATOM      4  C   UNL     1      23.240  23.514   2.976  0.00  0.00    +0.000 A 
ATOM      5  C   UNL     1      24.389  22.387   1.145  0.00  0.00    +0.000 A 
ATOM      6  C   UNL     1      23.323  21.360   1.180  0.00  0.00    +0.000 A 
ATOM      7  C   UNL     1      22.348  21.473   2.172  0.00  0.00    +0.000 A 
ATOM      8  C   UNL     1      23.258  20.286   0.281  0.00  0.00    +0.000 A 
ATOM      9  C   UNL     1      21.328  20.524   2.278  0.00  0.00    +0.000 A 
ATOM     10  C   UNL     1      22.237  19.334   0.381  0.00  0.00    +0.000 A 
ATOM     11  C   UNL     1      21.282  19.464   1.383  0.00  0.00    +0.000 A 
ENDROOT
BRANCH   4  12
ATOM     12  C   UNL     1      23.031  24.584   3.974  0.00  0.00    +0.000 A 
ATOM     13  C   UNL     1      23.442  24.383   5.303  0.00  0.00    +0.000 A 
ATOM     14  C   UNL     1      22.434  25.806   3.618  0.00  0.00    +0.000 A 
ATOM     15  C   UNL     1      23.229  25.381   6.248  0.00  0.00    +0.000 A 
ATOM     16  C   UNL     1      22.220  26.801   4.575  0.00  0.00    +0.000 A 
ATOM     17  C   UNL     1      22.617  26.576   5.883  0.00  0.00    +0.000 A 
BRANCH  15  18
ATOM     18  O   UNL     1      23.601  25.231   7.555  0.00  0.00    +0.000 OA
ATOM     19  H   UNL     1      24.516  24.901   7.579  0.00  0.00    +0.000 HD
ENDBRANCH  15  18
BRANCH  17  20
ATOM     20  O   UNL     1      22.404  27.547   6.819  0.00  0.00    +0.000 OA
ATOM     21  H   UNL     1      23.135  28.184   6.690  0.00  0.00    +0.000 HD
ENDBRANCH  17  20
ENDBRANCH   4  12
BRANCH   8  22
ATOM     22  O   UNL     1      24.176  20.158  -0.721  0.00  0.00    +0.000 OA
ATOM     23  H   UNL     1      24.109  19.290  -1.149  0.00  0.00    +0.000 HD
ENDBRANCH   8  22
BRANCH  11  24
ATOM     24  O   UNL     1      20.268  18.565   1.524  0.00  0.00    +0.000 OA
ATOM     25  H   UNL     1      19.673  18.623   0.757  0.00  0.00    +0.000 HD
ENDBRANCH  11  24
BRANCH   3  26
ATOM     26  O   UNL     1      25.130  24.599   1.940  0.00  0.00    +0.000 OA
BRANCH  26  32
ATOM     27  O   UNL     1      25.073  25.392  -0.319  0.00  0.00    +0.000 OA
ATOM     28  C   UNL     1      26.652  27.169   1.313  0.00  0.00    +0.000 C 
ATOM     29  C   UNL     1      27.009  26.880  -0.149  0.00  0.00    +0.000 C 
ATOM     30  C   UNL     1      25.153  26.994   1.556  0.00  0.00    +0.000 C 
ATOM     31  C   UNL     1      26.491  25.489  -0.531  0.00  0.00    +0.000 C 
ATOM     32  C   UNL     1      24.678  25.618   1.037  0.00  0.00    +0.000 C 
ATOM     33  C   UNL     1      26.752  25.175  -2.000  0.00  0.00    +0.000 C 
BRANCH  28  34
ATOM     34  O   UNL     1      27.047  28.519   1.621  0.00  0.00    +0.000 OA
ATOM     35  H   UNL     1      27.634  28.784   0.881  0.00  0.00    +0.000 HD
ENDBRANCH  28  34
BRANCH  29  36
ATOM     36  O   UNL     1      28.428  26.977  -0.311  0.00  0.00    +0.000 OA
ATOM     37  H   UNL     1      28.696  26.148  -0.755  0.00  0.00    +0.000 HD
ENDBRANCH  29  36
BRANCH  30  38
ATOM     38  O   UNL     1      24.478  28.087   0.896  0.00  0.00    +0.000 OA
ATOM     39  H   UNL     1      25.099  28.458   0.243  0.00  0.00    +0.000 HD
ENDBRANCH  30  38
ENDBRANCH  26  32
ENDBRANCH   3  26
TORSDOF 10
ENDMDL
MODEL 4
REMARK VINA RESULT:      -8.0      2.650      7.921
REMARK  Name = 
REMARK  11 active torsions:
REMARK  status: ('A' for Active; 'I' for Inactive)
REMARK    1  A    between atoms: O_2  and  C_16
REMARK    2  A    between atoms: O_2  and  C_18
REMARK    3  A    between atoms: O_3  and  C_12
REMARK    4  A    between atoms: O_4  and  C_13
REMARK    5  A    between atoms: O_5  and  C_14
REMARK    6  A    between atoms: O_8  and  C_24
REMARK    7  A    between atoms: O_9  and  C_29
REMARK    8  A    between atoms: O_10  and  C_30
REMARK    9  A    between atoms: O_11  and  C_32
REMARK   10  A    between atoms: C_15  and  C_17
REMARK   11  A    between atoms: C_19  and  C_23
REMARK                            x       y       z     vdW  Elec       q    Type
REMARK                         _______ _______ _______ _____ _____    ______ ____
ROOT
ATOM      1  O   UNL     1      23.767  22.063   0.088  0.00  0.00    +0.000 OA
ATOM      2  O   UNL     1      22.074  23.851   3.313  0.00  0.00    +0.000 OA
ATOM      3  C   UNL     1      23.728  23.923   1.629  0.00  0.00    +0.000 A 
ATOM      4  C   UNL     1      24.164  23.319   0.505  0.00  0.00    +0.000 A 
ATOM      5  C   UNL     1      22.660  23.248   2.423  0.00  0.00    +0.000 A 
ATOM      6  C   UNL     1      22.340  21.851   2.050  0.00  0.00    +0.000 A 
ATOM      7  C   UNL     1      22.913  21.344   0.884  0.00  0.00    +0.000 A 
ATOM      8  C   UNL     1      21.484  21.031   2.799  0.00  0.00    +0.000 A 
ATOM      9  C   UNL     1      22.632  20.043   0.460  0.00  0.00    +0.000 A 
ATOM     10  C   UNL     1      21.202  19.726   2.382  0.00  0.00    +0.000 A 
ATOM     11  C   UNL     1      21.780  19.246   1.211  0.00  0.00    +0.000 A 
ENDROOT
BRANCH   4  12
ATOM     12  C   UNL     1      25.154  23.936  -0.402  0.00  0.00    +0.000 A 
ATOM     13  C   UNL     1      26.480  23.468  -0.404  0.00  0.00    +0.000 A 
ATOM     14  C   UNL     1      24.795  24.981  -1.272  0.00  0.00    +0.000 A 
ATOM     15  C   UNL     1      27.418  24.060  -1.243  0.00  0.00    +0.000 A 
ATOM     16  C   UNL     1      25.745  25.572  -2.108  0.00  0.00    +0.000 A 
ATOM     17  C   UNL     1      27.050  25.108  -2.082  0.00  0.00    +0.000 A 
BRANCH  15  18
ATOM     18  O   UNL     1      28.722  23.648  -1.275  0.00  0.00    +0.000 OA
ATOM     19  H   UNL     1      29.168  23.976  -0.475  0.00  0.00    +0.000 HD
ENDBRANCH  15  18
BRANCH  17  20
ATOM     20  O   UNL     1      27.979  25.688  -2.895  0.00  0.00    +0.000 OA
ATOM     21  H   UNL     1      27.758  26.642  -2.887  0.00  0.00    +0.000 HD
ENDBRANCH  17  20
ENDBRANCH   4  12
BRANCH   8  22
ATOM     22  O   UNL     1      20.927  21.480   3.962  0.00  0.00    +0.000 OA
ATOM     23  H   UNL     1      21.042  22.439   4.059  0.00  0.00    +0.000 HD
ENDBRANCH   8  22
BRANCH  11  24
ATOM     24  O   UNL     1      21.537  17.983   0.760  0.00  0.00    +0.000 OA
ATOM     25  H   UNL     1      21.911  17.880  -0.131  0.00  0.00    +0.000 HD
ENDBRANCH  11  24
BRANCH   3  26
ATOM     26  O   UNL     1      24.135  25.184   2.037  0.00  0.00    +0.000 OA
BRANCH  26  32
ATOM     27  O   UNL     1      24.697  25.134   4.365  0.00  0.00    +0.000 OA
ATOM     28  C   UNL     1      25.624  27.592   3.177  0.00  0.00    +0.000 C 
ATOM     29  C   UNL     1      25.097  27.536   4.615  0.00  0.00    +0.000 C 
ATOM     30  C   UNL     1      26.199  26.241   2.750  0.00  0.00    +0.000 C 
ATOM     31  C   UNL     1      24.095  26.383   4.741  0.00  0.00    +0.000 C 
ATOM     32  C   UNL     1      25.180  25.111   3.019  0.00  0.00    +0.000 C 
ATOM     33  C   UNL     1      23.590  26.230   6.171  0.00  0.00    +0.000 C 
BRANCH  28  34
ATOM     34  O   UNL     1      26.644  28.607   3.104  0.00  0.00    +0.000 OA
ATOM     35  H   UNL     1      27.196  28.352   2.335  0.00  0.00    +0.000 HD
ENDBRANCH  28  34
BRANCH  29  36
ATOM     36  O   UNL     1      24.498  28.794   4.941  0.00  0.00    +0.000 OA
ATOM     37  H   UNL     1      25.214  29.453   4.854  0.00  0.00    +0.000 HD
ENDBRANCH  29  36
BRANCH  30  38
ATOM     38  O   UNL     1      27.431  26.047   3.478  0.00  0.00    +0.000 OA
ATOM     39  H   UNL     1      27.991  25.451   2.948  0.00  0.00    +0.000 HD
ENDBRANCH  30  38
ENDBRANCH  26  32
ENDBRANCH   3  26
TORSDOF 10
ENDMDL
MODEL 5
REMARK VINA RESULT:      -7.6     39.319     42.225
REMARK  Name = 
REMARK  11 active torsions:
REMARK  status: ('A' for Active; 'I' for Inactive)
REMARK    1  A    between atoms: O_2  and  C_16
REMARK    2  A    between atoms: O_2  and  C_18
REMARK    3  A    between atoms: O_3  and  C_12
REMARK    4  A    between atoms: O_4  and  C_13
REMARK    5  A    between atoms: O_5  and  C_14
REMARK    6  A    between atoms: O_8  and  C_24
REMARK    7  A    between atoms: O_9  and  C_29
REMARK    8  A    between atoms: O_10  and  C_30
REMARK    9  A    between atoms: O_11  and  C_32
REMARK   10  A    between atoms: C_15  and  C_17
REMARK   11  A    between atoms: C_19  and  C_23
REMARK                            x       y       z     vdW  Elec       q    Type
REMARK                         _______ _______ _______ _____ _____    ______ ____
ROOT
ATOM      1  O   UNL     1      41.135 -13.652  18.965  0.00  0.00    +0.000 OA
ATOM      2  O   UNL     1      38.018 -12.229  21.138  0.00  0.00    +0.000 OA
ATOM      3  C   UNL     1      38.894 -12.750  19.008  0.00  0.00    +0.000 A 
ATOM      4  C   UNL     1      39.929 -13.331  18.370  0.00  0.00    +0.000 A 
ATOM      5  C   UNL     1      39.004 -12.538  20.481  0.00  0.00    +0.000 A 
ATOM      6  C   UNL     1      40.338 -12.755  21.085  0.00  0.00    +0.000 A 
ATOM      7  C   UNL     1      41.330 -13.317  20.279  0.00  0.00    +0.000 A 
ATOM      8  C   UNL     1      40.642 -12.439  22.417  0.00  0.00    +0.000 A 
ATOM      9  C   UNL     1      42.603 -13.572  20.792  0.00  0.00    +0.000 A 
ATOM     10  C   UNL     1      41.917 -12.690  22.936  0.00  0.00    +0.000 A 
ATOM     11  C   UNL     1      42.886 -13.258  22.115  0.00  0.00    +0.000 A 
ENDROOT
BRANCH   4  12
ATOM     12  C   UNL     1      39.895 -13.667  16.931  0.00  0.00    +0.000 A 
ATOM     13  C   UNL     1      39.904 -12.635  15.977  0.00  0.00    +0.000 A 
ATOM     14  C   UNL     1      39.861 -15.004  16.494  0.00  0.00    +0.000 A 
ATOM     15  C   UNL     1      39.853 -12.948  14.623  0.00  0.00    +0.000 A 
ATOM     16  C   UNL     1      39.806 -15.308  15.132  0.00  0.00    +0.000 A 
ATOM     17  C   UNL     1      39.798 -14.275  14.209  0.00  0.00    +0.000 A 
BRANCH  15  18
ATOM     18  O   UNL     1      39.850 -11.980  13.656  0.00  0.00    +0.000 OA
ATOM     19  H   UNL     1      39.699 -12.407  12.794  0.00  0.00    +0.000 HD
ENDBRANCH  15  18
BRANCH  17  20
ATOM     20  O   UNL     1      39.739 -14.573  12.879  0.00  0.00    +0.000 OA
ATOM     21  H   UNL     1      39.817 -15.548  12.837  0.00  0.00    +0.000 HD
ENDBRANCH  17  20
ENDBRANCH   4  12
BRANCH   8  22
ATOM     22  O   UNL     1      39.708 -11.861  23.228  0.00  0.00    +0.000 OA
ATOM     23  H   UNL     1      39.338 -11.062  22.822  0.00  0.00    +0.000 HD
ENDBRANCH   8  22
BRANCH  11  24
ATOM     24  O   UNL     1      44.142 -13.523  22.571  0.00  0.00    +0.000 OA
ATOM     25  H   UNL     1      44.738 -13.665  21.817  0.00  0.00    +0.000 HD
ENDBRANCH  11  24
BRANCH   3  26
ATOM     26  O   UNL     1      37.690 -12.432  18.399  0.00  0.00    +0.000 OA
BRANCH  26  32
ATOM     27  O   UNL     1      36.664 -14.320  17.340  0.00  0.00    +0.000 OA
ATOM     28  C   UNL     1      34.729 -12.211  17.693  0.00  0.00    +0.000 C 
ATOM     29  C   UNL     1      34.710 -13.132  16.468  0.00  0.00    +0.000 C 
ATOM     30  C   UNL     1      35.364 -12.912  18.895  0.00  0.00    +0.000 C 
ATOM     31  C   UNL     1      36.130 -13.638  16.194  0.00  0.00    +0.000 C 
ATOM     32  C   UNL     1      36.740 -13.502  18.511  0.00  0.00    +0.000 C 
ATOM     33  C   UNL     1      36.163 -14.620  15.028  0.00  0.00    +0.000 C 
BRANCH  28  34
ATOM     34  O   UNL     1      33.373 -11.835  18.002  0.00  0.00    +0.000 OA
ATOM     35  H   UNL     1      32.826 -12.580  17.675  0.00  0.00    +0.000 HD
ENDBRANCH  28  34
BRANCH  29  36
ATOM     36  O   UNL     1      34.182 -12.410  15.350  0.00  0.00    +0.000 OA
ATOM     37  H   UNL     1      33.368 -12.887  15.093  0.00  0.00    +0.000 HD
ENDBRANCH  29  36
BRANCH  30  38
ATOM     38  O   UNL     1      34.441 -13.929  19.339  0.00  0.00    +0.000 OA
ATOM     39  H   UNL     1      33.582 -13.746  18.916  0.00  0.00    +0.000 HD
ENDBRANCH  30  38
ENDBRANCH  26  32
ENDBRANCH   3  26
TORSDOF 10
ENDMDL
MODEL 6
REMARK VINA RESULT:      -7.6      3.385      8.426
REMARK  Name = 
REMARK  11 active torsions:
REMARK  status: ('A' for Active; 'I' for Inactive)
REMARK    1  A    between atoms: O_2  and  C_16
REMARK    2  A    between atoms: O_2  and  C_18
REMARK    3  A    between atoms: O_3  and  C_12
REMARK    4  A    between atoms: O_4  and  C_13
REMARK    5  A    between atoms: O_5  and  C_14
REMARK    6  A    between atoms: O_8  and  C_24
REMARK    7  A    between atoms: O_9  and  C_29
REMARK    8  A    between atoms: O_10  and  C_30
REMARK    9  A    between atoms: O_11  and  C_32
REMARK   10  A    between atoms: C_15  and  C_17
REMARK   11  A    between atoms: C_19  and  C_23
REMARK                            x       y       z     vdW  Elec       q    Type
REMARK                         _______ _______ _______ _____ _____    ______ ____
ROOT
ATOM      1  O   UNL     1      24.737  21.863  -1.075  0.00  0.00    +0.000 OA
ATOM      2  O   UNL     1      23.793  22.945   2.721  0.00  0.00    +0.000 OA
ATOM      3  C   UNL     1      25.239  23.203   0.871  0.00  0.00    +0.000 A 
ATOM      4  C   UNL     1      25.422  22.870  -0.422  0.00  0.00    +0.000 A 
ATOM      5  C   UNL     1      24.147  22.523   1.627  0.00  0.00    +0.000 A 
ATOM      6  C   UNL     1      23.512  21.358   0.969  0.00  0.00    +0.000 A 
ATOM      7  C   UNL     1      23.844  21.106  -0.363  0.00  0.00    +0.000 A 
ATOM      8  C   UNL     1      22.593  20.517   1.612  0.00  0.00    +0.000 A 
ATOM      9  C   UNL     1      23.262  20.039  -1.051  0.00  0.00    +0.000 A 
ATOM     10  C   UNL     1      22.009  19.445   0.929  0.00  0.00    +0.000 A 
ATOM     11  C   UNL     1      22.350  19.219  -0.401  0.00  0.00    +0.000 A 
ENDROOT
BRANCH   4  12
ATOM     12  C   UNL     1      26.415  23.540  -1.288  0.00  0.00    +0.000 A 
ATOM     13  C   UNL     1      27.785  23.414  -0.999  0.00  0.00    +0.000 A 
ATOM     14  C   UNL     1      26.017  24.297  -2.404  0.00  0.00    +0.000 A 
ATOM     15  C   UNL     1      28.721  24.059  -1.801  0.00  0.00    +0.000 A 
ATOM     16  C   UNL     1      26.964  24.944  -3.202  0.00  0.00    +0.000 A 
ATOM     17  C   UNL     1      28.307  24.822  -2.889  0.00  0.00    +0.000 A 
BRANCH  15  18
ATOM     18  O   UNL     1      30.063  23.976  -1.557  0.00  0.00    +0.000 OA
ATOM     19  H   UNL     1      30.536  24.428  -2.277  0.00  0.00    +0.000 HD
ENDBRANCH  15  18
BRANCH  17  20
ATOM     20  O   UNL     1      29.231  25.458  -3.666  0.00  0.00    +0.000 OA
ATOM     21  H   UNL     1      29.524  24.783  -4.311  0.00  0.00    +0.000 HD
ENDBRANCH  17  20
ENDBRANCH   4  12
BRANCH   8  22
ATOM     22  O   UNL     1      22.265  20.714   2.923  0.00  0.00    +0.000 OA
ATOM     23  H   UNL     1      22.677  21.520   3.270  0.00  0.00    +0.000 HD
ENDBRANCH   8  22
BRANCH  11  24
ATOM     24  O   UNL     1      21.810  18.189  -1.111  0.00  0.00    +0.000 OA
ATOM     25  H   UNL     1      20.886  18.057  -0.840  0.00  0.00    +0.000 HD
ENDBRANCH  11  24
BRANCH   3  26
ATOM     26  O   UNL     1      25.935  24.215   1.515  0.00  0.00    +0.000 OA
BRANCH  26  32
ATOM     27  O   UNL     1      25.550  26.318   0.434  0.00  0.00    +0.000 OA
ATOM     28  C   UNL     1      26.769  26.740   3.012  0.00  0.00    +0.000 C 
ATOM     29  C   UNL     1      27.090  27.633   1.808  0.00  0.00    +0.000 C 
ATOM     30  C   UNL     1      25.371  26.134   2.888  0.00  0.00    +0.000 C 
ATOM     31  C   UNL     1      26.889  26.832   0.517  0.00  0.00    +0.000 C 
ATOM     32  C   UNL     1      25.200  25.448   1.514  0.00  0.00    +0.000 C 
ATOM     33  C   UNL     1      27.122  27.690  -0.720  0.00  0.00    +0.000 C 
BRANCH  28  34
ATOM     34  O   UNL     1      26.855  27.539   4.208  0.00  0.00    +0.000 OA
ATOM     35  H   UNL     1      27.445  27.033   4.805  0.00  0.00    +0.000 HD
ENDBRANCH  28  34
BRANCH  29  36
ATOM     36  O   UNL     1      28.433  28.112   1.928  0.00  0.00    +0.000 OA
ATOM     37  H   UNL     1      28.901  27.443   2.466  0.00  0.00    +0.000 HD
ENDBRANCH  29  36
BRANCH  30  38
ATOM     38  O   UNL     1      24.419  27.201   3.085  0.00  0.00    +0.000 OA
ATOM     39  H   UNL     1      24.838  28.025   2.776  0.00  0.00    +0.000 HD
ENDBRANCH  30  38
ENDBRANCH  26  32
ENDBRANCH   3  26
TORSDOF 10
ENDMDL
MODEL 7
REMARK VINA RESULT:      -7.3      2.609      7.192
REMARK  Name = 
REMARK  11 active torsions:
REMARK  status: ('A' for Active; 'I' for Inactive)
REMARK    1  A    between atoms: O_2  and  C_16
REMARK    2  A    between atoms: O_2  and  C_18
REMARK    3  A    between atoms: O_3  and  C_12
REMARK    4  A    between atoms: O_4  and  C_13
REMARK    5  A    between atoms: O_5  and  C_14
REMARK    6  A    between atoms: O_8  and  C_24
REMARK    7  A    between atoms: O_9  and  C_29
REMARK    8  A    between atoms: O_10  and  C_30
REMARK    9  A    between atoms: O_11  and  C_32
REMARK   10  A    between atoms: C_15  and  C_17
REMARK   11  A    between atoms: C_19  and  C_23
REMARK                            x       y       z     vdW  Elec       q    Type
REMARK                         _______ _______ _______ _____ _____    ______ ____
ROOT
ATOM      1  O   UNL     1      23.314  22.402  -2.569  0.00  0.00    +0.000 OA
ATOM      2  O   UNL     1      21.272  18.923  -2.123  0.00  0.00    +0.000 OA
ATOM      3  C   UNL     1      22.771  20.493  -1.192  0.00  0.00    +0.000 A 
ATOM      4  C   UNL     1      23.330  21.705  -1.375  0.00  0.00    +0.000 A 
ATOM      5  C   UNL     1      21.982  19.904  -2.312  0.00  0.00    +0.000 A 
ATOM      6  C   UNL     1      22.081  20.585  -3.623  0.00  0.00    +0.000 A 
ATOM      7  C   UNL     1      22.741  21.813  -3.666  0.00  0.00    +0.000 A 
ATOM      8  C   UNL     1      21.536  20.064  -4.806  0.00  0.00    +0.000 A 
ATOM      9  C   UNL     1      22.849  22.522  -4.865  0.00  0.00    +0.000 A 
ATOM     10  C   UNL     1      21.644  20.767  -6.010  0.00  0.00    +0.000 A 
ATOM     11  C   UNL     1      22.299  21.994  -6.026  0.00  0.00    +0.000 A 
ENDROOT
BRANCH   4  12
ATOM     12  C   UNL     1      24.059  22.420  -0.307  0.00  0.00    +0.000 A 
ATOM     13  C   UNL     1      24.048  21.910   1.003  0.00  0.00    +0.000 A 
ATOM     14  C   UNL     1      24.774  23.601  -0.576  0.00  0.00    +0.000 A 
ATOM     15  C   UNL     1      24.718  22.591   2.014  0.00  0.00    +0.000 A 
ATOM     16  C   UNL     1      25.440  24.281   0.446  0.00  0.00    +0.000 A 
ATOM     17  C   UNL     1      25.402  23.770   1.733  0.00  0.00    +0.000 A 
BRANCH  15  18
ATOM     18  O   UNL     1      24.729  22.142   3.305  0.00  0.00    +0.000 OA
ATOM     19  H   UNL     1      23.832  22.234   3.671  0.00  0.00    +0.000 HD
ENDBRANCH  15  18
BRANCH  17  20
ATOM     20  O   UNL     1      26.050  24.437   2.733  0.00  0.00    +0.000 OA
ATOM     21  H   UNL     1      26.923  24.001   2.799  0.00  0.00    +0.000 HD
ENDBRANCH  17  20
ENDBRANCH   4  12
BRANCH   8  22
ATOM     22  O   UNL     1      20.910  18.851  -4.810  0.00  0.00    +0.000 OA
ATOM     23  H   UNL     1      20.837  18.490  -3.913  0.00  0.00    +0.000 HD
ENDBRANCH   8  22
BRANCH  11  24
ATOM     24  O   UNL     1      22.431  22.719  -7.172  0.00  0.00    +0.000 OA
ATOM     25  H   UNL     1      21.563  23.066  -7.438  0.00  0.00    +0.000 HD
ENDBRANCH  11  24
BRANCH   3  26
ATOM     26  O   UNL     1      22.796  19.804   0.011  0.00  0.00    +0.000 OA
BRANCH  26  32
ATOM     27  O   UNL     1      20.662  20.693   0.638  0.00  0.00    +0.000 OA
ATOM     28  C   UNL     1      22.009  19.630   2.955  0.00  0.00    +0.000 C 
ATOM     29  C   UNL     1      21.120  20.876   3.035  0.00  0.00    +0.000 C 
ATOM     30  C   UNL     1      21.575  18.720   1.805  0.00  0.00    +0.000 C 
ATOM     31  C   UNL     1      21.113  21.580   1.673  0.00  0.00    +0.000 C 
ATOM     32  C   UNL     1      21.472  19.524   0.490  0.00  0.00    +0.000 C 
ATOM     33  C   UNL     1      20.185  22.790   1.670  0.00  0.00    +0.000 C 
BRANCH  28  34
ATOM     34  O   UNL     1      21.915  18.922   4.206  0.00  0.00    +0.000 OA
ATOM     35  H   UNL     1      22.845  18.779   4.483  0.00  0.00    +0.000 HD
ENDBRANCH  28  34
BRANCH  29  36
ATOM     36  O   UNL     1      21.612  21.734   4.069  0.00  0.00    +0.000 OA
ATOM     37  H   UNL     1      22.565  21.530   4.145  0.00  0.00    +0.000 HD
ENDBRANCH  29  36
BRANCH  30  38
ATOM     38  O   UNL     1      20.313  18.125   2.179  0.00  0.00    +0.000 OA
ATOM     39  H   UNL     1      20.508  17.394   2.793  0.00  0.00    +0.000 HD
ENDBRANCH  30  38
ENDBRANCH  26  32
ENDBRANCH   3  26
TORSDOF 10
ENDMDL
MODEL 8
REMARK VINA RESULT:      -7.2     18.432     22.543
REMARK  Name = 
REMARK  11 active torsions:
REMARK  status: ('A' for Active; 'I' for Inactive)
REMARK    1  A    between atoms: O_2  and  C_16
REMARK    2  A    between atoms: O_2  and  C_18
REMARK    3  A    between atoms: O_3  and  C_12
REMARK    4  A    between atoms: O_4  and  C_13
REMARK    5  A    between atoms: O_5  and  C_14
REMARK    6  A    between atoms: O_8  and  C_24
REMARK    7  A    between atoms: O_9  and  C_29
REMARK    8  A    between atoms: O_10  and  C_30
REMARK    9  A    between atoms: O_11  and  C_32
REMARK   10  A    between atoms: C_15  and  C_17
REMARK   11  A    between atoms: C_19  and  C_23
REMARK                            x       y       z     vdW  Elec       q    Type
REMARK                         _______ _______ _______ _____ _____    ______ ____
ROOT
ATOM      1  O   UNL     1      16.266   3.507   8.040  0.00  0.00    +0.000 OA
ATOM      2  O   UNL     1      14.653   2.812   4.381  0.00  0.00    +0.000 OA
ATOM      3  C   UNL     1      14.901   2.106   6.621  0.00  0.00    +0.000 A 
ATOM      4  C   UNL     1      15.384   2.463   7.828  0.00  0.00    +0.000 A 
ATOM      5  C   UNL     1      15.244   2.957   5.445  0.00  0.00    +0.000 A 
ATOM      6  C   UNL     1      16.290   3.984   5.652  0.00  0.00    +0.000 A 
ATOM      7  C   UNL     1      16.732   4.204   6.956  0.00  0.00    +0.000 A 
ATOM      8  C   UNL     1      16.838   4.746   4.610  0.00  0.00    +0.000 A 
ATOM      9  C   UNL     1      17.698   5.176   7.226  0.00  0.00    +0.000 A 
ATOM     10  C   UNL     1      17.808   5.719   4.873  0.00  0.00    +0.000 A 
ATOM     11  C   UNL     1      18.227   5.925   6.184  0.00  0.00    +0.000 A 
ENDROOT
BRANCH   4  12
ATOM     12  C   UNL     1      15.040   1.744   9.073  0.00  0.00    +0.000 A 
ATOM     13  C   UNL     1      16.059   1.386   9.973  0.00  0.00    +0.000 A 
ATOM     14  C   UNL     1      13.707   1.416   9.381  0.00  0.00    +0.000 A 
ATOM     15  C   UNL     1      15.739   0.693  11.135  0.00  0.00    +0.000 A 
ATOM     16  C   UNL     1      13.396   0.716  10.549  0.00  0.00    +0.000 A 
ATOM     17  C   UNL     1      14.418   0.358  11.413  0.00  0.00    +0.000 A 
BRANCH  15  18
ATOM     18  O   UNL     1      16.695   0.314  12.037  0.00  0.00    +0.000 OA
ATOM     19  H   UNL     1      16.508   0.752  12.885  0.00  0.00    +0.000 HD
ENDBRANCH  15  18
BRANCH  17  20
ATOM     20  O   UNL     1      14.114  -0.330  12.552  0.00  0.00    +0.000 OA
ATOM     21  H   UNL     1      14.974  -0.663  12.881  0.00  0.00    +0.000 HD
ENDBRANCH  17  20
ENDBRANCH   4  12
BRANCH   8  22
ATOM     22  O   UNL     1      16.452   4.540   3.317  0.00  0.00    +0.000 OA
ATOM     23  H   UNL     1      17.058   3.933   2.863  0.00  0.00    +0.000 HD
ENDBRANCH   8  22
BRANCH  11  24
ATOM     24  O   UNL     1      19.168   6.861   6.493  0.00  0.00    +0.000 OA
ATOM     25  H   UNL     1      18.883   7.729   6.164  0.00  0.00    +0.000 HD
ENDBRANCH  11  24
BRANCH   3  26
ATOM     26  O   UNL     1      14.018   1.055   6.422  0.00  0.00    +0.000 OA
BRANCH  26  32
ATOM     27  O   UNL     1      14.560  -0.466   4.654  0.00  0.00    +0.000 OA
ATOM     28  C   UNL     1      12.821  -1.749   6.563  0.00  0.00    +0.000 C 
ATOM     29  C   UNL     1      12.732  -2.043   5.062  0.00  0.00    +0.000 C 
ATOM     30  C   UNL     1      14.231  -1.302   6.952  0.00  0.00    +0.000 C 
ATOM     31  C   UNL     1      13.219  -0.819   4.278  0.00  0.00    +0.000 C 
ATOM     32  C   UNL     1      14.702  -0.147   6.041  0.00  0.00    +0.000 C 
ATOM     33  C   UNL     1      13.223  -1.078   2.775  0.00  0.00    +0.000 C 
BRANCH  28  34
ATOM     34  O   UNL     1      12.466  -2.944   7.284  0.00  0.00    +0.000 OA
ATOM     35  H   UNL     1      11.533  -3.117   7.039  0.00  0.00    +0.000 HD
ENDBRANCH  28  34
BRANCH  29  36
ATOM     36  O   UNL     1      11.381  -2.377   4.731  0.00  0.00    +0.000 OA
ATOM     37  H   UNL     1      11.295  -3.332   4.923  0.00  0.00    +0.000 HD
ENDBRANCH  29  36
BRANCH  30  38
ATOM     38  O   UNL     1      15.091  -2.458   6.855  0.00  0.00    +0.000 OA
ATOM     39  H   UNL     1      15.649  -2.338   6.064  0.00  0.00    +0.000 HD
ENDBRANCH  30  38
ENDBRANCH  26  32
ENDBRANCH   3  26
TORSDOF 10
ENDMDL
MODEL 9
REMARK VINA RESULT:      -7.1     26.092     29.953
REMARK  Name = 
REMARK  11 active torsions:
REMARK  status: ('A' for Active; 'I' for Inactive)
REMARK    1  A    between atoms: O_2  and  C_16
REMARK    2  A    between atoms: O_2  and  C_18
REMARK    3  A    between atoms: O_3  and  C_12
REMARK    4  A    between atoms: O_4  and  C_13
REMARK    5  A    between atoms: O_5  and  C_14
REMARK    6  A    between atoms: O_8  and  C_24
REMARK    7  A    between atoms: O_9  and  C_29
REMARK    8  A    between atoms: O_10  and  C_30
REMARK    9  A    between atoms: O_11  and  C_32
REMARK   10  A    between atoms: C_15  and  C_17
REMARK   11  A    between atoms: C_19  and  C_23
REMARK                            x       y       z     vdW  Elec       q    Type
REMARK                         _______ _______ _______ _____ _____    ______ ____
ROOT
ATOM      1  O   UNL     1      27.249  -4.353  15.829  0.00  0.00    +0.000 OA
ATOM      2  O   UNL     1      24.118  -6.204  17.628  0.00  0.00    +0.000 OA
ATOM      3  C   UNL     1      24.865  -4.475  16.203  0.00  0.00    +0.000 A 
ATOM      4  C   UNL     1      25.944  -3.984  15.561  0.00  0.00    +0.000 A 
ATOM      5  C   UNL     1      25.073  -5.573  17.191  0.00  0.00    +0.000 A 
ATOM      6  C   UNL     1      26.474  -5.867  17.571  0.00  0.00    +0.000 A 
ATOM      7  C   UNL     1      27.487  -5.237  16.848  0.00  0.00    +0.000 A 
ATOM      8  C   UNL     1      26.823  -6.751  18.603  0.00  0.00    +0.000 A 
ATOM      9  C   UNL     1      28.830  -5.490  17.137  0.00  0.00    +0.000 A 
ATOM     10  C   UNL     1      28.166  -7.005  18.899  0.00  0.00    +0.000 A 
ATOM     11  C   UNL     1      29.158  -6.371  18.158  0.00  0.00    +0.000 A 
ENDROOT
BRANCH   4  12
ATOM     12  C   UNL     1      25.846  -2.957  14.503  0.00  0.00    +0.000 A 
ATOM     13  C   UNL     1      24.969  -1.871  14.667  0.00  0.00    +0.000 A 
ATOM     14  C   UNL     1      26.622  -3.039  13.332  0.00  0.00    +0.000 A 
ATOM     15  C   UNL     1      24.861  -0.914  13.664  0.00  0.00    +0.000 A 
ATOM     16  C   UNL     1      26.504  -2.075  12.328  0.00  0.00    +0.000 A 
ATOM     17  C   UNL     1      25.621  -1.023  12.503  0.00  0.00    +0.000 A 
BRANCH  15  18
ATOM     18  O   UNL     1      24.016   0.155  13.772  0.00  0.00    +0.000 OA
ATOM     19  H   UNL     1      23.493   0.218  12.954  0.00  0.00    +0.000 HD
ENDBRANCH  15  18
BRANCH  17  20
ATOM     20  O   UNL     1      25.503  -0.084  11.520  0.00  0.00    +0.000 OA
ATOM     21  H   UNL     1      25.272  -0.591  10.715  0.00  0.00    +0.000 HD
ENDBRANCH  17  20
ENDBRANCH   4  12
BRANCH   8  22
ATOM     22  O   UNL     1      25.860  -7.363  19.353  0.00  0.00    +0.000 OA
ATOM     23  H   UNL     1      26.208  -7.632  20.218  0.00  0.00    +0.000 HD
ENDBRANCH   8  22
BRANCH  11  24
ATOM     24  O   UNL     1      30.481  -6.584  18.406  0.00  0.00    +0.000 OA
ATOM     25  H   UNL     1      30.598  -6.859  19.330  0.00  0.00    +0.000 HD
ENDBRANCH  11  24
BRANCH   3  26
ATOM     26  O   UNL     1      23.561  -4.095  15.926  0.00  0.00    +0.000 OA
BRANCH  26  32
ATOM     27  O   UNL     1      22.702  -4.189  13.692  0.00  0.00    +0.000 OA
ATOM     28  C   UNL     1      20.570  -4.599  15.590  0.00  0.00    +0.000 C 
ATOM     29  C   UNL     1      20.350  -3.843  14.275  0.00  0.00    +0.000 C 
ATOM     30  C   UNL     1      21.718  -5.601  15.460  0.00  0.00    +0.000 C 
ATOM     31  C   UNL     1      21.670  -3.200  13.835  0.00  0.00    +0.000 C 
ATOM     32  C   UNL     1      22.979  -4.908  14.897  0.00  0.00    +0.000 C 
ATOM     33  C   UNL     1      21.531  -2.493  12.491  0.00  0.00    +0.000 C 
BRANCH  28  34
ATOM     34  O   UNL     1      19.351  -5.288  15.929  0.00  0.00    +0.000 OA
ATOM     35  H   UNL     1      19.159  -5.017  16.852  0.00  0.00    +0.000 HD
ENDBRANCH  28  34
BRANCH  29  36
ATOM     36  O   UNL     1      19.324  -2.864  14.466  0.00  0.00    +0.000 OA
ATOM     37  H   UNL     1      19.683  -2.035  14.092  0.00  0.00    +0.000 HD
ENDBRANCH  29  36
BRANCH  30  38
ATOM     38  O   UNL     1      21.261  -6.674  14.608  0.00  0.00    +0.000 OA
ATOM     39  H   UNL     1      20.757  -6.270  13.878  0.00  0.00    +0.000 HD
ENDBRANCH  30  38
ENDBRANCH  26  32
ENDBRANCH   3  26
TORSDOF 10
ENDMDL
