MODEL 1
REMARK VINA RESULT:      -7.4      0.000      0.000
REMARK  Name = 
REMARK  14 active torsions:
REMARK  status: ('A' for Active; 'I' for Inactive)
REMARK    1  A    between atoms: O_1  and  C_24
REMARK    2  A    between atoms: O_1  and  C_36
REMARK    3  A    between atoms: O_4  and  C_30
REMARK    4  A    between atoms: O_4  and  C_37
REMARK    5  A    between atoms: O_7  and  C_33
REMARK    6  A    between atoms: O_7  and  C_38
REMARK    7  A    between atoms: N_10  and  C_23
REMARK    8  A    between atoms: C_15  and  C_26
REMARK    9  A    between atoms: C_16  and  C_24
REMARK   10  A    between atoms: C_31  and  C_34
REMARK   11  A    between atoms: C_32  and  C_35
REMARK   12  A    between atoms: C_36  and  C_39
REMARK   13  A    between atoms: C_39  and  C_40
REMARK   14  A    between atoms: C_41  and  C_42
REMARK                            x       y       z     vdW  Elec       q    Type
REMARK                         _______ _______ _______ _____ _____    ______ ____
ROOT
ATOM      1  O   UNL     1      49.953  -0.940  13.769  0.00  0.00    +0.000 OA
ATOM      2  O   UNL     1      48.615   2.078   9.602  0.00  0.00    +0.000 OA
ATOM      3  O   UNL     1      46.822  -4.101  15.165  0.00  0.00    +0.000 OA
ATOM      4  O   UNL     1      42.127  -1.978  13.850  0.00  0.00    +0.000 OA
ATOM      5  N   UNL     1      45.568   0.497  13.413  0.00  0.00    +0.000 NA
ATOM      6  N   UNL     1      47.556   2.369  14.494  0.00  0.00    +0.000 NA
ATOM      7  C   UNL     1      46.593   0.086  14.408  0.00  0.00    +0.000 C 
ATOM      8  C   UNL     1      47.924   0.942  14.268  0.00  0.00    +0.000 C 
ATOM      9  C   UNL     1      46.647   2.807  13.404  0.00  0.00    +0.000 C 
ATOM     10  C   UNL     1      45.312   1.972  13.458  0.00  0.00    +0.000 C 
ATOM     11  C   UNL     1      44.325  -0.323  13.373  0.00  0.00    +0.000 C 
ATOM     12  C   UNL     1      46.886  -1.426  14.303  0.00  0.00    +0.000 C 
ATOM     13  C   UNL     1      47.313   2.696  12.005  0.00  0.00    +0.000 C 
ATOM     14  C   UNL     1      48.572   0.746  12.904  0.00  0.00    +0.000 C 
ATOM     15  C   UNL     1      48.271   1.539  11.865  0.00  0.00    +0.000 C 
ATOM     16  C   UNL     1      44.462  -1.725  13.946  0.00  0.00    +0.000 C 
ATOM     17  C   UNL     1      45.630  -2.241  14.348  0.00  0.00    +0.000 C 
ATOM     18  C   UNL     1      48.706   3.245  14.699  0.00  0.00    +0.000 C 
ATOM     19  C   UNL     1      49.596  -0.315  12.775  0.00  0.00    +0.000 C 
ATOM     20  C   UNL     1      48.893   1.339  10.540  0.00  0.00    +0.000 C 
ATOM     21  C   UNL     1      45.735  -3.628  14.851  0.00  0.00    +0.000 C 
ATOM     22  C   UNL     1      43.207  -2.507  14.095  0.00  0.00    +0.000 C 
ATOM     23  C   UNL     1      50.162  -0.585  11.413  0.00  0.00    +0.000 C 
ATOM     24  C   UNL     1      49.844   0.209  10.378  0.00  0.00    +0.000 C 
ATOM     25  C   UNL     1      44.494  -4.439  14.931  0.00  0.00    +0.000 C 
ATOM     26  C   UNL     1      43.309  -3.929  14.560  0.00  0.00    +0.000 C 
ATOM     27  C   UNL     1      50.404   0.049   8.994  0.00  0.00    +0.000 C 
ATOM     28  C   UNL     1      44.684  -5.837  15.445  0.00  0.00    +0.000 C 
ENDROOT
BRANCH  23  29
ATOM     29  O   UNL     1      51.070  -1.619  11.211  0.00  0.00    +0.000 OA
ATOM     30  C   UNL     1      50.500  -2.914  11.049  0.00  0.00    +0.000 C 
ENDBRANCH  23  29
BRANCH  26  31
ATOM     31  O   UNL     1      42.170  -4.720  14.675  0.00  0.00    +0.000 OA
ATOM     32  C   UNL     1      41.827  -5.456  13.503  0.00  0.00    +0.000 C 
ENDBRANCH  26  31
BRANCH  10  34
ATOM     33  N   UNL     1      43.882   2.809  15.530  0.00  0.00    +0.000 NA
ATOM     34  C   UNL     1      44.515   2.426  14.635  0.00  0.00    +0.000 C 
ENDBRANCH  10  34
BRANCH  11  35
ATOM     35  C   UNL     1      43.863  -0.398  11.887  0.00  0.00    +0.000 C 
BRANCH  35  36
ATOM     36  O   UNL     1      44.925  -0.962  11.089  0.00  0.00    +0.000 OA
BRANCH  36  38
ATOM     37  O   UNL     1      43.704  -2.836  10.595  0.00  0.00    +0.000 OA
ATOM     38  C   UNL     1      44.769  -2.271  10.779  0.00  0.00    +0.000 C 
BRANCH  38  39
ATOM     39  C   UNL     1      46.094  -2.918  10.554  0.00  0.00    +0.000 C 
ATOM     40  C   UNL     1      47.068  -2.038   9.822  0.00  0.00    +0.000 C 
ATOM     41  C   UNL     1      46.417  -4.168  10.939  0.00  0.00    +0.000 C 
ATOM     42  C   UNL     1      45.540  -5.198  11.580  0.00  0.00    +0.000 C 
ENDBRANCH  38  39
ENDBRANCH  36  38
ENDBRANCH  35  36
ENDBRANCH  11  35
TORSDOF 7
ENDMDL
MODEL 2
REMARK VINA RESULT:      -6.9      2.102      6.919
REMARK  Name = 
REMARK  14 active torsions:
REMARK  status: ('A' for Active; 'I' for Inactive)
REMARK    1  A    between atoms: O_1  and  C_24
REMARK    2  A    between atoms: O_1  and  C_36
REMARK    3  A    between atoms: O_4  and  C_30
REMARK    4  A    between atoms: O_4  and  C_37
REMARK    5  A    between atoms: O_7  and  C_33
REMARK    6  A    between atoms: O_7  and  C_38
REMARK    7  A    between atoms: N_10  and  C_23
REMARK    8  A    between atoms: C_15  and  C_26
REMARK    9  A    between atoms: C_16  and  C_24
REMARK   10  A    between atoms: C_31  and  C_34
REMARK   11  A    between atoms: C_32  and  C_35
REMARK   12  A    between atoms: C_36  and  C_39
REMARK   13  A    between atoms: C_39  and  C_40
REMARK   14  A    between atoms: C_41  and  C_42
REMARK                            x       y       z     vdW  Elec       q    Type
REMARK                         _______ _______ _______ _____ _____    ______ ____
ROOT
ATOM      1  O   UNL     1      43.820  -3.605   9.908  0.00  0.00    +0.000 OA
ATOM      2  O   UNL     1      42.704  -4.955  14.927  0.00  0.00    +0.000 OA
ATOM      3  O   UNL     1      48.282  -2.665   8.929  0.00  0.00    +0.000 OA
ATOM      4  O   UNL     1      50.269  -0.796  13.493  0.00  0.00    +0.000 OA
ATOM      5  N   UNL     1      46.058  -1.423  13.320  0.00  0.00    +0.000 NA
ATOM      6  N   UNL     1      43.340  -0.531  12.654  0.00  0.00    +0.000 NA
ATOM      7  C   UNL     1      45.596  -1.250  11.919  0.00  0.00    +0.000 C 
ATOM      8  C   UNL     1      44.037  -1.515  11.777  0.00  0.00    +0.000 C 
ATOM      9  C   UNL     1      43.697  -0.815  14.067  0.00  0.00    +0.000 C 
ATOM     10  C   UNL     1      45.244  -0.607  14.277  0.00  0.00    +0.000 C 
ATOM     11  C   UNL     1      47.526  -1.318  13.548  0.00  0.00    +0.000 C 
ATOM     12  C   UNL     1      46.408  -2.145  10.958  0.00  0.00    +0.000 C 
ATOM     13  C   UNL     1      43.267  -2.243  14.505  0.00  0.00    +0.000 C 
ATOM     14  C   UNL     1      43.679  -2.946  12.154  0.00  0.00    +0.000 C 
ATOM     15  C   UNL     1      43.348  -3.277  13.410  0.00  0.00    +0.000 C 
ATOM     16  C   UNL     1      48.385  -1.566  12.317  0.00  0.00    +0.000 C 
ATOM     17  C   UNL     1      47.884  -1.966  11.143  0.00  0.00    +0.000 C 
ATOM     18  C   UNL     1      41.904  -0.442  12.408  0.00  0.00    +0.000 C 
ATOM     19  C   UNL     1      43.646  -3.955  11.071  0.00  0.00    +0.000 C 
ATOM     20  C   UNL     1      43.012  -4.670  13.776  0.00  0.00    +0.000 C 
ATOM     21  C   UNL     1      48.755  -2.248   9.980  0.00  0.00    +0.000 C 
ATOM     22  C   UNL     1      49.839  -1.290  12.455  0.00  0.00    +0.000 C 
ATOM     23  C   UNL     1      43.399  -5.385  11.449  0.00  0.00    +0.000 C 
ATOM     24  C   UNL     1      43.080  -5.706  12.713  0.00  0.00    +0.000 C 
ATOM     25  C   UNL     1      50.216  -2.046  10.137  0.00  0.00    +0.000 C 
ATOM     26  C   UNL     1      50.736  -1.617  11.299  0.00  0.00    +0.000 C 
ATOM     27  C   UNL     1      42.762  -7.100  13.171  0.00  0.00    +0.000 C 
ATOM     28  C   UNL     1      51.033  -2.360   8.917  0.00  0.00    +0.000 C 
ENDROOT
BRANCH  23  29
ATOM     29  O   UNL     1      43.432  -6.392  10.490  0.00  0.00    +0.000 OA
ATOM     30  C   UNL     1      42.279  -6.483   9.657  0.00  0.00    +0.000 C 
ENDBRANCH  23  29
BRANCH  26  31
ATOM     31  O   UNL     1      52.110  -1.420  11.390  0.00  0.00    +0.000 OA
ATOM     32  C   UNL     1      52.544  -0.083  11.154  0.00  0.00    +0.000 C 
ENDBRANCH  26  31
BRANCH  10  34
ATOM     33  N   UNL     1      45.732   2.001  14.243  0.00  0.00    +0.000 NA
ATOM     34  C   UNL     1      45.534   0.857  14.244  0.00  0.00    +0.000 C 
ENDBRANCH  10  34
BRANCH  11  35
ATOM     35  C   UNL     1      47.899  -2.333  14.669  0.00  0.00    +0.000 C 
BRANCH  35  36
ATOM     36  O   UNL     1      47.123  -3.538  14.495  0.00  0.00    +0.000 OA
BRANCH  36  38
ATOM     37  O   UNL     1      48.163  -5.350  15.434  0.00  0.00    +0.000 OA
ATOM     38  C   UNL     1      47.848  -4.681  14.463  0.00  0.00    +0.000 C 
BRANCH  38  39
ATOM     39  C   UNL     1      48.103  -5.103  13.056  0.00  0.00    +0.000 C 
ATOM     40  C   UNL     1      46.854  -5.495  12.318  0.00  0.00    +0.000 C 
ATOM     41  C   UNL     1      49.318  -5.154  12.475  0.00  0.00    +0.000 C 
ATOM     42  C   UNL     1      50.655  -4.898  13.094  0.00  0.00    +0.000 C 
ENDBRANCH  38  39
ENDBRANCH  36  38
ENDBRANCH  35  36
ENDBRANCH  11  35
TORSDOF 7
ENDMDL
MODEL 3
REMARK VINA RESULT:      -6.7     33.952     36.692
REMARK  Name = 
REMARK  14 active torsions:
REMARK  status: ('A' for Active; 'I' for Inactive)
REMARK    1  A    between atoms: O_1  and  C_24
REMARK    2  A    between atoms: O_1  and  C_36
REMARK    3  A    between atoms: O_4  and  C_30
REMARK    4  A    between atoms: O_4  and  C_37
REMARK    5  A    between atoms: O_7  and  C_33
REMARK    6  A    between atoms: O_7  and  C_38
REMARK    7  A    between atoms: N_10  and  C_23
REMARK    8  A    between atoms: C_15  and  C_26
REMARK    9  A    between atoms: C_16  and  C_24
REMARK   10  A    between atoms: C_31  and  C_34
REMARK   11  A    between atoms: C_32  and  C_35
REMARK   12  A    between atoms: C_36  and  C_39
REMARK   13  A    between atoms: C_39  and  C_40
REMARK   14  A    between atoms: C_41  and  C_42
REMARK                            x       y       z     vdW  Elec       q    Type
REMARK                         _______ _______ _______ _____ _____    ______ ____
ROOT
ATOM      1  O   UNL     1      24.610  20.463   0.649  0.00  0.00    +0.000 OA
ATOM      2  O   UNL     1      22.576  23.866   4.191  0.00  0.00    +0.000 OA
ATOM      3  O   UNL     1      22.465  20.201  -3.483  0.00  0.00    +0.000 OA
ATOM      4  O   UNL     1      17.395  21.399  -2.417  0.00  0.00    +0.000 OA
ATOM      5  N   UNL     1      20.008  20.876   0.908  0.00  0.00    +0.000 NA
ATOM      6  N   UNL     1      21.360  19.180   2.888  0.00  0.00    +0.000 NA
ATOM      7  C   UNL     1      21.083  19.920   0.538  0.00  0.00    +0.000 C 
ATOM      8  C   UNL     1      22.121  19.715   1.722  0.00  0.00    +0.000 C 
ATOM      9  C   UNL     1      20.391  20.211   3.339  0.00  0.00    +0.000 C 
ATOM     10  C   UNL     1      19.345  20.494   2.196  0.00  0.00    +0.000 C 
ATOM     11  C   UNL     1      19.047  21.238  -0.172  0.00  0.00    +0.000 C 
ATOM     12  C   UNL     1      21.792  20.366  -0.759  0.00  0.00    +0.000 C 
ATOM     13  C   UNL     1      21.095  21.523   3.783  0.00  0.00    +0.000 C 
ATOM     14  C   UNL     1      22.830  21.015   2.073  0.00  0.00    +0.000 C 
ATOM     15  C   UNL     1      22.343  21.850   3.003  0.00  0.00    +0.000 C 
ATOM     16  C   UNL     1      19.560  21.018  -1.586  0.00  0.00    +0.000 C 
ATOM     17  C   UNL     1      20.816  20.645  -1.860  0.00  0.00    +0.000 C 
ATOM     18  C   UNL     1      22.211  18.655   3.951  0.00  0.00    +0.000 C 
ATOM     19  C   UNL     1      24.115  21.302   1.395  0.00  0.00    +0.000 C 
ATOM     20  C   UNL     1      23.028  23.118   3.332  0.00  0.00    +0.000 C 
ATOM     21  C   UNL     1      21.296  20.491  -3.251  0.00  0.00    +0.000 C 
ATOM     22  C   UNL     1      18.574  21.188  -2.684  0.00  0.00    +0.000 C 
ATOM     23  C   UNL     1      24.767  22.627   1.655  0.00  0.00    +0.000 C 
ATOM     24  C   UNL     1      24.263  23.460   2.581  0.00  0.00    +0.000 C 
ATOM     25  C   UNL     1      20.333  20.735  -4.354  0.00  0.00    +0.000 C 
ATOM     26  C   UNL     1      19.061  21.082  -4.099  0.00  0.00    +0.000 C 
ATOM     27  C   UNL     1      24.878  24.780   2.946  0.00  0.00    +0.000 C 
ATOM     28  C   UNL     1      20.897  20.566  -5.735  0.00  0.00    +0.000 C 
ENDROOT
BRANCH  23  29
ATOM     29  O   UNL     1      25.935  22.989   0.992  0.00  0.00    +0.000 OA
ATOM     30  C   UNL     1      25.762  23.465  -0.340  0.00  0.00    +0.000 C 
ENDBRANCH  23  29
BRANCH  26  31
ATOM     31  O   UNL     1      18.190  21.276  -5.165  0.00  0.00    +0.000 OA
ATOM     32  C   UNL     1      17.998  22.637  -5.547  0.00  0.00    +0.000 C 
ENDBRANCH  26  31
BRANCH  10  34
ATOM     33  N   UNL     1      17.678  18.439   2.015  0.00  0.00    +0.000 NA
ATOM     34  C   UNL     1      18.424  19.324   2.094  0.00  0.00    +0.000 C 
ENDBRANCH  10  34
BRANCH  11  35
ATOM     35  C   UNL     1      18.661  22.734   0.028  0.00  0.00    +0.000 C 
BRANCH  35  36
ATOM     36  O   UNL     1      19.713  23.401   0.758  0.00  0.00    +0.000 OA
BRANCH  36  38
ATOM     37  O   UNL     1      18.877  25.485   0.307  0.00  0.00    +0.000 OA
ATOM     38  C   UNL     1      19.811  24.731   0.525  0.00  0.00    +0.000 C 
BRANCH  38  39
ATOM     39  C   UNL     1      21.217  25.193   0.706  0.00  0.00    +0.000 C 
ATOM     40  C   UNL     1      21.394  26.107   1.886  0.00  0.00    +0.000 C 
ATOM     41  C   UNL     1      22.248  24.860  -0.095  0.00  0.00    +0.000 C 
ATOM     42  C   UNL     1      22.221  24.053  -1.355  0.00  0.00    +0.000 C 
ENDBRANCH  38  39
ENDBRANCH  36  38
ENDBRANCH  35  36
ENDBRANCH  11  35
TORSDOF 7
ENDMDL
MODEL 4
REMARK VINA RESULT:      -6.4      3.697      7.665
REMARK  Name = 
REMARK  14 active torsions:
REMARK  status: ('A' for Active; 'I' for Inactive)
REMARK    1  A    between atoms: O_1  and  C_24
REMARK    2  A    between atoms: O_1  and  C_36
REMARK    3  A    between atoms: O_4  and  C_30
REMARK    4  A    between atoms: O_4  and  C_37
REMARK    5  A    between atoms: O_7  and  C_33
REMARK    6  A    between atoms: O_7  and  C_38
REMARK    7  A    between atoms: N_10  and  C_23
REMARK    8  A    between atoms: C_15  and  C_26
REMARK    9  A    between atoms: C_16  and  C_24
REMARK   10  A    between atoms: C_31  and  C_34
REMARK   11  A    between atoms: C_32  and  C_35
REMARK   12  A    between atoms: C_36  and  C_39
REMARK   13  A    between atoms: C_39  and  C_40
REMARK   14  A    between atoms: C_41  and  C_42
REMARK                            x       y       z     vdW  Elec       q    Type
REMARK                         _______ _______ _______ _____ _____    ______ ____
ROOT
ATOM      1  O   UNL     1      43.367  -4.279  10.329  0.00  0.00    +0.000 OA
ATOM      2  O   UNL     1      45.059  -2.576  15.073  0.00  0.00    +0.000 OA
ATOM      3  O   UNL     1      45.775  -7.754   8.363  0.00  0.00    +0.000 OA
ATOM      4  O   UNL     1      50.725  -7.137  10.206  0.00  0.00    +0.000 OA
ATOM      5  N   UNL     1      47.927  -4.045  11.082  0.00  0.00    +0.000 NA
ATOM      6  N   UNL     1      46.510  -1.570  10.380  0.00  0.00    +0.000 NA
ATOM      7  C   UNL     1      46.910  -3.987  10.000  0.00  0.00    +0.000 C 
ATOM      8  C   UNL     1      45.807  -2.882  10.289  0.00  0.00    +0.000 C 
ATOM      9  C   UNL     1      47.414  -1.593  11.558  0.00  0.00    +0.000 C 
ATOM     10  C   UNL     1      48.519  -2.697  11.358  0.00  0.00    +0.000 C 
ATOM     11  C   UNL     1      48.941  -5.131  10.974  0.00  0.00    +0.000 C 
ATOM     12  C   UNL     1      46.269  -5.373   9.774  0.00  0.00    +0.000 C 
ATOM     13  C   UNL     1      46.640  -1.820  12.886  0.00  0.00    +0.000 C 
ATOM     14  C   UNL     1      45.034  -3.186  11.564  0.00  0.00    +0.000 C 
ATOM     15  C   UNL     1      45.433  -2.715  12.755  0.00  0.00    +0.000 C 
ATOM     16  C   UNL     1      48.525  -6.314  10.113  0.00  0.00    +0.000 C 
ATOM     17  C   UNL     1      47.303  -6.441   9.584  0.00  0.00    +0.000 C 
ATOM     18  C   UNL     1      45.612  -0.420  10.340  0.00  0.00    +0.000 C 
ATOM     19  C   UNL     1      43.785  -3.972  11.441  0.00  0.00    +0.000 C 
ATOM     20  C   UNL     1      44.687  -3.022  13.993  0.00  0.00    +0.000 C 
ATOM     21  C   UNL     1      46.917  -7.631   8.795  0.00  0.00    +0.000 C 
ATOM     22  C   UNL     1      49.573  -7.329   9.829  0.00  0.00    +0.000 C 
ATOM     23  C   UNL     1      43.074  -4.366  12.701  0.00  0.00    +0.000 C 
ATOM     24  C   UNL     1      43.490  -3.897  13.889  0.00  0.00    +0.000 C 
ATOM     25  C   UNL     1      47.938  -8.684   8.572  0.00  0.00    +0.000 C 
ATOM     26  C   UNL     1      49.179  -8.561   9.070  0.00  0.00    +0.000 C 
ATOM     27  C   UNL     1      42.810  -4.194  15.193  0.00  0.00    +0.000 C 
ATOM     28  C   UNL     1      47.468  -9.862   7.768  0.00  0.00    +0.000 C 
ENDROOT
BRANCH  23  29
ATOM     29  O   UNL     1      41.939  -5.169  12.658  0.00  0.00    +0.000 OA
ATOM     30  C   UNL     1      42.182  -6.570  12.565  0.00  0.00    +0.000 C 
ENDBRANCH  23  29
BRANCH  26  31
ATOM     31  O   UNL     1      50.109  -9.563   8.815  0.00  0.00    +0.000 OA
ATOM     32  C   UNL     1      50.976  -9.315   7.709  0.00  0.00    +0.000 C 
ENDBRANCH  26  31
BRANCH  10  34
ATOM     33  N   UNL     1      50.227  -1.815   9.529  0.00  0.00    +0.000 NA
ATOM     34  C   UNL     1      49.483  -2.222  10.323  0.00  0.00    +0.000 C 
ENDBRANCH  10  34
BRANCH  11  35
ATOM     35  C   UNL     1      49.263  -5.613  12.420  0.00  0.00    +0.000 C 
BRANCH  35  36
ATOM     36  O   UNL     1      50.272  -4.754  12.992  0.00  0.00    +0.000 OA
BRANCH  36  38
ATOM     37  O   UNL     1      50.996  -5.459  15.048  0.00  0.00    +0.000 OA
ATOM     38  C   UNL     1      50.306  -4.739  14.345  0.00  0.00    +0.000 C 
BRANCH  38  39
ATOM     39  C   UNL     1      49.479  -3.619  14.878  0.00  0.00    +0.000 C 
ATOM     40  C   UNL     1      50.122  -2.272  14.709  0.00  0.00    +0.000 C 
ATOM     41  C   UNL     1      48.277  -3.763  15.473  0.00  0.00    +0.000 C 
ATOM     42  C   UNL     1      47.552  -5.028  15.807  0.00  0.00    +0.000 C 
ENDBRANCH  38  39
ENDBRANCH  36  38
ENDBRANCH  35  36
ENDBRANCH  11  35
TORSDOF 7
ENDMDL
MODEL 5
REMARK VINA RESULT:      -6.4     18.264     22.834
REMARK  Name = 
REMARK  14 active torsions:
REMARK  status: ('A' for Active; 'I' for Inactive)
REMARK    1  A    between atoms: O_1  and  C_24
REMARK    2  A    between atoms: O_1  and  C_36
REMARK    3  A    between atoms: O_4  and  C_30
REMARK    4  A    between atoms: O_4  and  C_37
REMARK    5  A    between atoms: O_7  and  C_33
REMARK    6  A    between atoms: O_7  and  C_38
REMARK    7  A    between atoms: N_10  and  C_23
REMARK    8  A    between atoms: C_15  and  C_26
REMARK    9  A    between atoms: C_16  and  C_24
REMARK   10  A    between atoms: C_31  and  C_34
REMARK   11  A    between atoms: C_32  and  C_35
REMARK   12  A    between atoms: C_36  and  C_39
REMARK   13  A    between atoms: C_39  and  C_40
REMARK   14  A    between atoms: C_41  and  C_42
REMARK                            x       y       z     vdW  Elec       q    Type
REMARK                         _______ _______ _______ _____ _____    ______ ____
ROOT
ATOM      1  O   UNL     1      21.965  -7.005  16.667  0.00  0.00    +0.000 OA
ATOM      2  O   UNL     1      23.719  -3.534  20.292  0.00  0.00    +0.000 OA
ATOM      3  O   UNL     1      24.839  -7.972  13.124  0.00  0.00    +0.000 OA
ATOM      4  O   UNL     1      27.706  -3.538  12.502  0.00  0.00    +0.000 OA
ATOM      5  N   UNL     1      24.425  -3.364  15.215  0.00  0.00    +0.000 NA
ATOM      6  N   UNL     1      21.574  -2.967  15.796  0.00  0.00    +0.000 NA
ATOM      7  C   UNL     1      23.380  -4.327  14.778  0.00  0.00    +0.000 C 
ATOM      8  C   UNL     1      22.144  -4.344  15.775  0.00  0.00    +0.000 C 
ATOM      9  C   UNL     1      22.580  -2.042  16.376  0.00  0.00    +0.000 C 
ATOM     10  C   UNL     1      23.856  -1.999  15.454  0.00  0.00    +0.000 C 
ATOM     11  C   UNL     1      25.684  -3.354  14.419  0.00  0.00    +0.000 C 
ATOM     12  C   UNL     1      23.975  -5.739  14.597  0.00  0.00    +0.000 C 
ATOM     13  C   UNL     1      22.962  -2.429  17.831  0.00  0.00    +0.000 C 
ATOM     14  C   UNL     1      22.560  -4.793  17.169  0.00  0.00    +0.000 C 
ATOM     15  C   UNL     1      22.955  -3.912  18.100  0.00  0.00    +0.000 C 
ATOM     16  C   UNL     1      25.955  -4.626  13.630  0.00  0.00    +0.000 C 
ATOM     17  C   UNL     1      25.194  -5.723  13.725  0.00  0.00    +0.000 C 
ATOM     18  C   UNL     1      20.259  -2.888  16.425  0.00  0.00    +0.000 C 
ATOM     19  C   UNL     1      22.455  -6.236  17.487  0.00  0.00    +0.000 C 
ATOM     20  C   UNL     1      23.368  -4.353  19.449  0.00  0.00    +0.000 C 
ATOM     21  C   UNL     1      25.517  -6.961  12.982  0.00  0.00    +0.000 C 
ATOM     22  C   UNL     1      27.098  -4.588  12.682  0.00  0.00    +0.000 C 
ATOM     23  C   UNL     1      22.961  -6.701  18.820  0.00  0.00    +0.000 C 
ATOM     24  C   UNL     1      23.365  -5.810  19.740  0.00  0.00    +0.000 C 
ATOM     25  C   UNL     1      26.703  -6.951  12.091  0.00  0.00    +0.000 C 
ATOM     26  C   UNL     1      27.462  -5.851  11.959  0.00  0.00    +0.000 C 
ATOM     27  C   UNL     1      23.834  -6.179  21.117  0.00  0.00    +0.000 C 
ATOM     28  C   UNL     1      26.969  -8.245  11.377  0.00  0.00    +0.000 C 
ENDROOT
BRANCH  23  29
ATOM     29  O   UNL     1      22.962  -8.052  19.150  0.00  0.00    +0.000 OA
ATOM     30  C   UNL     1      24.113  -8.784  18.737  0.00  0.00    +0.000 C 
ENDBRANCH  23  29
BRANCH  26  31
ATOM     31  O   UNL     1      28.551  -5.884  11.094  0.00  0.00    +0.000 OA
ATOM     32  C   UNL     1      29.801  -6.186  11.709  0.00  0.00    +0.000 C 
ENDBRANCH  26  31
BRANCH  10  34
ATOM     33  N   UNL     1      23.241  -0.628  13.267  0.00  0.00    +0.000 NA
ATOM     34  C   UNL     1      23.520  -1.243  14.212  0.00  0.00    +0.000 C 
ENDBRANCH  10  34
BRANCH  11  35
ATOM     35  C   UNL     1      26.858  -3.082  15.407  0.00  0.00    +0.000 C 
BRANCH  35  36
ATOM     36  O   UNL     1      26.865  -4.102  16.427  0.00  0.00    +0.000 OA
BRANCH  36  38
ATOM     37  O   UNL     1      29.039  -4.618  15.924  0.00  0.00    +0.000 OA
ATOM     38  C   UNL     1      27.966  -4.889  16.437  0.00  0.00    +0.000 C 
BRANCH  38  39
ATOM     39  C   UNL     1      27.741  -6.096  17.284  0.00  0.00    +0.000 C 
ATOM     40  C   UNL     1      26.365  -6.680  17.131  0.00  0.00    +0.000 C 
ATOM     41  C   UNL     1      28.650  -6.629  18.124  0.00  0.00    +0.000 C 
ATOM     42  C   UNL     1      30.014  -6.115  18.464  0.00  0.00    +0.000 C 
ENDBRANCH  38  39
ENDBRANCH  36  38
ENDBRANCH  35  36
ENDBRANCH  11  35
TORSDOF 7
ENDMDL
MODEL 6
REMARK VINA RESULT:      -6.3     34.269     37.261
REMARK  Name = 
REMARK  14 active torsions:
REMARK  status: ('A' for Active; 'I' for Inactive)
REMARK    1  A    between atoms: O_1  and  C_24
REMARK    2  A    between atoms: O_1  and  C_36
REMARK    3  A    between atoms: O_4  and  C_30
REMARK    4  A    between atoms: O_4  and  C_37
REMARK    5  A    between atoms: O_7  and  C_33
REMARK    6  A    between atoms: O_7  and  C_38
REMARK    7  A    between atoms: N_10  and  C_23
REMARK    8  A    between atoms: C_15  and  C_26
REMARK    9  A    between atoms: C_16  and  C_24
REMARK   10  A    between atoms: C_31  and  C_34
REMARK   11  A    between atoms: C_32  and  C_35
REMARK   12  A    between atoms: C_36  and  C_39
REMARK   13  A    between atoms: C_39  and  C_40
REMARK   14  A    between atoms: C_41  and  C_42
REMARK                            x       y       z     vdW  Elec       q    Type
REMARK                         _______ _______ _______ _____ _____    ______ ____
ROOT
ATOM      1  O   UNL     1      22.719  25.812  -1.884  0.00  0.00    +0.000 OA
ATOM      2  O   UNL     1      27.108  23.093  -0.615  0.00  0.00    +0.000 OA
ATOM      3  O   UNL     1      20.938  28.584   1.416  0.00  0.00    +0.000 OA
ATOM      4  O   UNL     1      22.300  26.236   5.988  0.00  0.00    +0.000 OA
ATOM      5  N   UNL     1      23.073  24.082   2.393  0.00  0.00    +0.000 NA
ATOM      6  N   UNL     1      22.234  22.277   0.234  0.00  0.00    +0.000 NA
ATOM      7  C   UNL     1      22.076  24.478   1.364  0.00  0.00    +0.000 C 
ATOM      8  C   UNL     1      22.337  23.743  -0.019  0.00  0.00    +0.000 C 
ATOM      9  C   UNL     1      23.331  21.872   1.149  0.00  0.00    +0.000 C 
ATOM     10  C   UNL     1      23.158  22.594   2.538  0.00  0.00    +0.000 C 
ATOM     11  C   UNL     1      22.997  24.804   3.694  0.00  0.00    +0.000 C 
ATOM     12  C   UNL     1      22.048  26.011   1.188  0.00  0.00    +0.000 C 
ATOM     13  C   UNL     1      24.734  22.161   0.546  0.00  0.00    +0.000 C 
ATOM     14  C   UNL     1      23.695  24.111  -0.599  0.00  0.00    +0.000 C 
ATOM     15  C   UNL     1      24.794  23.395  -0.319  0.00  0.00    +0.000 C 
ATOM     16  C   UNL     1      22.301  26.155   3.639  0.00  0.00    +0.000 C 
ATOM     17  C   UNL     1      21.888  26.720   2.498  0.00  0.00    +0.000 C 
ATOM     18  C   UNL     1      22.148  21.477  -0.984  0.00  0.00    +0.000 C 
ATOM     19  C   UNL     1      23.755  25.255  -1.537  0.00  0.00    +0.000 C 
ATOM     20  C   UNL     1      26.114  23.763  -0.874  0.00  0.00    +0.000 C 
ATOM     21  C   UNL     1      21.260  28.060   2.476  0.00  0.00    +0.000 C 
ATOM     22  C   UNL     1      22.040  26.821   4.942  0.00  0.00    +0.000 C 
ATOM     23  C   UNL     1      25.104  25.691  -2.030  0.00  0.00    +0.000 C 
ATOM     24  C   UNL     1      26.198  24.972  -1.733  0.00  0.00    +0.000 C 
ATOM     25  C   UNL     1      21.067  28.762   3.769  0.00  0.00    +0.000 C 
ATOM     26  C   UNL     1      21.447  28.199   4.927  0.00  0.00    +0.000 C 
ATOM     27  C   UNL     1      27.577  25.301  -2.226  0.00  0.00    +0.000 C 
ATOM     28  C   UNL     1      20.430  30.118   3.663  0.00  0.00    +0.000 C 
ENDROOT
BRANCH  23  29
ATOM     29  O   UNL     1      25.236  26.805  -2.852  0.00  0.00    +0.000 OA
ATOM     30  C   UNL     1      24.946  26.588  -4.230  0.00  0.00    +0.000 C 
ENDBRANCH  23  29
BRANCH  26  31
ATOM     31  O   UNL     1      21.223  28.886   6.115  0.00  0.00    +0.000 OA
ATOM     32  C   UNL     1      20.043  28.505   6.819  0.00  0.00    +0.000 C 
ENDBRANCH  26  31
BRANCH  10  34
ATOM     33  N   UNL     1      21.128  21.495   3.845  0.00  0.00    +0.000 NA
ATOM     34  C   UNL     1      22.005  21.975   3.255  0.00  0.00    +0.000 C 
ENDBRANCH  10  34
BRANCH  11  35
ATOM     35  C   UNL     1      24.455  24.979   4.216  0.00  0.00    +0.000 C 
BRANCH  35  36
ATOM     36  O   UNL     1      25.338  25.187   3.094  0.00  0.00    +0.000 OA
BRANCH  36  38
ATOM     37  O   UNL     1      27.307  26.208   3.666  0.00  0.00    +0.000 OA
ATOM     38  C   UNL     1      26.174  26.245   3.217  0.00  0.00    +0.000 C 
BRANCH  38  39
ATOM     39  C   UNL     1      25.575  27.462   2.598  0.00  0.00    +0.000 C 
ATOM     40  C   UNL     1      25.558  27.419   1.096  0.00  0.00    +0.000 C 
ATOM     41  C   UNL     1      25.099  28.521   3.283  0.00  0.00    +0.000 C 
ATOM     42  C   UNL     1      25.133  28.764   4.759  0.00  0.00    +0.000 C 
ENDBRANCH  38  39
ENDBRANCH  36  38
ENDBRANCH  35  36
ENDBRANCH  11  35
TORSDOF 7
ENDMDL
MODEL 7
REMARK VINA RESULT:      -5.5      3.450      7.540
REMARK  Name = 
REMARK  14 active torsions:
REMARK  status: ('A' for Active; 'I' for Inactive)
REMARK    1  A    between atoms: O_1  and  C_24
REMARK    2  A    between atoms: O_1  and  C_36
REMARK    3  A    between atoms: O_4  and  C_30
REMARK    4  A    between atoms: O_4  and  C_37
REMARK    5  A    between atoms: O_7  and  C_33
REMARK    6  A    between atoms: O_7  and  C_38
REMARK    7  A    between atoms: N_10  and  C_23
REMARK    8  A    between atoms: C_15  and  C_26
REMARK    9  A    between atoms: C_16  and  C_24
REMARK   10  A    between atoms: C_31  and  C_34
REMARK   11  A    between atoms: C_32  and  C_35
REMARK   12  A    between atoms: C_36  and  C_39
REMARK   13  A    between atoms: C_39  and  C_40
REMARK   14  A    between atoms: C_41  and  C_42
REMARK                            x       y       z     vdW  Elec       q    Type
REMARK                         _______ _______ _______ _____ _____    ______ ____
ROOT
ATOM      1  O   UNL     1      45.066  -4.948   9.982  0.00  0.00    +0.000 OA
ATOM      2  O   UNL     1      44.198  -2.686  14.715  0.00  0.00    +0.000 OA
ATOM      3  O   UNL     1      48.808  -7.707   9.628  0.00  0.00    +0.000 OA
ATOM      4  O   UNL     1      52.259  -5.708  13.144  0.00  0.00    +0.000 OA
ATOM      5  N   UNL     1      48.714  -3.462  12.410  0.00  0.00    +0.000 NA
ATOM      6  N   UNL     1      47.181  -1.489  10.866  0.00  0.00    +0.000 NA
ATOM      7  C   UNL     1      48.253  -3.719  11.021  0.00  0.00    +0.000 C 
ATOM      8  C   UNL     1      46.905  -2.944  10.697  0.00  0.00    +0.000 C 
ATOM      9  C   UNL     1      47.495  -1.226  12.294  0.00  0.00    +0.000 C 
ATOM     10  C   UNL     1      48.808  -1.995  12.700  0.00  0.00    +0.000 C 
ATOM     11  C   UNL     1      49.904  -4.235  12.862  0.00  0.00    +0.000 C 
ATOM     12  C   UNL     1      48.105  -5.234  10.763  0.00  0.00    +0.000 C 
ATOM     13  C   UNL     1      46.317  -1.607  13.233  0.00  0.00    +0.000 C 
ATOM     14  C   UNL     1      45.768  -3.402  11.599  0.00  0.00    +0.000 C 
ATOM     15  C   UNL     1      45.517  -2.799  12.771  0.00  0.00    +0.000 C 
ATOM     16  C   UNL     1      50.170  -5.516  12.086  0.00  0.00    +0.000 C 
ATOM     17  C   UNL     1      49.342  -5.988  11.146  0.00  0.00    +0.000 C 
ATOM     18  C   UNL     1      46.138  -0.628  10.316  0.00  0.00    +0.000 C 
ATOM     19  C   UNL     1      44.903  -4.501  11.113  0.00  0.00    +0.000 C 
ATOM     20  C   UNL     1      44.420  -3.253  13.651  0.00  0.00    +0.000 C 
ATOM     21  C   UNL     1      49.605  -7.265  10.447  0.00  0.00    +0.000 C 
ATOM     22  C   UNL     1      51.446  -6.218  12.380  0.00  0.00    +0.000 C 
ATOM     23  C   UNL     1      43.848  -5.029  12.039  0.00  0.00    +0.000 C 
ATOM     24  C   UNL     1      43.614  -4.423  13.215  0.00  0.00    +0.000 C 
ATOM     25  C   UNL     1      50.842  -8.009  10.793  0.00  0.00    +0.000 C 
ATOM     26  C   UNL     1      51.700  -7.537  11.712  0.00  0.00    +0.000 C 
ATOM     27  C   UNL     1      42.545  -4.847  14.179  0.00  0.00    +0.000 C 
ATOM     28  C   UNL     1      51.035  -9.297  10.047  0.00  0.00    +0.000 C 
ENDROOT
BRANCH  23  29
ATOM     29  O   UNL     1      43.054  -6.110  11.672  0.00  0.00    +0.000 OA
ATOM     30  C   UNL     1      41.944  -5.799  10.833  0.00  0.00    +0.000 C 
ENDBRANCH  23  29
BRANCH  26  31
ATOM     31  O   UNL     1      52.858  -8.258  11.985  0.00  0.00    +0.000 OA
ATOM     32  C   UNL     1      54.015  -7.835  11.267  0.00  0.00    +0.000 C 
ENDBRANCH  26  31
BRANCH  10  34
ATOM     33  N   UNL     1      50.867  -0.792  11.538  0.00  0.00    +0.000 NA
ATOM     34  C   UNL     1      49.973  -1.312  12.066  0.00  0.00    +0.000 C 
ENDBRANCH  10  34
BRANCH  11  35
ATOM     35  C   UNL     1      49.702  -4.562  14.372  0.00  0.00    +0.000 C 
BRANCH  35  36
ATOM     36  O   UNL     1      48.337  -4.977  14.589  0.00  0.00    +0.000 OA
BRANCH  36  38
ATOM     37  O   UNL     1      47.341  -3.368  15.879  0.00  0.00    +0.000 OA
ATOM     38  C   UNL     1      47.770  -4.499  15.721  0.00  0.00    +0.000 C 
BRANCH  38  39
ATOM     39  C   UNL     1      47.611  -5.586  16.729  0.00  0.00    +0.000 C 
ATOM     40  C   UNL     1      48.870  -5.874  17.497  0.00  0.00    +0.000 C 
ATOM     41  C   UNL     1      46.473  -6.276  16.946  0.00  0.00    +0.000 C 
ATOM     42  C   UNL     1      45.176  -6.184  16.206  0.00  0.00    +0.000 C 
ENDBRANCH  38  39
ENDBRANCH  36  38
ENDBRANCH  35  36
ENDBRANCH  11  35
TORSDOF 7
ENDMDL
MODEL 8
REMARK VINA RESULT:      -5.1     40.091     42.820
REMARK  Name = 
REMARK  14 active torsions:
REMARK  status: ('A' for Active; 'I' for Inactive)
REMARK    1  A    between atoms: O_1  and  C_24
REMARK    2  A    between atoms: O_1  and  C_36
REMARK    3  A    between atoms: O_4  and  C_30
REMARK    4  A    between atoms: O_4  and  C_37
REMARK    5  A    between atoms: O_7  and  C_33
REMARK    6  A    between atoms: O_7  and  C_38
REMARK    7  A    between atoms: N_10  and  C_23
REMARK    8  A    between atoms: C_15  and  C_26
REMARK    9  A    between atoms: C_16  and  C_24
REMARK   10  A    between atoms: C_31  and  C_34
REMARK   11  A    between atoms: C_32  and  C_35
REMARK   12  A    between atoms: C_36  and  C_39
REMARK   13  A    between atoms: C_39  and  C_40
REMARK   14  A    between atoms: C_41  and  C_42
REMARK                            x       y       z     vdW  Elec       q    Type
REMARK                         _______ _______ _______ _____ _____    ______ ____
ROOT
ATOM      1  O   UNL     1      20.085  32.476  27.124  0.00  0.00    +0.000 OA
ATOM      2  O   UNL     1      21.292  28.373  23.965  0.00  0.00    +0.000 OA
ATOM      3  O   UNL     1      23.485  35.558  27.953  0.00  0.00    +0.000 OA
ATOM      4  O   UNL     1      27.962  32.709  27.612  0.00  0.00    +0.000 OA
ATOM      5  N   UNL     1      24.282  30.564  27.511  0.00  0.00    +0.000 NA
ATOM      6  N   UNL     1      22.027  29.240  28.849  0.00  0.00    +0.000 NA
ATOM      7  C   UNL     1      23.257  31.316  28.281  0.00  0.00    +0.000 C 
ATOM      8  C   UNL     1      21.845  30.591  28.245  0.00  0.00    +0.000 C 
ATOM      9  C   UNL     1      22.939  28.449  27.984  0.00  0.00    +0.000 C 
ATOM     10  C   UNL     1      24.358  29.131  27.942  0.00  0.00    +0.000 C 
ATOM     11  C   UNL     1      25.614  31.216  27.375  0.00  0.00    +0.000 C 
ATOM     12  C   UNL     1      23.153  32.772  27.780  0.00  0.00    +0.000 C 
ATOM     13  C   UNL     1      22.371  28.264  26.549  0.00  0.00    +0.000 C 
ATOM     14  C   UNL     1      21.304  30.495  26.825  0.00  0.00    +0.000 C 
ATOM     15  C   UNL     1      21.567  29.436  26.045  0.00  0.00    +0.000 C 
ATOM     16  C   UNL     1      25.612  32.725  27.568  0.00  0.00    +0.000 C 
ATOM     17  C   UNL     1      24.493  33.441  27.728  0.00  0.00    +0.000 C 
ATOM     18  C   UNL     1      20.772  28.566  29.166  0.00  0.00    +0.000 C 
ATOM     19  C   UNL     1      20.422  31.585  26.350  0.00  0.00    +0.000 C 
ATOM     20  C   UNL     1      21.050  29.352  24.663  0.00  0.00    +0.000 C 
ATOM     21  C   UNL     1      24.524  34.915  27.861  0.00  0.00    +0.000 C 
ATOM     22  C   UNL     1      26.940  33.389  27.625  0.00  0.00    +0.000 C 
ATOM     23  C   UNL     1      19.970  31.553  24.920  0.00  0.00    +0.000 C 
ATOM     24  C   UNL     1      20.250  30.492  24.146  0.00  0.00    +0.000 C 
ATOM     25  C   UNL     1      25.846  35.590  27.842  0.00  0.00    +0.000 C 
ATOM     26  C   UNL     1      26.981  34.886  27.712  0.00  0.00    +0.000 C 
ATOM     27  C   UNL     1      19.794  30.348  22.723  0.00  0.00    +0.000 C 
ATOM     28  C   UNL     1      25.794  37.085  27.975  0.00  0.00    +0.000 C 
ENDROOT
BRANCH  23  29
ATOM     29  O   UNL     1      19.204  32.586  24.392  0.00  0.00    +0.000 OA
ATOM     30  C   UNL     1      17.809  32.522  24.675  0.00  0.00    +0.000 C 
ENDBRANCH  23  29
BRANCH  26  31
ATOM     31  O   UNL     1      28.197  35.561  27.724  0.00  0.00    +0.000 OA
ATOM     32  C   UNL     1      28.766  35.801  26.438  0.00  0.00    +0.000 C 
ENDBRANCH  26  31
BRANCH  10  34
ATOM     33  N   UNL     1      25.514  28.736  30.297  0.00  0.00    +0.000 NA
ATOM     34  C   UNL     1      25.027  28.916  29.258  0.00  0.00    +0.000 C 
ENDBRANCH  10  34
BRANCH  11  35
ATOM     35  C   UNL     1      26.165  30.862  25.962  0.00  0.00    +0.000 C 
BRANCH  35  36
ATOM     36  O   UNL     1      25.081  30.889  25.010  0.00  0.00    +0.000 OA
BRANCH  36  38
ATOM     37  O   UNL     1      25.922  31.289  22.917  0.00  0.00    +0.000 OA
ATOM     38  C   UNL     1      25.309  31.644  23.910  0.00  0.00    +0.000 C 
BRANCH  38  39
ATOM     39  C   UNL     1      24.587  32.945  24.008  0.00  0.00    +0.000 C 
ATOM     40  C   UNL     1      23.092  32.797  24.000  0.00  0.00    +0.000 C 
ATOM     41  C   UNL     1      25.181  34.153  24.084  0.00  0.00    +0.000 C 
ATOM     42  C   UNL     1      26.639  34.477  24.003  0.00  0.00    +0.000 C 
ENDBRANCH  38  39
ENDBRANCH  36  38
ENDBRANCH  35  36
ENDBRANCH  11  35
TORSDOF 7
ENDMDL
MODEL 9
REMARK VINA RESULT:      -5.1      1.842      2.518
REMARK  Name = 
REMARK  14 active torsions:
REMARK  status: ('A' for Active; 'I' for Inactive)
REMARK    1  A    between atoms: O_1  and  C_24
REMARK    2  A    between atoms: O_1  and  C_36
REMARK    3  A    between atoms: O_4  and  C_30
REMARK    4  A    between atoms: O_4  and  C_37
REMARK    5  A    between atoms: O_7  and  C_33
REMARK    6  A    between atoms: O_7  and  C_38
REMARK    7  A    between atoms: N_10  and  C_23
REMARK    8  A    between atoms: C_15  and  C_26
REMARK    9  A    between atoms: C_16  and  C_24
REMARK   10  A    between atoms: C_31  and  C_34
REMARK   11  A    between atoms: C_32  and  C_35
REMARK   12  A    between atoms: C_36  and  C_39
REMARK   13  A    between atoms: C_39  and  C_40
REMARK   14  A    between atoms: C_41  and  C_42
REMARK                            x       y       z     vdW  Elec       q    Type
REMARK                         _______ _______ _______ _____ _____    ______ ____
ROOT
ATOM      1  O   UNL     1      50.996  -2.926  15.326  0.00  0.00    +0.000 OA
ATOM      2  O   UNL     1      51.475   0.429  11.229  0.00  0.00    +0.000 OA
ATOM      3  O   UNL     1      46.892  -5.089  15.800  0.00  0.00    +0.000 OA
ATOM      4  O   UNL     1      43.362  -1.690  13.735  0.00  0.00    +0.000 OA
ATOM      5  N   UNL     1      47.360  -0.292  14.205  0.00  0.00    +0.000 NA
ATOM      6  N   UNL     1      49.501   0.915  15.813  0.00  0.00    +0.000 NA
ATOM      7  C   UNL     1      47.992  -0.997  15.350  0.00  0.00    +0.000 C 
ATOM      8  C   UNL     1      49.503  -0.553  15.552  0.00  0.00    +0.000 C 
ATOM      9  C   UNL     1      49.006   1.615  14.600  0.00  0.00    +0.000 C 
ATOM     10  C   UNL     1      47.515   1.194  14.315  0.00  0.00    +0.000 C 
ATOM     11  C   UNL     1      45.979  -0.721  13.848  0.00  0.00    +0.000 C 
ATOM     12  C   UNL     1      47.873  -2.527  15.186  0.00  0.00    +0.000 C 
ATOM     13  C   UNL     1      49.904   1.345  13.360  0.00  0.00    +0.000 C 
ATOM     14  C   UNL     1      50.352  -0.900  14.337  0.00  0.00    +0.000 C 
ATOM     15  C   UNL     1      50.514  -0.033  13.325  0.00  0.00    +0.000 C 
ATOM     16  C   UNL     1      45.598  -2.115  14.322  0.00  0.00    +0.000 C 
ATOM     17  C   UNL     1      46.463  -2.951  14.910  0.00  0.00    +0.000 C 
ATOM     18  C   UNL     1      50.774   1.422  16.316  0.00  0.00    +0.000 C 
ATOM     19  C   UNL     1      51.049  -2.206  14.334  0.00  0.00    +0.000 C 
ATOM     20  C   UNL     1      51.330  -0.377  12.142  0.00  0.00    +0.000 C 
ATOM     21  C   UNL     1      46.071  -4.320  15.312  0.00  0.00    +0.000 C 
ATOM     22  C   UNL     1      44.175  -2.509  14.151  0.00  0.00    +0.000 C 
ATOM     23  C   UNL     1      51.801  -2.600  13.097  0.00  0.00    +0.000 C 
ATOM     24  C   UNL     1      51.946  -1.728  12.086  0.00  0.00    +0.000 C 
ATOM     25  C   UNL     1      44.670  -4.744  15.073  0.00  0.00    +0.000 C 
ATOM     26  C   UNL     1      43.779  -3.910  14.511  0.00  0.00    +0.000 C 
ATOM     27  C   UNL     1      52.726  -2.015  10.836  0.00  0.00    +0.000 C 
ATOM     28  C   UNL     1      44.352  -6.148  15.501  0.00  0.00    +0.000 C 
ENDROOT
BRANCH  23  29
ATOM     29  O   UNL     1      52.412  -3.845  13.001  0.00  0.00    +0.000 OA
ATOM     30  C   UNL     1      51.560  -4.919  12.610  0.00  0.00    +0.000 C 
ENDBRANCH  23  29
BRANCH  26  31
ATOM     31  O   UNL     1      42.471  -4.346  14.329  0.00  0.00    +0.000 OA
ATOM     32  C   UNL     1      42.233  -5.046  13.110  0.00  0.00    +0.000 C 
ENDBRANCH  26  31
BRANCH  10  34
ATOM     33  N   UNL     1      45.986   2.336  16.157  0.00  0.00    +0.000 NA
ATOM     34  C   UNL     1      46.638   1.834  15.339  0.00  0.00    +0.000 C 
ENDBRANCH  10  34
BRANCH  11  35
ATOM     35  C   UNL     1      45.848  -0.633  12.298  0.00  0.00    +0.000 C 
BRANCH  35  36
ATOM     36  O   UNL     1      47.032  -1.191  11.690  0.00  0.00    +0.000 OA
BRANCH  36  38
ATOM     37  O   UNL     1      45.822  -2.468  10.223  0.00  0.00    +0.000 OA
ATOM     38  C   UNL     1      46.813  -2.274  10.908  0.00  0.00    +0.000 C 
BRANCH  38  39
ATOM     39  C   UNL     1      48.016  -3.154  10.881  0.00  0.00    +0.000 C 
ATOM     40  C   UNL     1      47.912  -4.330  11.812  0.00  0.00    +0.000 C 
ATOM     41  C   UNL     1      49.111  -2.942  10.124  0.00  0.00    +0.000 C 
ATOM     42  C   UNL     1      49.411  -1.779   9.232  0.00  0.00    +0.000 C 
ENDBRANCH  38  39
ENDBRANCH  36  38
ENDBRANCH  35  36
ENDBRANCH  11  35
TORSDOF 7
ENDMDL
