MODEL 1
REMARK VINA RESULT:      -6.1      0.000      0.000
REMARK  Name = Resveratrol.pdbqt.pdb
REMARK  5 active torsions:
REMARK  status: ('A' for Active; 'I' for Inactive)
REMARK    1  A    between atoms: C_1  and  C_11
REMARK    2  A    between atoms: C_4  and  O_7
REMARK    3  A    between atoms: C_5  and  O_9
REMARK    4  A    between atoms: C_12  and  C_13
REMARK    5  A    between atoms: C_18  and  O_19
REMARK                            x       y       z     vdW  Elec       q    Type
REMARK                         _______ _______ _______ _____ _____    ______ ____
ROOT
ATOM      1  C   UNL     1      14.858   6.127  26.681  0.00  0.00    +0.000 A 
ATOM      2  C   UNL     1      14.118   6.116  27.863  0.00  0.00    +0.000 A 
ATOM      3  C   UNL     1      14.931   7.286  25.909  0.00  0.00    +0.000 A 
ATOM      4  C   UNL     1      14.260   8.431  26.329  0.00  0.00    +0.000 A 
ATOM      5  C   UNL     1      13.454   7.271  28.264  0.00  0.00    +0.000 A 
ATOM      6  C   UNL     1      13.519   8.435  27.506  0.00  0.00    +0.000 A 
ENDROOT
BRANCH   4   7
ATOM      7  O   UNL     1      14.315   9.580  25.594  0.00  0.00    +0.000 OA
ATOM      8  H   UNL     1      14.736   9.375  24.741  0.00  0.00    +0.000 HD
ENDBRANCH   4   7
BRANCH   5   9
ATOM      9  O   UNL     1      12.736   7.237  29.425  0.00  0.00    +0.000 OA
ATOM     10  H   UNL     1      12.485   6.312  29.596  0.00  0.00    +0.000 HD
ENDBRANCH   5   9
BRANCH   1  11
ATOM     11  C   UNL     1      15.542   4.949  26.258  0.00  0.00    +0.000 C 
ATOM     12  C   UNL     1      16.119   3.957  25.902  0.00  0.00    +0.000 C 
BRANCH  12  13
ATOM     13  C   UNL     1      16.803   2.779  25.480  0.00  0.00    +0.000 A 
ATOM     14  C   UNL     1      18.153   2.611  25.789  0.00  0.00    +0.000 A 
ATOM     15  C   UNL     1      16.121   1.799  24.760  0.00  0.00    +0.000 A 
ATOM     16  C   UNL     1      18.823   1.462  25.378  0.00  0.00    +0.000 A 
ATOM     17  C   UNL     1      16.788   0.648  24.347  0.00  0.00    +0.000 A 
ATOM     18  C   UNL     1      18.134   0.489  24.660  0.00  0.00    +0.000 A 
BRANCH  18  19
ATOM     19  O   UNL     1      18.766  -0.647  24.244  0.00  0.00    +0.000 OA
ATOM     20  H   UNL     1      19.640  -0.399  23.895  0.00  0.00    +0.000 HD
ENDBRANCH  18  19
ENDBRANCH  12  13
ENDBRANCH   1  11
TORSDOF 5
ENDMDL
MODEL 2
REMARK VINA RESULT:      -6.0      1.367      7.612
REMARK  Name = Resveratrol.pdbqt.pdb
REMARK  5 active torsions:
REMARK  status: ('A' for Active; 'I' for Inactive)
REMARK    1  A    between atoms: C_1  and  C_11
REMARK    2  A    between atoms: C_4  and  O_7
REMARK    3  A    between atoms: C_5  and  O_9
REMARK    4  A    between atoms: C_12  and  C_13
REMARK    5  A    between atoms: C_18  and  O_19
REMARK                            x       y       z     vdW  Elec       q    Type
REMARK                         _______ _______ _______ _____ _____    ______ ____
ROOT
ATOM      1  C   UNL     1      16.282   2.940  25.433  0.00  0.00    +0.000 A 
ATOM      2  C   UNL     1      17.597   2.546  25.676  0.00  0.00    +0.000 A 
ATOM      3  C   UNL     1      15.402   2.082  24.775  0.00  0.00    +0.000 A 
ATOM      4  C   UNL     1      15.847   0.828  24.364  0.00  0.00    +0.000 A 
ATOM      5  C   UNL     1      18.022   1.289  25.256  0.00  0.00    +0.000 A 
ATOM      6  C   UNL     1      17.155   0.421  24.600  0.00  0.00    +0.000 A 
ENDROOT
BRANCH   4   7
ATOM      7  O   UNL     1      15.007  -0.032  23.718  0.00  0.00    +0.000 OA
ATOM      8  H   UNL     1      15.342  -0.162  22.813  0.00  0.00    +0.000 HD
ENDBRANCH   4   7
BRANCH   5   9
ATOM      9  O   UNL     1      19.314   0.924  25.506  0.00  0.00    +0.000 OA
ATOM     10  H   UNL     1      19.439   0.018  25.172  0.00  0.00    +0.000 HD
ENDBRANCH   5   9
BRANCH   1  11
ATOM     11  C   UNL     1      15.834   4.226  25.857  0.00  0.00    +0.000 C 
ATOM     12  C   UNL     1      15.457   5.310  26.213  0.00  0.00    +0.000 C 
BRANCH  12  13
ATOM     13  C   UNL     1      15.009   6.596  26.637  0.00  0.00    +0.000 A 
ATOM     14  C   UNL     1      15.182   7.701  25.804  0.00  0.00    +0.000 A 
ATOM     15  C   UNL     1      14.399   6.745  27.882  0.00  0.00    +0.000 A 
ATOM     16  C   UNL     1      14.745   8.957  26.214  0.00  0.00    +0.000 A 
ATOM     17  C   UNL     1      13.961   7.999  28.297  0.00  0.00    +0.000 A 
ATOM     18  C   UNL     1      14.138   9.096  27.459  0.00  0.00    +0.000 A 
BRANCH  18  19
ATOM     19  O   UNL     1      13.700  10.315  27.887  0.00  0.00    +0.000 OA
ATOM     20  H   UNL     1      12.839  10.194  28.324  0.00  0.00    +0.000 HD
ENDBRANCH  18  19
ENDBRANCH  12  13
ENDBRANCH   1  11
TORSDOF 5
ENDMDL
MODEL 3
REMARK VINA RESULT:      -6.0     30.686     34.129
REMARK  Name = Resveratrol.pdbqt.pdb
REMARK  5 active torsions:
REMARK  status: ('A' for Active; 'I' for Inactive)
REMARK    1  A    between atoms: C_1  and  C_11
REMARK    2  A    between atoms: C_4  and  O_7
REMARK    3  A    between atoms: C_5  and  O_9
REMARK    4  A    between atoms: C_12  and  C_13
REMARK    5  A    between atoms: C_18  and  O_19
REMARK                            x       y       z     vdW  Elec       q    Type
REMARK                         _______ _______ _______ _____ _____    ______ ____
ROOT
ATOM      1  C   UNL     1      43.909  -3.786  12.045  0.00  0.00    +0.000 A 
ATOM      2  C   UNL     1      43.750  -2.487  11.566  0.00  0.00    +0.000 A 
ATOM      3  C   UNL     1      43.543  -4.101  13.353  0.00  0.00    +0.000 A 
ATOM      4  C   UNL     1      43.015  -3.108  14.175  0.00  0.00    +0.000 A 
ATOM      5  C   UNL     1      43.221  -1.509  12.403  0.00  0.00    +0.000 A 
ATOM      6  C   UNL     1      42.850  -1.808  13.710  0.00  0.00    +0.000 A 
ENDROOT
BRANCH   4   7
ATOM      7  O   UNL     1      42.647  -3.389  15.459  0.00  0.00    +0.000 OA
ATOM      8  H   UNL     1      41.679  -3.484  15.483  0.00  0.00    +0.000 HD
ENDBRANCH   4   7
BRANCH   5   9
ATOM      9  O   UNL     1      43.074  -0.244  11.912  0.00  0.00    +0.000 OA
ATOM     10  H   UNL     1      43.312   0.383  12.618  0.00  0.00    +0.000 HD
ENDBRANCH   5   9
BRANCH   1  11
ATOM     11  C   UNL     1      44.451  -4.797  11.198  0.00  0.00    +0.000 C 
ATOM     12  C   UNL     1      44.906  -5.649  10.484  0.00  0.00    +0.000 C 
BRANCH  12  13
ATOM     13  C   UNL     1      45.446  -6.660   9.635  0.00  0.00    +0.000 A 
ATOM     14  C   UNL     1      44.651  -7.234   8.644  0.00  0.00    +0.000 A 
ATOM     15  C   UNL     1      46.769  -7.073   9.799  0.00  0.00    +0.000 A 
ATOM     16  C   UNL     1      45.176  -8.221   7.815  0.00  0.00    +0.000 A 
ATOM     17  C   UNL     1      47.297  -8.059   8.972  0.00  0.00    +0.000 A 
ATOM     18  C   UNL     1      46.496  -8.626   7.986  0.00  0.00    +0.000 A 
BRANCH  18  19
ATOM     19  O   UNL     1      47.037  -9.592   7.188  0.00  0.00    +0.000 OA
ATOM     20  H   UNL     1      46.680  -9.480   6.289  0.00  0.00    +0.000 HD
ENDBRANCH  18  19
ENDBRANCH  12  13
ENDBRANCH   1  11
TORSDOF 5
ENDMDL
MODEL 4
REMARK VINA RESULT:      -5.8     31.932     34.898
REMARK  Name = Resveratrol.pdbqt.pdb
REMARK  5 active torsions:
REMARK  status: ('A' for Active; 'I' for Inactive)
REMARK    1  A    between atoms: C_1  and  C_11
REMARK    2  A    between atoms: C_4  and  O_7
REMARK    3  A    between atoms: C_5  and  O_9
REMARK    4  A    between atoms: C_12  and  C_13
REMARK    5  A    between atoms: C_18  and  O_19
REMARK                            x       y       z     vdW  Elec       q    Type
REMARK                         _______ _______ _______ _____ _____    ______ ____
ROOT
ATOM      1  C   UNL     1      44.345  -4.400  10.897  0.00  0.00    +0.000 A 
ATOM      2  C   UNL     1      43.353  -4.356  11.876  0.00  0.00    +0.000 A 
ATOM      3  C   UNL     1      44.528  -5.553  10.135  0.00  0.00    +0.000 A 
ATOM      4  C   UNL     1      43.713  -6.659  10.360  0.00  0.00    +0.000 A 
ATOM      5  C   UNL     1      42.549  -5.472  12.085  0.00  0.00    +0.000 A 
ATOM      6  C   UNL     1      42.719  -6.629  11.333  0.00  0.00    +0.000 A 
ENDROOT
BRANCH   4   7
ATOM      7  O   UNL     1      43.869  -7.801   9.629  0.00  0.00    +0.000 OA
ATOM      8  H   UNL     1      44.518  -7.624   8.925  0.00  0.00    +0.000 HD
ENDBRANCH   4   7
BRANCH   5   9
ATOM      9  O   UNL     1      41.584  -5.405  13.049  0.00  0.00    +0.000 OA
ATOM     10  H   UNL     1      40.791  -5.859  12.712  0.00  0.00    +0.000 HD
ENDBRANCH   5   9
BRANCH   1  11
ATOM     11  C   UNL     1      45.176  -3.263  10.673  0.00  0.00    +0.000 C 
ATOM     12  C   UNL     1      45.877  -2.305  10.485  0.00  0.00    +0.000 C 
BRANCH  12  13
ATOM     13  C   UNL     1      46.709  -1.169  10.261  0.00  0.00    +0.000 A 
ATOM     14  C   UNL     1      47.509  -1.108   9.120  0.00  0.00    +0.000 A 
ATOM     15  C   UNL     1      46.719  -0.122  11.182  0.00  0.00    +0.000 A 
ATOM     16  C   UNL     1      48.322   0.000   8.899  0.00  0.00    +0.000 A 
ATOM     17  C   UNL     1      47.531   0.988  10.964  0.00  0.00    +0.000 A 
ATOM     18  C   UNL     1      48.326   1.040   9.824  0.00  0.00    +0.000 A 
BRANCH  18  19
ATOM     19  O   UNL     1      49.113   2.139   9.632  0.00  0.00    +0.000 OA
ATOM     20  H   UNL     1      48.544   2.875   9.346  0.00  0.00    +0.000 HD
ENDBRANCH  18  19
ENDBRANCH  12  13
ENDBRANCH   1  11
TORSDOF 5
ENDMDL
MODEL 5
REMARK VINA RESULT:      -5.8     27.778     30.019
REMARK  Name = Resveratrol.pdbqt.pdb
REMARK  5 active torsions:
REMARK  status: ('A' for Active; 'I' for Inactive)
REMARK    1  A    between atoms: C_1  and  C_11
REMARK    2  A    between atoms: C_4  and  O_7
REMARK    3  A    between atoms: C_5  and  O_9
REMARK    4  A    between atoms: C_12  and  C_13
REMARK    5  A    between atoms: C_18  and  O_19
REMARK                            x       y       z     vdW  Elec       q    Type
REMARK                         _______ _______ _______ _____ _____    ______ ____
ROOT
ATOM      1  C   UNL     1      21.011  20.663   3.268  0.00  0.00    +0.000 A 
ATOM      2  C   UNL     1      21.508  19.591   2.528  0.00  0.00    +0.000 A 
ATOM      3  C   UNL     1      19.723  20.612   3.799  0.00  0.00    +0.000 A 
ATOM      4  C   UNL     1      18.939  19.482   3.584  0.00  0.00    +0.000 A 
ATOM      5  C   UNL     1      20.708  18.472   2.324  0.00  0.00    +0.000 A 
ATOM      6  C   UNL     1      19.421  18.405   2.848  0.00  0.00    +0.000 A 
ENDROOT
BRANCH   4   7
ATOM      7  O   UNL     1      17.674  19.403   4.093  0.00  0.00    +0.000 OA
ATOM      8  H   UNL     1      17.329  20.309   4.189  0.00  0.00    +0.000 HD
ENDBRANCH   4   7
BRANCH   5   9
ATOM      9  O   UNL     1      21.216  17.434   1.596  0.00  0.00    +0.000 OA
ATOM     10  H   UNL     1      20.529  16.747   1.533  0.00  0.00    +0.000 HD
ENDBRANCH   5   9
BRANCH   1  11
ATOM     11  C   UNL     1      21.821  21.817   3.483  0.00  0.00    +0.000 C 
ATOM     12  C   UNL     1      22.504  22.789   3.664  0.00  0.00    +0.000 C 
BRANCH  12  13
ATOM     13  C   UNL     1      23.315  23.942   3.879  0.00  0.00    +0.000 A 
ATOM     14  C   UNL     1      23.108  24.737   5.006  0.00  0.00    +0.000 A 
ATOM     15  C   UNL     1      24.311  24.273   2.960  0.00  0.00    +0.000 A 
ATOM     16  C   UNL     1      23.898  25.863   5.218  0.00  0.00    +0.000 A 
ATOM     17  C   UNL     1      25.103  25.399   3.168  0.00  0.00    +0.000 A 
ATOM     18  C   UNL     1      24.890  26.186   4.296  0.00  0.00    +0.000 A 
BRANCH  18  19
ATOM     19  O   UNL     1      25.679  27.284   4.478  0.00  0.00    +0.000 OA
ATOM     20  H   UNL     1      26.598  27.036   4.278  0.00  0.00    +0.000 HD
ENDBRANCH  18  19
ENDBRANCH  12  13
ENDBRANCH   1  11
TORSDOF 5
ENDMDL
MODEL 6
REMARK VINA RESULT:      -5.7     31.659     35.561
REMARK  Name = Resveratrol.pdbqt.pdb
REMARK  5 active torsions:
REMARK  status: ('A' for Active; 'I' for Inactive)
REMARK    1  A    between atoms: C_1  and  C_11
REMARK    2  A    between atoms: C_4  and  O_7
REMARK    3  A    between atoms: C_5  and  O_9
REMARK    4  A    between atoms: C_12  and  C_13
REMARK    5  A    between atoms: C_18  and  O_19
REMARK                            x       y       z     vdW  Elec       q    Type
REMARK                         _______ _______ _______ _____ _____    ______ ____
ROOT
ATOM      1  C   UNL     1      44.808  -5.836  11.950  0.00  0.00    +0.000 A 
ATOM      2  C   UNL     1      43.433  -5.813  12.181  0.00  0.00    +0.000 A 
ATOM      3  C   UNL     1      45.678  -5.189  12.827  0.00  0.00    +0.000 A 
ATOM      4  C   UNL     1      45.162  -4.522  13.935  0.00  0.00    +0.000 A 
ATOM      5  C   UNL     1      42.938  -5.140  13.294  0.00  0.00    +0.000 A 
ATOM      6  C   UNL     1      43.793  -4.491  14.178  0.00  0.00    +0.000 A 
ENDROOT
BRANCH   4   7
ATOM      7  O   UNL     1      45.990  -3.881  14.810  0.00  0.00    +0.000 OA
ATOM      8  H   UNL     1      46.834  -3.705  14.357  0.00  0.00    +0.000 HD
ENDBRANCH   4   7
BRANCH   5   9
ATOM      9  O   UNL     1      41.588  -5.131  13.500  0.00  0.00    +0.000 OA
ATOM     10  H   UNL     1      41.392  -5.747  14.229  0.00  0.00    +0.000 HD
ENDBRANCH   5   9
BRANCH   1  11
ATOM     11  C   UNL     1      45.327  -6.522  10.812  0.00  0.00    +0.000 C 
ATOM     12  C   UNL     1      45.764  -7.099   9.854  0.00  0.00    +0.000 C 
BRANCH  12  13
ATOM     13  C   UNL     1      46.284  -7.784   8.716  0.00  0.00    +0.000 A 
ATOM     14  C   UNL     1      47.560  -8.345   8.765  0.00  0.00    +0.000 A 
ATOM     15  C   UNL     1      45.515  -7.890   7.557  0.00  0.00    +0.000 A 
ATOM     16  C   UNL     1      48.069  -9.014   7.656  0.00  0.00    +0.000 A 
ATOM     17  C   UNL     1      46.021  -8.558   6.445  0.00  0.00    +0.000 A 
ATOM     18  C   UNL     1      47.295  -9.114   6.503  0.00  0.00    +0.000 A 
BRANCH  18  19
ATOM     19  O   UNL     1      47.769  -9.764   5.401  0.00  0.00    +0.000 OA
ATOM     20  H   UNL     1      48.187  -9.108   4.816  0.00  0.00    +0.000 HD
ENDBRANCH  18  19
ENDBRANCH  12  13
ENDBRANCH   1  11
TORSDOF 5
ENDMDL
MODEL 7
REMARK VINA RESULT:      -5.6     16.424     18.604
REMARK  Name = Resveratrol.pdbqt.pdb
REMARK  5 active torsions:
REMARK  status: ('A' for Active; 'I' for Inactive)
REMARK    1  A    between atoms: C_1  and  C_11
REMARK    2  A    between atoms: C_4  and  O_7
REMARK    3  A    between atoms: C_5  and  O_9
REMARK    4  A    between atoms: C_12  and  C_13
REMARK    5  A    between atoms: C_18  and  O_19
REMARK                            x       y       z     vdW  Elec       q    Type
REMARK                         _______ _______ _______ _____ _____    ______ ____
ROOT
ATOM      1  C   UNL     1      15.066   1.323   9.917  0.00  0.00    +0.000 A 
ATOM      2  C   UNL     1      15.975   0.705  10.775  0.00  0.00    +0.000 A 
ATOM      3  C   UNL     1      13.698   1.097  10.064  0.00  0.00    +0.000 A 
ATOM      4  C   UNL     1      13.248   0.251  11.074  0.00  0.00    +0.000 A 
ATOM      5  C   UNL     1      15.505  -0.137  11.778  0.00  0.00    +0.000 A 
ATOM      6  C   UNL     1      14.143  -0.371  11.938  0.00  0.00    +0.000 A 
ENDROOT
BRANCH   4   7
ATOM      7  O   UNL     1      11.915   0.013  11.242  0.00  0.00    +0.000 OA
ATOM      8  H   UNL     1      11.736  -0.908  10.980  0.00  0.00    +0.000 HD
ENDBRANCH   4   7
BRANCH   5   9
ATOM      9  O   UNL     1      16.414  -0.730  12.607  0.00  0.00    +0.000 OA
ATOM     10  H   UNL     1      17.071  -1.187  12.053  0.00  0.00    +0.000 HD
ENDBRANCH   5   9
BRANCH   1  11
ATOM     11  C   UNL     1      15.536   2.187   8.885  0.00  0.00    +0.000 C 
ATOM     12  C   UNL     1      15.931   2.916   8.015  0.00  0.00    +0.000 C 
BRANCH  12  13
ATOM     13  C   UNL     1      16.402   3.780   6.983  0.00  0.00    +0.000 A 
ATOM     14  C   UNL     1      16.994   4.999   7.313  0.00  0.00    +0.000 A 
ATOM     15  C   UNL     1      16.268   3.405   5.647  0.00  0.00    +0.000 A 
ATOM     16  C   UNL     1      17.454   5.844   6.308  0.00  0.00    +0.000 A 
ATOM     17  C   UNL     1      16.726   4.248   4.638  0.00  0.00    +0.000 A 
ATOM     18  C   UNL     1      17.316   5.461   4.977  0.00  0.00    +0.000 A 
BRANCH  18  19
ATOM     19  O   UNL     1      17.758   6.270   3.971  0.00  0.00    +0.000 OA
ATOM     20  H   UNL     1      18.274   5.729   3.348  0.00  0.00    +0.000 HD
ENDBRANCH  18  19
ENDBRANCH  12  13
ENDBRANCH   1  11
TORSDOF 5
ENDMDL
MODEL 8
REMARK VINA RESULT:      -5.4     27.595     29.476
REMARK  Name = Resveratrol.pdbqt.pdb
REMARK  5 active torsions:
REMARK  status: ('A' for Active; 'I' for Inactive)
REMARK    1  A    between atoms: C_1  and  C_11
REMARK    2  A    between atoms: C_4  and  O_7
REMARK    3  A    between atoms: C_5  and  O_9
REMARK    4  A    between atoms: C_12  and  C_13
REMARK    5  A    between atoms: C_18  and  O_19
REMARK                            x       y       z     vdW  Elec       q    Type
REMARK                         _______ _______ _______ _____ _____    ______ ____
ROOT
ATOM      1  C   UNL     1      21.882  19.896   0.893  0.00  0.00    +0.000 A 
ATOM      2  C   UNL     1      22.885  20.595   1.564  0.00  0.00    +0.000 A 
ATOM      3  C   UNL     1      22.013  19.613  -0.466  0.00  0.00    +0.000 A 
ATOM      4  C   UNL     1      23.153  20.033  -1.146  0.00  0.00    +0.000 A 
ATOM      5  C   UNL     1      24.016  21.006   0.866  0.00  0.00    +0.000 A 
ATOM      6  C   UNL     1      24.162  20.730  -0.490  0.00  0.00    +0.000 A 
ENDROOT
BRANCH   4   7
ATOM      7  O   UNL     1      23.308  19.769  -2.476  0.00  0.00    +0.000 OA
ATOM      8  H   UNL     1      22.988  20.540  -2.978  0.00  0.00    +0.000 HD
ENDBRANCH   4   7
BRANCH   5   9
ATOM      9  O   UNL     1      24.986  21.688   1.544  0.00  0.00    +0.000 OA
ATOM     10  H   UNL     1      25.437  21.060   2.135  0.00  0.00    +0.000 HD
ENDBRANCH   5   9
BRANCH   1  11
ATOM     11  C   UNL     1      20.718  19.470   1.598  0.00  0.00    +0.000 C 
ATOM     12  C   UNL     1      19.736  19.112   2.190  0.00  0.00    +0.000 C 
BRANCH  12  13
ATOM     13  C   UNL     1      18.571  18.685   2.894  0.00  0.00    +0.000 A 
ATOM     14  C   UNL     1      18.658  18.354   4.246  0.00  0.00    +0.000 A 
ATOM     15  C   UNL     1      17.349  18.599   2.228  0.00  0.00    +0.000 A 
ATOM     16  C   UNL     1      17.523  17.938   4.935  0.00  0.00    +0.000 A 
ATOM     17  C   UNL     1      16.211  18.183   2.913  0.00  0.00    +0.000 A 
ATOM     18  C   UNL     1      16.307  17.855   4.262  0.00  0.00    +0.000 A 
BRANCH  18  19
ATOM     19  O   UNL     1      15.178  17.450   4.912  0.00  0.00    +0.000 OA
ATOM     20  H   UNL     1      14.770  16.732   4.397  0.00  0.00    +0.000 HD
ENDBRANCH  18  19
ENDBRANCH  12  13
ENDBRANCH   1  11
TORSDOF 5
ENDMDL
MODEL 9
REMARK VINA RESULT:      -5.4     32.457     36.192
REMARK  Name = Resveratrol.pdbqt.pdb
REMARK  5 active torsions:
REMARK  status: ('A' for Active; 'I' for Inactive)
REMARK    1  A    between atoms: C_1  and  C_11
REMARK    2  A    between atoms: C_4  and  O_7
REMARK    3  A    between atoms: C_5  and  O_9
REMARK    4  A    between atoms: C_12  and  C_13
REMARK    5  A    between atoms: C_18  and  O_19
REMARK                            x       y       z     vdW  Elec       q    Type
REMARK                         _______ _______ _______ _____ _____    ______ ____
ROOT
ATOM      1  C   UNL     1      44.864  -6.194  10.704  0.00  0.00    +0.000 A 
ATOM      2  C   UNL     1      43.840  -5.828  11.576  0.00  0.00    +0.000 A 
ATOM      3  C   UNL     1      44.563  -6.696   9.438  0.00  0.00    +0.000 A 
ATOM      4  C   UNL     1      43.231  -6.827   9.053  0.00  0.00    +0.000 A 
ATOM      5  C   UNL     1      42.516  -5.967  11.172  0.00  0.00    +0.000 A 
ATOM      6  C   UNL     1      42.199  -6.465   9.912  0.00  0.00    +0.000 A 
ENDROOT
BRANCH   4   7
ATOM      7  O   UNL     1      42.907  -7.314   7.821  0.00  0.00    +0.000 OA
ATOM      8  H   UNL     1      42.022  -7.718   7.877  0.00  0.00    +0.000 HD
ENDBRANCH   4   7
BRANCH   5   9
ATOM      9  O   UNL     1      41.530  -5.601  12.042  0.00  0.00    +0.000 OA
ATOM     10  H   UNL     1      41.151  -6.413  12.426  0.00  0.00    +0.000 HD
ENDBRANCH   5   9
BRANCH   1  11
ATOM     11  C   UNL     1      46.226  -6.057  11.107  0.00  0.00    +0.000 C 
ATOM     12  C   UNL     1      47.373  -5.941  11.445  0.00  0.00    +0.000 C 
BRANCH  12  13
ATOM     13  C   UNL     1      48.734  -5.804  11.848  0.00  0.00    +0.000 A 
ATOM     14  C   UNL     1      49.059  -4.983  12.927  0.00  0.00    +0.000 A 
ATOM     15  C   UNL     1      49.735  -6.490  11.161  0.00  0.00    +0.000 A 
ATOM     16  C   UNL     1      50.387  -4.847  13.322  0.00  0.00    +0.000 A 
ATOM     17  C   UNL     1      51.064  -6.356  11.553  0.00  0.00    +0.000 A 
ATOM     18  C   UNL     1      51.380  -5.535  12.631  0.00  0.00    +0.000 A 
BRANCH  18  19
ATOM     19  O   UNL     1      52.690  -5.420  12.996  0.00  0.00    +0.000 OA
ATOM     20  H   UNL     1      52.852  -6.023  13.742  0.00  0.00    +0.000 HD
ENDBRANCH  18  19
ENDBRANCH  12  13
ENDBRANCH   1  11
TORSDOF 5
ENDMDL
