MODEL 1
REMARK VINA RESULT:      -6.1      0.000      0.000
REMARK  Name = RetinoicAcid.pdbqt.pdb
REMARK  6 active torsions:
REMARK  status: ('A' for Active; 'I' for Inactive)
REMARK    1  A    between atoms: C_1  and  C_3
REMARK    2  A    between atoms: C_1  and  C_5
REMARK    3  A    between atoms: C_3  and  C_15
REMARK    4  A    between atoms: C_4  and  C_9
REMARK    5  A    between atoms: C_16  and  C_17
REMARK    6  A    between atoms: C_21  and  O_22
REMARK                            x       y       z     vdW  Elec       q    Type
REMARK                         _______ _______ _______ _____ _____    ______ ____
ROOT
ATOM      1  C   UNL     1      24.602  30.759   6.204  0.00  0.00    +0.000 C 
ATOM      2  C   UNL     1      23.831  31.867   5.554  0.00  0.00    +0.000 C 
ENDROOT
BRANCH   1   4
ATOM      3  C   UNL     1      24.644  28.382   5.104  0.00  0.00    +0.000 C 
ATOM      4  C   UNL     1      24.629  29.472   5.613  0.00  0.00    +0.000 C 
BRANCH   3   8
ATOM      5  C   UNL     1      23.474  26.085   4.750  0.00  0.00    +0.000 C 
ATOM      6  C   UNL     1      23.741  24.837   3.998  0.00  0.00    +0.000 C 
ATOM      7  C   UNL     1      24.760  24.201   3.072  0.00  0.00    +0.000 C 
ATOM      8  C   UNL     1      24.658  27.076   4.489  0.00  0.00    +0.000 C 
ATOM      9  C   UNL     1      25.659  25.418   3.092  0.00  0.00    +0.000 C 
ATOM     10  C   UNL     1      25.686  26.712   3.683  0.00  0.00    +0.000 C 
ATOM     11  C   UNL     1      23.398  25.779   6.271  0.00  0.00    +0.000 C 
ATOM     12  C   UNL     1      22.157  26.737   4.242  0.00  0.00    +0.000 C 
ATOM     13  C   UNL     1      26.862  27.591   3.357  0.00  0.00    +0.000 C 
ENDBRANCH   3   8
ENDBRANCH   1   4
BRANCH   1  14
ATOM     14  C   UNL     1      25.204  30.966   7.333  0.00  0.00    +0.000 C 
BRANCH  14  15
ATOM     15  C   UNL     1      25.918  31.209   8.668  0.00  0.00    +0.000 C 
ATOM     16  C   UNL     1      26.476  31.400   9.714  0.00  0.00    +0.000 C 
BRANCH  16  17
ATOM     17  C   UNL     1      27.128  31.624  10.950  0.00  0.00    +0.000 C 
ATOM     18  C   UNL     1      28.594  31.936  10.972  0.00  0.00    +0.000 C 
ATOM     19  C   UNL     1      26.471  31.527  12.056  0.00  0.00    +0.000 C 
ATOM     20  O   UNL     1      25.048  32.335  13.705  0.00  0.00    +0.000 OA
ATOM     21  C   UNL     1      25.733  31.430  13.266  0.00  0.00    +0.000 C 
BRANCH  21  22
ATOM     22  O   UNL     1      25.839  30.239  13.877  0.00  0.00    +0.000 OA
ATOM     23  H   UNL     1      25.187  29.673  13.414  0.00  0.00    +0.000 HD
ENDBRANCH  21  22
ENDBRANCH  16  17
ENDBRANCH  14  15
ENDBRANCH   1  14
TORSDOF 6
ENDMDL
MODEL 2
REMARK VINA RESULT:      -6.0      1.746      2.207
REMARK  Name = RetinoicAcid.pdbqt.pdb
REMARK  6 active torsions:
REMARK  status: ('A' for Active; 'I' for Inactive)
REMARK    1  A    between atoms: C_1  and  C_3
REMARK    2  A    between atoms: C_1  and  C_5
REMARK    3  A    between atoms: C_3  and  C_15
REMARK    4  A    between atoms: C_4  and  C_9
REMARK    5  A    between atoms: C_16  and  C_17
REMARK    6  A    between atoms: C_21  and  O_22
REMARK                            x       y       z     vdW  Elec       q    Type
REMARK                         _______ _______ _______ _____ _____    ______ ____
ROOT
ATOM      1  C   UNL     1      24.607  30.748   6.151  0.00  0.00    +0.000 C 
ATOM      2  C   UNL     1      23.859  31.879   5.514  0.00  0.00    +0.000 C 
ENDROOT
BRANCH   1   4
ATOM      3  C   UNL     1      24.631  28.381   5.031  0.00  0.00    +0.000 C 
ATOM      4  C   UNL     1      24.618  29.471   5.540  0.00  0.00    +0.000 C 
BRANCH   3   8
ATOM      5  C   UNL     1      23.464  26.081   4.690  0.00  0.00    +0.000 C 
ATOM      6  C   UNL     1      23.735  24.827   3.948  0.00  0.00    +0.000 C 
ATOM      7  C   UNL     1      24.758  24.184   3.032  0.00  0.00    +0.000 C 
ATOM      8  C   UNL     1      24.648  27.071   4.425  0.00  0.00    +0.000 C 
ATOM      9  C   UNL     1      25.656  25.402   3.045  0.00  0.00    +0.000 C 
ATOM     10  C   UNL     1      25.680  26.701   3.627  0.00  0.00    +0.000 C 
ATOM     11  C   UNL     1      23.382  25.786   6.212  0.00  0.00    +0.000 C 
ATOM     12  C   UNL     1      22.149  26.727   4.171  0.00  0.00    +0.000 C 
ATOM     13  C   UNL     1      26.856  27.579   3.298  0.00  0.00    +0.000 C 
ENDBRANCH   3   8
ENDBRANCH   1   4
BRANCH   1  14
ATOM     14  C   UNL     1      25.206  30.928   7.287  0.00  0.00    +0.000 C 
BRANCH  14  15
ATOM     15  C   UNL     1      25.916  31.138   8.630  0.00  0.00    +0.000 C 
ATOM     16  C   UNL     1      26.470  31.305   9.682  0.00  0.00    +0.000 C 
BRANCH  16  17
ATOM     17  C   UNL     1      27.119  31.502  10.924  0.00  0.00    +0.000 C 
ATOM     18  C   UNL     1      26.312  31.837  12.141  0.00  0.00    +0.000 C 
ATOM     19  C   UNL     1      28.405  31.427  11.001  0.00  0.00    +0.000 C 
ATOM     20  O   UNL     1      30.412  30.269  11.175  0.00  0.00    +0.000 OA
ATOM     21  C   UNL     1      29.820  31.328  11.077  0.00  0.00    +0.000 C 
BRANCH  21  22
ATOM     22  O   UNL     1      30.455  32.509  11.006  0.00  0.00    +0.000 OA
ATOM     23  H   UNL     1      30.298  32.811  10.086  0.00  0.00    +0.000 HD
ENDBRANCH  21  22
ENDBRANCH  16  17
ENDBRANCH  14  15
ENDBRANCH   1  14
TORSDOF 6
ENDMDL
MODEL 3
REMARK VINA RESULT:      -5.8     19.950     24.220
REMARK  Name = RetinoicAcid.pdbqt.pdb
REMARK  6 active torsions:
REMARK  status: ('A' for Active; 'I' for Inactive)
REMARK    1  A    between atoms: C_1  and  C_3
REMARK    2  A    between atoms: C_1  and  C_5
REMARK    3  A    between atoms: C_3  and  C_15
REMARK    4  A    between atoms: C_4  and  C_9
REMARK    5  A    between atoms: C_16  and  C_17
REMARK    6  A    between atoms: C_21  and  O_22
REMARK                            x       y       z     vdW  Elec       q    Type
REMARK                         _______ _______ _______ _____ _____    ______ ____
ROOT
ATOM      1  C   UNL     1      23.917  24.210  31.824  0.00  0.00    +0.000 C 
ATOM      2  C   UNL     1      24.815  24.636  32.944  0.00  0.00    +0.000 C 
ENDROOT
BRANCH   1   4
ATOM      3  C   UNL     1      23.762  21.685  31.144  0.00  0.00    +0.000 C 
ATOM      4  C   UNL     1      23.833  22.843  31.462  0.00  0.00    +0.000 C 
BRANCH   3   8
ATOM      5  C   UNL     1      24.952  19.390  30.854  0.00  0.00    +0.000 C 
ATOM      6  C   UNL     1      24.584  18.027  30.404  0.00  0.00    +0.000 C 
ATOM      7  C   UNL     1      23.408  17.223  29.885  0.00  0.00    +0.000 C 
ATOM      8  C   UNL     1      23.680  20.297  30.755  0.00  0.00    +0.000 C 
ATOM      9  C   UNL     1      22.467  18.406  29.945  0.00  0.00    +0.000 C 
ATOM     10  C   UNL     1      22.507  19.781  30.314  0.00  0.00    +0.000 C 
ATOM     11  C   UNL     1      26.059  19.969  29.932  0.00  0.00    +0.000 C 
ATOM     12  C   UNL     1      25.420  19.348  32.336  0.00  0.00    +0.000 C 
ATOM     13  C   UNL     1      21.226  20.561  30.194  0.00  0.00    +0.000 C 
ENDBRANCH   3   8
ENDBRANCH   1   4
BRANCH   1  14
ATOM     14  C   UNL     1      23.252  25.099  31.154  0.00  0.00    +0.000 C 
BRANCH  14  15
ATOM     15  C   UNL     1      22.468  26.153  30.363  0.00  0.00    +0.000 C 
ATOM     16  C   UNL     1      21.855  26.978  29.742  0.00  0.00    +0.000 C 
BRANCH  16  17
ATOM     17  C   UNL     1      21.134  27.948  29.005  0.00  0.00    +0.000 C 
ATOM     18  C   UNL     1      20.079  28.767  29.686  0.00  0.00    +0.000 C 
ATOM     19  C   UNL     1      21.361  28.104  27.745  0.00  0.00    +0.000 C 
ATOM     20  O   UNL     1      22.553  28.947  25.937  0.00  0.00    +0.000 OA
ATOM     21  C   UNL     1      21.630  28.276  26.361  0.00  0.00    +0.000 C 
BRANCH  21  22
ATOM     22  O   UNL     1      20.787  27.611  25.554  0.00  0.00    +0.000 OA
ATOM     23  H   UNL     1      19.949  28.116  25.615  0.00  0.00    +0.000 HD
ENDBRANCH  21  22
ENDBRANCH  16  17
ENDBRANCH  14  15
ENDBRANCH   1  14
TORSDOF 6
ENDMDL
MODEL 4
REMARK VINA RESULT:      -5.7      6.677     11.148
REMARK  Name = RetinoicAcid.pdbqt.pdb
REMARK  6 active torsions:
REMARK  status: ('A' for Active; 'I' for Inactive)
REMARK    1  A    between atoms: C_1  and  C_3
REMARK    2  A    between atoms: C_1  and  C_5
REMARK    3  A    between atoms: C_3  and  C_15
REMARK    4  A    between atoms: C_4  and  C_9
REMARK    5  A    between atoms: C_16  and  C_17
REMARK    6  A    between atoms: C_21  and  O_22
REMARK                            x       y       z     vdW  Elec       q    Type
REMARK                         _______ _______ _______ _____ _____    ______ ____
ROOT
ATOM      1  C   UNL     1      21.957  24.971   1.607  0.00  0.00    +0.000 C 
ATOM      2  C   UNL     1      22.540  25.352   0.281  0.00  0.00    +0.000 C 
ENDROOT
BRANCH   1   4
ATOM      3  C   UNL     1      22.167  26.587   3.657  0.00  0.00    +0.000 C 
ATOM      4  C   UNL     1      22.073  25.849   2.712  0.00  0.00    +0.000 C 
BRANCH   3   8
ATOM      5  C   UNL     1      23.492  27.319   5.773  0.00  0.00    +0.000 C 
ATOM      6  C   UNL     1      23.360  28.343   6.836  0.00  0.00    +0.000 C 
ATOM      7  C   UNL     1      22.457  29.472   7.293  0.00  0.00    +0.000 C 
ATOM      8  C   UNL     1      22.278  27.468   4.796  0.00  0.00    +0.000 C 
ATOM      9  C   UNL     1      21.490  29.273   6.146  0.00  0.00    +0.000 C 
ATOM     10  C   UNL     1      21.341  28.422   5.014  0.00  0.00    +0.000 C 
ATOM     11  C   UNL     1      23.464  25.899   6.402  0.00  0.00    +0.000 C 
ATOM     12  C   UNL     1      24.806  27.554   4.975  0.00  0.00    +0.000 C 
ATOM     13  C   UNL     1      20.146  28.658   4.132  0.00  0.00    +0.000 C 
ENDBRANCH   3   8
ENDBRANCH   1   4
BRANCH   1  14
ATOM     14  C   UNL     1      21.388  23.816   1.755  0.00  0.00    +0.000 C 
BRANCH  14  15
ATOM     15  C   UNL     1      20.714  22.449   1.928  0.00  0.00    +0.000 C 
ATOM     16  C   UNL     1      20.188  21.378   2.065  0.00  0.00    +0.000 C 
BRANCH  16  17
ATOM     17  C   UNL     1      19.569  20.116   2.231  0.00  0.00    +0.000 C 
ATOM     18  C   UNL     1      18.111  20.041   2.567  0.00  0.00    +0.000 C 
ATOM     19  C   UNL     1      20.265  19.035   2.125  0.00  0.00    +0.000 C 
ATOM     20  O   UNL     1      21.306  17.343   0.921  0.00  0.00    +0.000 OA
ATOM     21  C   UNL     1      21.039  17.851   1.994  0.00  0.00    +0.000 C 
BRANCH  21  22
ATOM     22  O   UNL     1      21.474  17.350   3.162  0.00  0.00    +0.000 OA
ATOM     23  H   UNL     1      22.215  16.761   2.909  0.00  0.00    +0.000 HD
ENDBRANCH  21  22
ENDBRANCH  16  17
ENDBRANCH  14  15
ENDBRANCH   1  14
TORSDOF 6
ENDMDL
MODEL 5
REMARK VINA RESULT:      -5.7      7.537     10.661
REMARK  Name = RetinoicAcid.pdbqt.pdb
REMARK  6 active torsions:
REMARK  status: ('A' for Active; 'I' for Inactive)
REMARK    1  A    between atoms: C_1  and  C_3
REMARK    2  A    between atoms: C_1  and  C_5
REMARK    3  A    between atoms: C_3  and  C_15
REMARK    4  A    between atoms: C_4  and  C_9
REMARK    5  A    between atoms: C_16  and  C_17
REMARK    6  A    between atoms: C_21  and  O_22
REMARK                            x       y       z     vdW  Elec       q    Type
REMARK                         _______ _______ _______ _____ _____    ______ ____
ROOT
ATOM      1  C   UNL     1      23.609  24.560   4.360  0.00  0.00    +0.000 C 
ATOM      2  C   UNL     1      23.655  25.053   5.774  0.00  0.00    +0.000 C 
ENDROOT
BRANCH   1   4
ATOM      3  C   UNL     1      25.094  25.700   2.529  0.00  0.00    +0.000 C 
ATOM      4  C   UNL     1      24.407  25.177   3.367  0.00  0.00    +0.000 C 
BRANCH   3   8
ATOM      5  C   UNL     1      26.650  27.673   1.855  0.00  0.00    +0.000 C 
ATOM      6  C   UNL     1      27.431  28.081   0.663  0.00  0.00    +0.000 C 
ATOM      7  C   UNL     1      27.761  27.640  -0.749  0.00  0.00    +0.000 C 
ATOM      8  C   UNL     1      25.925  26.325   1.527  0.00  0.00    +0.000 C 
ATOM      9  C   UNL     1      26.913  26.391  -0.646  0.00  0.00    +0.000 C 
ATOM     10  C   UNL     1      26.082  25.745   0.312  0.00  0.00    +0.000 C 
ATOM     11  C   UNL     1      25.584  28.754   2.182  0.00  0.00    +0.000 C 
ATOM     12  C   UNL     1      27.606  27.445   3.060  0.00  0.00    +0.000 C 
ATOM     13  C   UNL     1      25.442  24.447  -0.099  0.00  0.00    +0.000 C 
ENDBRANCH   3   8
ENDBRANCH   1   4
BRANCH   1  14
ATOM     14  C   UNL     1      22.801  23.599   4.037  0.00  0.00    +0.000 C 
BRANCH  14  15
ATOM     15  C   UNL     1      21.843  22.463   3.656  0.00  0.00    +0.000 C 
ATOM     16  C   UNL     1      21.092  21.575   3.358  0.00  0.00    +0.000 C 
BRANCH  16  17
ATOM     17  C   UNL     1      20.205  20.531   3.002  0.00  0.00    +0.000 C 
ATOM     18  C   UNL     1      18.730  20.711   3.193  0.00  0.00    +0.000 C 
ATOM     19  C   UNL     1      20.667  19.417   2.544  0.00  0.00    +0.000 C 
ATOM     20  O   UNL     1      21.500  18.046   0.864  0.00  0.00    +0.000 OA
ATOM     21  C   UNL     1      21.188  18.199   2.030  0.00  0.00    +0.000 C 
BRANCH  21  22
ATOM     22  O   UNL     1      21.328  17.232   2.952  0.00  0.00    +0.000 OA
ATOM     23  H   UNL     1      20.466  17.219   3.418  0.00  0.00    +0.000 HD
ENDBRANCH  21  22
ENDBRANCH  16  17
ENDBRANCH  14  15
ENDBRANCH   1  14
TORSDOF 6
ENDMDL
MODEL 6
REMARK VINA RESULT:      -5.6     30.438     33.308
REMARK  Name = RetinoicAcid.pdbqt.pdb
REMARK  6 active torsions:
REMARK  status: ('A' for Active; 'I' for Inactive)
REMARK    1  A    between atoms: C_1  and  C_3
REMARK    2  A    between atoms: C_1  and  C_5
REMARK    3  A    between atoms: C_3  and  C_15
REMARK    4  A    between atoms: C_4  and  C_9
REMARK    5  A    between atoms: C_16  and  C_17
REMARK    6  A    between atoms: C_21  and  O_22
REMARK                            x       y       z     vdW  Elec       q    Type
REMARK                         _______ _______ _______ _____ _____    ______ ____
ROOT
ATOM      1  C   UNL     1      23.548  -4.631  16.553  0.00  0.00    +0.000 C 
ATOM      2  C   UNL     1      24.197  -5.843  17.147  0.00  0.00    +0.000 C 
ENDROOT
BRANCH   1   4
ATOM      3  C   UNL     1      24.755  -3.278  14.663  0.00  0.00    +0.000 C 
ATOM      4  C   UNL     1      24.205  -3.904  15.530  0.00  0.00    +0.000 C 
BRANCH   3   8
ATOM      5  C   UNL     1      26.857  -2.919  13.172  0.00  0.00    +0.000 C 
ATOM      6  C   UNL     1      27.279  -1.989  12.099  0.00  0.00    +0.000 C 
ATOM      7  C   UNL     1      26.793  -0.796  11.299  0.00  0.00    +0.000 C 
ATOM      8  C   UNL     1      25.411  -2.522  13.623  0.00  0.00    +0.000 C 
ATOM      9  C   UNL     1      25.459  -0.759  12.012  0.00  0.00    +0.000 C 
ATOM     10  C   UNL     1      24.778  -1.476  13.037  0.00  0.00    +0.000 C 
ATOM     11  C   UNL     1      27.817  -2.796  14.386  0.00  0.00    +0.000 C 
ATOM     12  C   UNL     1      26.825  -4.375  12.627  0.00  0.00    +0.000 C 
ATOM     13  C   UNL     1      23.388  -1.020  13.386  0.00  0.00    +0.000 C 
ENDBRANCH   3   8
ENDBRANCH   1   4
BRANCH   1  14
ATOM     14  C   UNL     1      22.407  -4.220  17.009  0.00  0.00    +0.000 C 
BRANCH  14  15
ATOM     15  C   UNL     1      21.057  -3.732  17.550  0.00  0.00    +0.000 C 
ATOM     16  C   UNL     1      20.002  -3.347  17.974  0.00  0.00    +0.000 C 
BRANCH  16  17
ATOM     17  C   UNL     1      18.757  -2.890  18.470  0.00  0.00    +0.000 C 
ATOM     18  C   UNL     1      18.138  -3.560  19.659  0.00  0.00    +0.000 C 
ATOM     19  C   UNL     1      18.142  -1.921  17.880  0.00  0.00    +0.000 C 
ATOM     20  O   UNL     1      17.751   0.324  17.431  0.00  0.00    +0.000 OA
ATOM     21  C   UNL     1      17.481  -0.846  17.230  0.00  0.00    +0.000 C 
BRANCH  21  22
ATOM     22  O   UNL     1      16.541  -1.232  16.352  0.00  0.00    +0.000 OA
ATOM     23  H   UNL     1      17.049  -1.650  15.626  0.00  0.00    +0.000 HD
ENDBRANCH  21  22
ENDBRANCH  16  17
ENDBRANCH  14  15
ENDBRANCH   1  14
TORSDOF 6
ENDMDL
MODEL 7
REMARK VINA RESULT:      -5.5      6.928     11.248
REMARK  Name = RetinoicAcid.pdbqt.pdb
REMARK  6 active torsions:
REMARK  status: ('A' for Active; 'I' for Inactive)
REMARK    1  A    between atoms: C_1  and  C_3
REMARK    2  A    between atoms: C_1  and  C_5
REMARK    3  A    between atoms: C_3  and  C_15
REMARK    4  A    between atoms: C_4  and  C_9
REMARK    5  A    between atoms: C_16  and  C_17
REMARK    6  A    between atoms: C_21  and  O_22
REMARK                            x       y       z     vdW  Elec       q    Type
REMARK                         _______ _______ _______ _____ _____    ______ ____
ROOT
ATOM      1  C   UNL     1      22.542  23.622   2.060  0.00  0.00    +0.000 C 
ATOM      2  C   UNL     1      23.230  23.730   0.734  0.00  0.00    +0.000 C 
ENDROOT
BRANCH   1   4
ATOM      3  C   UNL     1      22.686  25.604   3.767  0.00  0.00    +0.000 C 
ATOM      4  C   UNL     1      22.618  24.690   2.988  0.00  0.00    +0.000 C 
BRANCH   3   8
ATOM      5  C   UNL     1      22.299  28.130   4.253  0.00  0.00    +0.000 C 
ATOM      6  C   UNL     1      22.486  29.057   5.394  0.00  0.00    +0.000 C 
ATOM      7  C   UNL     1      22.973  29.092   6.829  0.00  0.00    +0.000 C 
ATOM      8  C   UNL     1      22.769  26.705   4.697  0.00  0.00    +0.000 C 
ATOM      9  C   UNL     1      23.304  27.615   6.839  0.00  0.00    +0.000 C 
ATOM     10  C   UNL     1      23.244  26.504   5.952  0.00  0.00    +0.000 C 
ATOM     11  C   UNL     1      23.164  28.594   3.049  0.00  0.00    +0.000 C 
ATOM     12  C   UNL     1      20.794  28.062   3.869  0.00  0.00    +0.000 C 
ATOM     13  C   UNL     1      23.707  25.176   6.483  0.00  0.00    +0.000 C 
ENDBRANCH   3   8
ENDBRANCH   1   4
BRANCH   1  14
ATOM     14  C   UNL     1      21.918  22.532   2.378  0.00  0.00    +0.000 C 
BRANCH  14  15
ATOM     15  C   UNL     1      21.179  21.240   2.752  0.00  0.00    +0.000 C 
ATOM     16  C   UNL     1      20.599  20.231   3.044  0.00  0.00    +0.000 C 
BRANCH  16  17
ATOM     17  C   UNL     1      19.914  19.039   3.383  0.00  0.00    +0.000 C 
ATOM     18  C   UNL     1      20.640  17.941   4.099  0.00  0.00    +0.000 C 
ATOM     19  C   UNL     1      18.678  18.886   3.046  0.00  0.00    +0.000 C 
ATOM     20  O   UNL     1      16.393  19.198   3.330  0.00  0.00    +0.000 OA
ATOM     21  C   UNL     1      17.313  18.734   2.682  0.00  0.00    +0.000 C 
BRANCH  21  22
ATOM     22  O   UNL     1      17.125  18.050   1.542  0.00  0.00    +0.000 OA
ATOM     23  H   UNL     1      16.910  17.142   1.840  0.00  0.00    +0.000 HD
ENDBRANCH  21  22
ENDBRANCH  16  17
ENDBRANCH  14  15
ENDBRANCH   1  14
TORSDOF 6
ENDMDL
MODEL 8
REMARK VINA RESULT:      -5.5     20.674     24.510
REMARK  Name = RetinoicAcid.pdbqt.pdb
REMARK  6 active torsions:
REMARK  status: ('A' for Active; 'I' for Inactive)
REMARK    1  A    between atoms: C_1  and  C_3
REMARK    2  A    between atoms: C_1  and  C_5
REMARK    3  A    between atoms: C_3  and  C_15
REMARK    4  A    between atoms: C_4  and  C_9
REMARK    5  A    between atoms: C_16  and  C_17
REMARK    6  A    between atoms: C_21  and  O_22
REMARK                            x       y       z     vdW  Elec       q    Type
REMARK                         _______ _______ _______ _____ _____    ______ ____
ROOT
ATOM      1  C   UNL     1      24.800  23.422  32.410  0.00  0.00    +0.000 C 
ATOM      2  C   UNL     1      25.643  23.483  33.647  0.00  0.00    +0.000 C 
ENDROOT
BRANCH   1   4
ATOM      3  C   UNL     1      24.035  21.102  31.464  0.00  0.00    +0.000 C 
ATOM      4  C   UNL     1      24.390  22.169  31.893  0.00  0.00    +0.000 C 
BRANCH   3   8
ATOM      5  C   UNL     1      22.075  19.517  30.819  0.00  0.00    +0.000 C 
ATOM      6  C   UNL     1      21.922  18.150  30.268  0.00  0.00    +0.000 C 
ATOM      7  C   UNL     1      22.735  16.960  29.797  0.00  0.00    +0.000 C 
ATOM      8  C   UNL     1      23.605  19.822  30.953  0.00  0.00    +0.000 C 
ATOM      9  C   UNL     1      24.054  17.644  30.082  0.00  0.00    +0.000 C 
ATOM     10  C   UNL     1      24.520  18.892  30.585  0.00  0.00    +0.000 C 
ATOM     11  C   UNL     1      21.419  19.597  32.224  0.00  0.00    +0.000 C 
ATOM     12  C   UNL     1      21.444  20.553  29.845  0.00  0.00    +0.000 C 
ATOM     13  C   UNL     1      26.009  19.088  30.661  0.00  0.00    +0.000 C 
ENDBRANCH   3   8
ENDBRANCH   1   4
BRANCH   1  14
ATOM     14  C   UNL     1      24.486  24.513  31.786  0.00  0.00    +0.000 C 
BRANCH  14  15
ATOM     15  C   UNL     1      24.117  25.806  31.047  0.00  0.00    +0.000 C 
ATOM     16  C   UNL     1      23.831  26.817  30.467  0.00  0.00    +0.000 C 
BRANCH  16  17
ATOM     17  C   UNL     1      23.494  28.008  29.780  0.00  0.00    +0.000 C 
ATOM     18  C   UNL     1      23.653  29.332  30.462  0.00  0.00    +0.000 C 
ATOM     19  C   UNL     1      23.022  27.951  28.580  0.00  0.00    +0.000 C 
ATOM     20  O   UNL     1      23.225  27.759  26.274  0.00  0.00    +0.000 OA
ATOM     21  C   UNL     1      22.515  27.876  27.255  0.00  0.00    +0.000 C 
BRANCH  21  22
ATOM     22  O   UNL     1      21.175  27.922  27.180  0.00  0.00    +0.000 OA
ATOM     23  H   UNL     1      20.950  27.256  26.497  0.00  0.00    +0.000 HD
ENDBRANCH  21  22
ENDBRANCH  16  17
ENDBRANCH  14  15
ENDBRANCH   1  14
TORSDOF 6
ENDMDL
MODEL 9
REMARK VINA RESULT:      -5.5     30.365     33.091
REMARK  Name = RetinoicAcid.pdbqt.pdb
REMARK  6 active torsions:
REMARK  status: ('A' for Active; 'I' for Inactive)
REMARK    1  A    between atoms: C_1  and  C_3
REMARK    2  A    between atoms: C_1  and  C_5
REMARK    3  A    between atoms: C_3  and  C_15
REMARK    4  A    between atoms: C_4  and  C_9
REMARK    5  A    between atoms: C_16  and  C_17
REMARK    6  A    between atoms: C_21  and  O_22
REMARK                            x       y       z     vdW  Elec       q    Type
REMARK                         _______ _______ _______ _____ _____    ______ ____
ROOT
ATOM      1  C   UNL     1      21.281  -4.302  11.584  0.00  0.00    +0.000 C 
ATOM      2  C   UNL     1      21.409  -5.444  10.622  0.00  0.00    +0.000 C 
ENDROOT
BRANCH   1   4
ATOM      3  C   UNL     1      23.310  -3.632  13.099  0.00  0.00    +0.000 C 
ATOM      4  C   UNL     1      22.379  -3.935  12.399  0.00  0.00    +0.000 C 
BRANCH   3   8
ATOM      5  C   UNL     1      24.349  -1.984  14.824  0.00  0.00    +0.000 C 
ATOM      6  C   UNL     1      25.615  -1.866  15.584  0.00  0.00    +0.000 C 
ATOM      7  C   UNL     1      26.945  -2.562  15.794  0.00  0.00    +0.000 C 
ATOM      8  C   UNL     1      24.427  -3.275  13.941  0.00  0.00    +0.000 C 
ATOM      9  C   UNL     1      26.611  -3.672  14.822  0.00  0.00    +0.000 C 
ATOM     10  C   UNL     1      25.534  -4.057  13.974  0.00  0.00    +0.000 C 
ATOM     11  C   UNL     1      24.171  -0.750  13.898  0.00  0.00    +0.000 C 
ATOM     12  C   UNL     1      23.153  -2.125  15.808  0.00  0.00    +0.000 C 
ATOM     13  C   UNL     1      25.706  -5.322  13.178  0.00  0.00    +0.000 C 
ENDBRANCH   3   8
ENDBRANCH   1   4
BRANCH   1  14
ATOM     14  C   UNL     1      20.150  -3.681  11.703  0.00  0.00    +0.000 C 
BRANCH  14  15
ATOM     15  C   UNL     1      18.810  -2.948  11.844  0.00  0.00    +0.000 C 
ATOM     16  C   UNL     1      17.761  -2.374  11.951  0.00  0.00    +0.000 C 
BRANCH  16  17
ATOM     17  C   UNL     1      16.521  -1.702  12.077  0.00  0.00    +0.000 C 
ATOM     18  C   UNL     1      15.533  -2.151  13.109  0.00  0.00    +0.000 C 
ATOM     19  C   UNL     1      16.231  -0.727  11.283  0.00  0.00    +0.000 C 
ATOM     20  O   UNL     1      16.322   1.490  10.594  0.00  0.00    +0.000 OA
ATOM     21  C   UNL     1      15.928   0.353  10.412  0.00  0.00    +0.000 C 
BRANCH  21  22
ATOM     22  O   UNL     1      15.183   0.006   9.349  0.00  0.00    +0.000 OA
ATOM     23  H   UNL     1      15.809  -0.465   8.761  0.00  0.00    +0.000 HD
ENDBRANCH  21  22
ENDBRANCH  16  17
ENDBRANCH  14  15
ENDBRANCH   1  14
TORSDOF 6
ENDMDL
