MODEL 1
REMARK VINA RESULT:      -8.0      0.000      0.000
REMARK  Name = SB_202190.pdbqt.pdb
REMARK  4 active torsions:
REMARK  status: ('A' for Active; 'I' for Inactive)
REMARK    1  A    between atoms: C_4  and  C_7
REMARK    2  A    between atoms: C_5  and  C_19
REMARK    3  A    between atoms: C_6  and  C_8
REMARK    4  A    between atoms: C_15  and  O_26
REMARK                            x       y       z     vdW  Elec       q    Type
REMARK                         _______ _______ _______ _____ _____    ______ ____
ROOT
ATOM      1  N   UNL     1      43.783  -2.779  12.685  0.00  0.00    +0.000 N 
ATOM      2  N   UNL     1      44.828  -3.532  10.904  0.00  0.00    +0.000 NA
ATOM      3  C   UNL     1      44.632  -1.756  12.314  0.00  0.00    +0.000 A 
ATOM      4  C   UNL     1      45.296  -2.273  11.210  0.00  0.00    +0.000 A 
ATOM      5  C   UNL     1      43.915  -3.826  11.805  0.00  0.00    +0.000 A 
ATOM      6  H   UNL     1      43.133  -2.753  13.458  0.00  0.00    +0.000 HD
ENDROOT
BRANCH   4   7
ATOM      7  C   UNL     1      46.354  -1.658  10.436  0.00  0.00    +0.000 A 
ATOM      8  C   UNL     1      46.578  -0.280  10.477  0.00  0.00    +0.000 A 
ATOM      9  C   UNL     1      47.629   0.288   9.762  0.00  0.00    +0.000 A 
ATOM     10  C   UNL     1      48.467  -0.534   9.018  0.00  0.00    +0.000 A 
ATOM     11  F   UNL     1      49.476   0.010   8.325  0.00  0.00    +0.000 F 
ATOM     12  C   UNL     1      48.272  -1.909   8.977  0.00  0.00    +0.000 A 
ATOM     13  C   UNL     1      47.218  -2.469   9.695  0.00  0.00    +0.000 A 
ENDBRANCH   4   7
BRANCH   3  15
ATOM     14  N   UNL     1      44.688   1.962  14.405  0.00  0.00    +0.000 NA
ATOM     15  C   UNL     1      44.659  -0.475  13.014  0.00  0.00    +0.000 A 
ATOM     16  C   UNL     1      43.629   0.449  12.849  0.00  0.00    +0.000 A 
ATOM     17  C   UNL     1      45.698  -0.171  13.893  0.00  0.00    +0.000 A 
ATOM     18  C   UNL     1      43.690   1.639  13.555  0.00  0.00    +0.000 A 
ATOM     19  C   UNL     1      45.669   1.048  14.551  0.00  0.00    +0.000 A 
ENDBRANCH   3  15
BRANCH   5  20
ATOM     20  C   UNL     1      43.146  -5.064  11.884  0.00  0.00    +0.000 A 
ATOM     21  C   UNL     1      43.378  -5.958  12.933  0.00  0.00    +0.000 A 
ATOM     22  C   UNL     1      42.176  -5.378  10.929  0.00  0.00    +0.000 A 
ATOM     23  C   UNL     1      42.656  -7.145  13.029  0.00  0.00    +0.000 A 
ATOM     24  C   UNL     1      41.449  -6.563  11.016  0.00  0.00    +0.000 A 
ATOM     25  C   UNL     1      41.695  -7.437  12.067  0.00  0.00    +0.000 A 
BRANCH  25  26
ATOM     26  O   UNL     1      40.971  -8.592  12.134  0.00  0.00    +0.000 OA
ATOM     27  H   UNL     1      40.741  -8.754  13.065  0.00  0.00    +0.000 HD
ENDBRANCH  25  26
ENDBRANCH   5  20
TORSDOF 4
ENDMDL
MODEL 2
REMARK VINA RESULT:      -7.8     33.799     35.496
REMARK  Name = SB_202190.pdbqt.pdb
REMARK  4 active torsions:
REMARK  status: ('A' for Active; 'I' for Inactive)
REMARK    1  A    between atoms: C_4  and  C_7
REMARK    2  A    between atoms: C_5  and  C_19
REMARK    3  A    between atoms: C_6  and  C_8
REMARK    4  A    between atoms: C_15  and  O_26
REMARK                            x       y       z     vdW  Elec       q    Type
REMARK                         _______ _______ _______ _____ _____    ______ ____
ROOT
ATOM      1  N   UNL     1      22.899  22.619   1.839  0.00  0.00    +0.000 N 
ATOM      2  N   UNL     1      22.080  22.534   3.878  0.00  0.00    +0.000 NA
ATOM      3  C   UNL     1      21.990  21.581   1.812  0.00  0.00    +0.000 A 
ATOM      4  C   UNL     1      21.516  21.534   3.116  0.00  0.00    +0.000 A 
ATOM      5  C   UNL     1      22.917  23.181   3.093  0.00  0.00    +0.000 A 
ATOM      6  H   UNL     1      23.441  22.947   1.053  0.00  0.00    +0.000 HD
ENDROOT
BRANCH   4   7
ATOM      7  C   UNL     1      20.575  20.596   3.691  0.00  0.00    +0.000 A 
ATOM      8  C   UNL     1      19.240  20.944   3.904  0.00  0.00    +0.000 A 
ATOM      9  C   UNL     1      18.337  20.014   4.415  0.00  0.00    +0.000 A 
ATOM     10  C   UNL     1      18.777  18.726   4.696  0.00  0.00    +0.000 A 
ATOM     11  F   UNL     1      17.913  17.830   5.192  0.00  0.00    +0.000 F 
ATOM     12  C   UNL     1      20.097  18.353   4.473  0.00  0.00    +0.000 A 
ATOM     13  C   UNL     1      20.992  19.290   3.963  0.00  0.00    +0.000 A 
ENDBRANCH   4   7
BRANCH   3  15
ATOM     14  N   UNL     1      21.158  19.445  -1.786  0.00  0.00    +0.000 NA
ATOM     15  C   UNL     1      21.690  20.840   0.590  0.00  0.00    +0.000 A 
ATOM     16  C   UNL     1      20.685  21.268  -0.274  0.00  0.00    +0.000 A 
ATOM     17  C   UNL     1      22.435  19.712   0.247  0.00  0.00    +0.000 A 
ATOM     18  C   UNL     1      20.458  20.544  -1.433  0.00  0.00    +0.000 A 
ATOM     19  C   UNL     1      22.128  19.055  -0.934  0.00  0.00    +0.000 A 
ENDBRANCH   3  15
BRANCH   5  20
ATOM     20  C   UNL     1      23.747  24.320   3.468  0.00  0.00    +0.000 A 
ATOM     21  C   UNL     1      24.917  24.590   2.754  0.00  0.00    +0.000 A 
ATOM     22  C   UNL     1      23.396  25.156   4.533  0.00  0.00    +0.000 A 
ATOM     23  C   UNL     1      25.726  25.672   3.093  0.00  0.00    +0.000 A 
ATOM     24  C   UNL     1      24.198  26.240   4.880  0.00  0.00    +0.000 A 
ATOM     25  C   UNL     1      25.357  26.490   4.157  0.00  0.00    +0.000 A 
BRANCH  25  26
ATOM     26  O   UNL     1      26.127  27.558   4.514  0.00  0.00    +0.000 OA
ATOM     27  H   UNL     1      26.750  27.267   5.202  0.00  0.00    +0.000 HD
ENDBRANCH  25  26
ENDBRANCH   5  20
TORSDOF 4
ENDMDL
MODEL 3
REMARK VINA RESULT:      -7.6     33.601     34.714
REMARK  Name = SB_202190.pdbqt.pdb
REMARK  4 active torsions:
REMARK  status: ('A' for Active; 'I' for Inactive)
REMARK    1  A    between atoms: C_4  and  C_7
REMARK    2  A    between atoms: C_5  and  C_19
REMARK    3  A    between atoms: C_6  and  C_8
REMARK    4  A    between atoms: C_15  and  O_26
REMARK                            x       y       z     vdW  Elec       q    Type
REMARK                         _______ _______ _______ _____ _____    ______ ____
ROOT
ATOM      1  N   UNL     1      22.041  21.996   3.770  0.00  0.00    +0.000 N 
ATOM      2  N   UNL     1      21.499  21.118   1.829  0.00  0.00    +0.000 NA
ATOM      3  C   UNL     1      22.810  22.676   2.847  0.00  0.00    +0.000 A 
ATOM      4  C   UNL     1      22.468  22.079   1.642  0.00  0.00    +0.000 A 
ATOM      5  C   UNL     1      21.252  21.077   3.122  0.00  0.00    +0.000 A 
ATOM      6  H   UNL     1      22.026  22.170   4.765  0.00  0.00    +0.000 HD
ENDROOT
BRANCH   4   7
ATOM      7  C   UNL     1      23.009  22.351   0.326  0.00  0.00    +0.000 A 
ATOM      8  C   UNL     1      23.939  21.495  -0.268  0.00  0.00    +0.000 A 
ATOM      9  C   UNL     1      24.414  21.747  -1.552  0.00  0.00    +0.000 A 
ATOM     10  C   UNL     1      23.939  22.853  -2.247  0.00  0.00    +0.000 A 
ATOM     11  F   UNL     1      24.397  23.101  -3.482  0.00  0.00    +0.000 F 
ATOM     12  C   UNL     1      23.000  23.707  -1.682  0.00  0.00    +0.000 A 
ATOM     13  C   UNL     1      22.531  23.447  -0.396  0.00  0.00    +0.000 A 
ENDBRANCH   4   7
BRANCH   3  15
ATOM     14  N   UNL     1      25.358  25.921   3.933  0.00  0.00    +0.000 NA
ATOM     15  C   UNL     1      23.694  23.774   3.228  0.00  0.00    +0.000 A 
ATOM     16  C   UNL     1      24.845  24.050   2.494  0.00  0.00    +0.000 A 
ATOM     17  C   UNL     1      23.377  24.592   4.313  0.00  0.00    +0.000 A 
ATOM     18  C   UNL     1      25.637  25.118   2.884  0.00  0.00    +0.000 A 
ATOM     19  C   UNL     1      24.235  25.635   4.623  0.00  0.00    +0.000 A 
ENDBRANCH   3  15
BRANCH   5  20
ATOM     20  C   UNL     1      20.296  20.202   3.791  0.00  0.00    +0.000 A 
ATOM     21  C   UNL     1      19.057  20.707   4.193  0.00  0.00    +0.000 A 
ATOM     22  C   UNL     1      20.592  18.858   4.041  0.00  0.00    +0.000 A 
ATOM     23  C   UNL     1      18.128  19.891   4.834  0.00  0.00    +0.000 A 
ATOM     24  C   UNL     1      19.670  18.034   4.681  0.00  0.00    +0.000 A 
ATOM     25  C   UNL     1      18.444  18.557   5.072  0.00  0.00    +0.000 A 
BRANCH  25  26
ATOM     26  O   UNL     1      17.555  17.732   5.697  0.00  0.00    +0.000 OA
ATOM     27  H   UNL     1      16.829  18.276   6.047  0.00  0.00    +0.000 HD
ENDBRANCH  25  26
ENDBRANCH   5  20
TORSDOF 4
ENDMDL
MODEL 4
REMARK VINA RESULT:      -7.6     32.784     35.142
REMARK  Name = SB_202190.pdbqt.pdb
REMARK  4 active torsions:
REMARK  status: ('A' for Active; 'I' for Inactive)
REMARK    1  A    between atoms: C_4  and  C_7
REMARK    2  A    between atoms: C_5  and  C_19
REMARK    3  A    between atoms: C_6  and  C_8
REMARK    4  A    between atoms: C_15  and  O_26
REMARK                            x       y       z     vdW  Elec       q    Type
REMARK                         _______ _______ _______ _____ _____    ______ ____
ROOT
ATOM      1  N   UNL     1      22.583  22.385   3.668  0.00  0.00    +0.000 N 
ATOM      2  N   UNL     1      23.100  22.889   1.592  0.00  0.00    +0.000 NA
ATOM      3  C   UNL     1      22.028  21.374   2.909  0.00  0.00    +0.000 A 
ATOM      4  C   UNL     1      22.345  21.737   1.608  0.00  0.00    +0.000 A 
ATOM      5  C   UNL     1      23.234  23.271   2.844  0.00  0.00    +0.000 A 
ATOM      6  H   UNL     1      22.553  22.449   4.676  0.00  0.00    +0.000 HD
ENDROOT
BRANCH   4   7
ATOM      7  C   UNL     1      21.968  21.071   0.379  0.00  0.00    +0.000 A 
ATOM      8  C   UNL     1      22.717  20.010  -0.133  0.00  0.00    +0.000 A 
ATOM      9  C   UNL     1      22.314  19.352  -1.292  0.00  0.00    +0.000 A 
ATOM     10  C   UNL     1      21.144  19.751  -1.928  0.00  0.00    +0.000 A 
ATOM     11  F   UNL     1      20.755  19.123  -3.046  0.00  0.00    +0.000 F 
ATOM     12  C   UNL     1      20.373  20.793  -1.425  0.00  0.00    +0.000 A 
ATOM     13  C   UNL     1      20.786  21.446  -0.266  0.00  0.00    +0.000 A 
ENDBRANCH   4   7
BRANCH   3  15
ATOM     14  N   UNL     1      20.004  18.032   4.623  0.00  0.00    +0.000 NA
ATOM     15  C   UNL     1      21.338  20.237   3.513  0.00  0.00    +0.000 A 
ATOM     16  C   UNL     1      19.990  20.322   3.856  0.00  0.00    +0.000 A 
ATOM     17  C   UNL     1      22.009  19.032   3.721  0.00  0.00    +0.000 A 
ATOM     18  C   UNL     1      19.377  19.207   4.404  0.00  0.00    +0.000 A 
ATOM     19  C   UNL     1      21.307  17.975   4.277  0.00  0.00    +0.000 A 
ENDBRANCH   3  15
BRANCH   5  20
ATOM     20  C   UNL     1      23.956  24.448   3.315  0.00  0.00    +0.000 A 
ATOM     21  C   UNL     1      25.190  24.778   2.749  0.00  0.00    +0.000 A 
ATOM     22  C   UNL     1      23.437  25.262   4.327  0.00  0.00    +0.000 A 
ATOM     23  C   UNL     1      25.897  25.897   3.182  0.00  0.00    +0.000 A 
ATOM     24  C   UNL     1      24.136  26.383   4.768  0.00  0.00    +0.000 A 
ATOM     25  C   UNL     1      25.361  26.692   4.191  0.00  0.00    +0.000 A 
BRANCH  25  26
ATOM     26  O   UNL     1      26.029  27.795   4.637  0.00  0.00    +0.000 OA
ATOM     27  H   UNL     1      26.861  27.501   5.048  0.00  0.00    +0.000 HD
ENDBRANCH  25  26
ENDBRANCH   5  20
TORSDOF 4
ENDMDL
MODEL 5
REMARK VINA RESULT:      -7.3      4.708      6.405
REMARK  Name = SB_202190.pdbqt.pdb
REMARK  4 active torsions:
REMARK  status: ('A' for Active; 'I' for Inactive)
REMARK    1  A    between atoms: C_4  and  C_7
REMARK    2  A    between atoms: C_5  and  C_19
REMARK    3  A    between atoms: C_6  and  C_8
REMARK    4  A    between atoms: C_15  and  O_26
REMARK                            x       y       z     vdW  Elec       q    Type
REMARK                         _______ _______ _______ _____ _____    ______ ____
ROOT
ATOM      1  N   UNL     1      45.704  -3.009  14.780  0.00  0.00    +0.000 N 
ATOM      2  N   UNL     1      45.481  -5.067  14.040  0.00  0.00    +0.000 NA
ATOM      3  C   UNL     1      44.541  -2.994  14.037  0.00  0.00    +0.000 A 
ATOM      4  C   UNL     1      44.446  -4.294  13.562  0.00  0.00    +0.000 A 
ATOM      5  C   UNL     1      46.236  -4.276  14.774  0.00  0.00    +0.000 A 
ATOM      6  H   UNL     1      46.090  -2.224  15.286  0.00  0.00    +0.000 HD
ENDROOT
BRANCH   4   7
ATOM      7  C   UNL     1      43.447  -4.848  12.672  0.00  0.00    +0.000 A 
ATOM      8  C   UNL     1      43.354  -4.441  11.339  0.00  0.00    +0.000 A 
ATOM      9  C   UNL     1      42.417  -5.017  10.485  0.00  0.00    +0.000 A 
ATOM     10  C   UNL     1      41.583  -6.018  10.969  0.00  0.00    +0.000 A 
ATOM     11  F   UNL     1      40.677  -6.572  10.152  0.00  0.00    +0.000 F 
ATOM     12  C   UNL     1      41.671  -6.451  12.287  0.00  0.00    +0.000 A 
ATOM     13  C   UNL     1      42.610  -5.868  13.134  0.00  0.00    +0.000 A 
ENDBRANCH   4   7
BRANCH   3  15
ATOM     14  N   UNL     1      42.122   0.509  13.759  0.00  0.00    +0.000 NA
ATOM     15  C   UNL     1      43.705  -1.802  13.926  0.00  0.00    +0.000 A 
ATOM     16  C   UNL     1      42.393  -1.805  14.394  0.00  0.00    +0.000 A 
ATOM     17  C   UNL     1      44.221  -0.625  13.383  0.00  0.00    +0.000 A 
ATOM     18  C   UNL     1      41.650  -0.640  14.286  0.00  0.00    +0.000 A 
ATOM     19  C   UNL     1      43.397   0.487  13.318  0.00  0.00    +0.000 A 
ENDBRANCH   3  15
BRANCH   5  20
ATOM     20  C   UNL     1      47.453  -4.657  15.482  0.00  0.00    +0.000 A 
ATOM     21  C   UNL     1      47.367  -5.434  16.640  0.00  0.00    +0.000 A 
ATOM     22  C   UNL     1      48.713  -4.261  15.025  0.00  0.00    +0.000 A 
ATOM     23  C   UNL     1      48.516  -5.810  17.333  0.00  0.00    +0.000 A 
ATOM     24  C   UNL     1      49.868  -4.632  15.710  0.00  0.00    +0.000 A 
ATOM     25  C   UNL     1      49.759  -5.404  16.859  0.00  0.00    +0.000 A 
BRANCH  25  26
ATOM     26  O   UNL     1      50.903  -5.757  17.515  0.00  0.00    +0.000 OA
ATOM     27  H   UNL     1      51.296  -4.952  17.895  0.00  0.00    +0.000 HD
ENDBRANCH  25  26
ENDBRANCH   5  20
TORSDOF 4
ENDMDL
MODEL 6
REMARK VINA RESULT:      -7.0     33.911     35.713
REMARK  Name = SB_202190.pdbqt.pdb
REMARK  4 active torsions:
REMARK  status: ('A' for Active; 'I' for Inactive)
REMARK    1  A    between atoms: C_4  and  C_7
REMARK    2  A    between atoms: C_5  and  C_19
REMARK    3  A    between atoms: C_6  and  C_8
REMARK    4  A    between atoms: C_15  and  O_26
REMARK                            x       y       z     vdW  Elec       q    Type
REMARK                         _______ _______ _______ _____ _____    ______ ____
ROOT
ATOM      1  N   UNL     1      24.146  23.803   2.166  0.00  0.00    +0.000 N 
ATOM      2  N   UNL     1      22.551  23.791   3.679  0.00  0.00    +0.000 NA
ATOM      3  C   UNL     1      24.300  24.991   2.852  0.00  0.00    +0.000 A 
ATOM      4  C   UNL     1      23.264  24.966   3.775  0.00  0.00    +0.000 A 
ATOM      5  C   UNL     1      23.094  23.098   2.700  0.00  0.00    +0.000 A 
ATOM      6  H   UNL     1      24.736  23.477   1.414  0.00  0.00    +0.000 HD
ENDROOT
BRANCH   4   7
ATOM      7  C   UNL     1      22.896  25.989   4.731  0.00  0.00    +0.000 A 
ATOM      8  C   UNL     1      23.556  26.110   5.956  0.00  0.00    +0.000 A 
ATOM      9  C   UNL     1      23.220  27.128   6.845  0.00  0.00    +0.000 A 
ATOM     10  C   UNL     1      22.229  28.037   6.492  0.00  0.00    +0.000 A 
ATOM     11  F   UNL     1      21.900  29.015   7.346  0.00  0.00    +0.000 F 
ATOM     12  C   UNL     1      21.572  27.946   5.271  0.00  0.00    +0.000 A 
ATOM     13  C   UNL     1      21.915  26.923   4.389  0.00  0.00    +0.000 A 
ENDBRANCH   4   7
BRANCH   3  15
ATOM     14  N   UNL     1      27.452  27.746   2.035  0.00  0.00    +0.000 NA
ATOM     15  C   UNL     1      25.389  25.920   2.564  0.00  0.00    +0.000 A 
ATOM     16  C   UNL     1      25.485  26.541   1.320  0.00  0.00    +0.000 A 
ATOM     17  C   UNL     1      26.330  26.232   3.544  0.00  0.00    +0.000 A 
ATOM     18  C   UNL     1      26.524  27.433   1.107  0.00  0.00    +0.000 A 
ATOM     19  C   UNL     1      27.333  27.135   3.231  0.00  0.00    +0.000 A 
ENDBRANCH   3  15
BRANCH   5  20
ATOM     20  C   UNL     1      22.668  21.783   2.232  0.00  0.00    +0.000 A 
ATOM     21  C   UNL     1      21.799  21.017   3.014  0.00  0.00    +0.000 A 
ATOM     22  C   UNL     1      23.111  21.268   1.011  0.00  0.00    +0.000 A 
ATOM     23  C   UNL     1      21.378  19.760   2.588  0.00  0.00    +0.000 A 
ATOM     24  C   UNL     1      22.696  20.012   0.576  0.00  0.00    +0.000 A 
ATOM     25  C   UNL     1      21.832  19.267   1.369  0.00  0.00    +0.000 A 
BRANCH  25  26
ATOM     26  O   UNL     1      21.438  18.039   0.924  0.00  0.00    +0.000 OA
ATOM     27  H   UNL     1      21.248  17.481   1.698  0.00  0.00    +0.000 HD
ENDBRANCH  25  26
ENDBRANCH   5  20
TORSDOF 4
ENDMDL
MODEL 7
REMARK VINA RESULT:      -6.4     34.516     36.766
REMARK  Name = SB_202190.pdbqt.pdb
REMARK  4 active torsions:
REMARK  status: ('A' for Active; 'I' for Inactive)
REMARK    1  A    between atoms: C_4  and  C_7
REMARK    2  A    between atoms: C_5  and  C_19
REMARK    3  A    between atoms: C_6  and  C_8
REMARK    4  A    between atoms: C_15  and  O_26
REMARK                            x       y       z     vdW  Elec       q    Type
REMARK                         _______ _______ _______ _____ _____    ______ ____
ROOT
ATOM      1  N   UNL     1      24.728  20.135  32.615  0.00  0.00    +0.000 N 
ATOM      2  N   UNL     1      24.805  17.948  32.407  0.00  0.00    +0.000 NA
ATOM      3  C   UNL     1      23.526  19.792  32.030  0.00  0.00    +0.000 A 
ATOM      4  C   UNL     1      23.619  18.415  31.885  0.00  0.00    +0.000 A 
ATOM      5  C   UNL     1      25.467  18.999  32.843  0.00  0.00    +0.000 A 
ATOM      6  H   UNL     1      25.011  21.069  32.875  0.00  0.00    +0.000 HD
ENDROOT
BRANCH   4   7
ATOM      7  C   UNL     1      22.664  17.516  31.272  0.00  0.00    +0.000 A 
ATOM      8  C   UNL     1      22.989  16.778  30.132  0.00  0.00    +0.000 A 
ATOM      9  C   UNL     1      22.075  15.883  29.582  0.00  0.00    +0.000 A 
ATOM     10  C   UNL     1      20.837  15.718  30.191  0.00  0.00    +0.000 A 
ATOM     11  F   UNL     1      19.953  14.861  29.663  0.00  0.00    +0.000 F 
ATOM     12  C   UNL     1      20.500  16.428  31.337  0.00  0.00    +0.000 A 
ATOM     13  C   UNL     1      21.421  17.322  31.879  0.00  0.00    +0.000 A 
ENDBRANCH   4   7
BRANCH   3  15
ATOM     14  N   UNL     1      20.545  22.721  31.169  0.00  0.00    +0.000 NA
ATOM     15  C   UNL     1      22.492  20.782  31.740  0.00  0.00    +0.000 A 
ATOM     16  C   UNL     1      21.969  21.583  32.753  0.00  0.00    +0.000 A 
ATOM     17  C   UNL     1      22.038  20.970  30.435  0.00  0.00    +0.000 A 
ATOM     18  C   UNL     1      21.007  22.523  32.422  0.00  0.00    +0.000 A 
ATOM     19  C   UNL     1      21.071  21.936  30.206  0.00  0.00    +0.000 A 
ENDBRANCH   3  15
BRANCH   5  20
ATOM     20  C   UNL     1      26.782  18.991  33.474  0.00  0.00    +0.000 A 
ATOM     21  C   UNL     1      27.599  17.862  33.360  0.00  0.00    +0.000 A 
ATOM     22  C   UNL     1      27.249  20.093  34.195  0.00  0.00    +0.000 A 
ATOM     23  C   UNL     1      28.859  17.832  33.953  0.00  0.00    +0.000 A 
ATOM     24  C   UNL     1      28.507  20.073  34.792  0.00  0.00    +0.000 A 
ATOM     25  C   UNL     1      29.302  18.941  34.666  0.00  0.00    +0.000 A 
BRANCH  25  26
ATOM     26  O   UNL     1      30.532  18.942  35.258  0.00  0.00    +0.000 OA
ATOM     27  H   UNL     1      30.411  18.772  36.209  0.00  0.00    +0.000 HD
ENDBRANCH  25  26
ENDBRANCH   5  20
TORSDOF 4
ENDMDL
MODEL 8
REMARK VINA RESULT:      -6.3     35.316     38.489
REMARK  Name = SB_202190.pdbqt.pdb
REMARK  4 active torsions:
REMARK  status: ('A' for Active; 'I' for Inactive)
REMARK    1  A    between atoms: C_4  and  C_7
REMARK    2  A    between atoms: C_5  and  C_19
REMARK    3  A    between atoms: C_6  and  C_8
REMARK    4  A    between atoms: C_15  and  O_26
REMARK                            x       y       z     vdW  Elec       q    Type
REMARK                         _______ _______ _______ _____ _____    ______ ____
ROOT
ATOM      1  N   UNL     1      19.248  20.020  32.150  0.00  0.00    +0.000 N 
ATOM      2  N   UNL     1      20.442  18.181  31.992  0.00  0.00    +0.000 NA
ATOM      3  C   UNL     1      20.491  20.440  31.720  0.00  0.00    +0.000 A 
ATOM      4  C   UNL     1      21.226  19.264  31.660  0.00  0.00    +0.000 A 
ATOM      5  C   UNL     1      19.250  18.652  32.288  0.00  0.00    +0.000 A 
ATOM      6  H   UNL     1      18.446  20.614  32.303  0.00  0.00    +0.000 HD
ENDROOT
BRANCH   4   7
ATOM      7  C   UNL     1      22.624  19.102  31.323  0.00  0.00    +0.000 A 
ATOM      8  C   UNL     1      23.547  18.628  32.258  0.00  0.00    +0.000 A 
ATOM      9  C   UNL     1      24.880  18.434  31.904  0.00  0.00    +0.000 A 
ATOM     10  C   UNL     1      25.281  18.702  30.601  0.00  0.00    +0.000 A 
ATOM     11  F   UNL     1      26.564  18.522  30.257  0.00  0.00    +0.000 F 
ATOM     12  C   UNL     1      24.376  19.157  29.649  0.00  0.00    +0.000 A 
ATOM     13  C   UNL     1      23.045  19.349  30.014  0.00  0.00    +0.000 A 
ENDBRANCH   4   7
BRANCH   3  15
ATOM     14  N   UNL     1      21.357  24.507  30.767  0.00  0.00    +0.000 NA
ATOM     15  C   UNL     1      20.773  21.838  31.406  0.00  0.00    +0.000 A 
ATOM     16  C   UNL     1      21.599  22.600  32.229  0.00  0.00    +0.000 A 
ATOM     17  C   UNL     1      20.252  22.422  30.252  0.00  0.00    +0.000 A 
ATOM     18  C   UNL     1      21.855  23.914  31.873  0.00  0.00    +0.000 A 
ATOM     19  C   UNL     1      20.565  23.745  29.985  0.00  0.00    +0.000 A 
ENDBRANCH   3  15
BRANCH   5  20
ATOM     20  C   UNL     1      18.090  17.871  32.703  0.00  0.00    +0.000 A 
ATOM     21  C   UNL     1      16.817  18.448  32.671  0.00  0.00    +0.000 A 
ATOM     22  C   UNL     1      18.221  16.547  33.133  0.00  0.00    +0.000 A 
ATOM     23  C   UNL     1      15.695  17.721  33.062  0.00  0.00    +0.000 A 
ATOM     24  C   UNL     1      17.106  15.812  33.526  0.00  0.00    +0.000 A 
ATOM     25  C   UNL     1      15.851  16.405  33.486  0.00  0.00    +0.000 A 
BRANCH  25  26
ATOM     26  O   UNL     1      14.771  15.667  33.875  0.00  0.00    +0.000 OA
ATOM     27  H   UNL     1      15.093  14.820  34.229  0.00  0.00    +0.000 HD
ENDBRANCH  25  26
ENDBRANCH   5  20
TORSDOF 4
ENDMDL
MODEL 9
REMARK VINA RESULT:      -6.3     13.247     17.873
REMARK  Name = SB_202190.pdbqt.pdb
REMARK  4 active torsions:
REMARK  status: ('A' for Active; 'I' for Inactive)
REMARK    1  A    between atoms: C_4  and  C_7
REMARK    2  A    between atoms: C_5  and  C_19
REMARK    3  A    between atoms: C_6  and  C_8
REMARK    4  A    between atoms: C_15  and  O_26
REMARK                            x       y       z     vdW  Elec       q    Type
REMARK                         _______ _______ _______ _____ _____    ______ ____
ROOT
ATOM      1  N   UNL     1      42.347  12.133  17.350  0.00  0.00    +0.000 N 
ATOM      2  N   UNL     1      40.657  12.743  18.617  0.00  0.00    +0.000 NA
ATOM      3  C   UNL     1      41.807  10.950  17.815  0.00  0.00    +0.000 A 
ATOM      4  C   UNL     1      40.766  11.370  18.632  0.00  0.00    +0.000 A 
ATOM      5  C   UNL     1      41.620  13.192  17.840  0.00  0.00    +0.000 A 
ATOM      6  H   UNL     1      43.129  12.213  16.717  0.00  0.00    +0.000 HD
ENDROOT
BRANCH   4   7
ATOM      7  C   UNL     1      39.879  10.557  19.436  0.00  0.00    +0.000 A 
ATOM      8  C   UNL     1      40.019  10.482  20.823  0.00  0.00    +0.000 A 
ATOM      9  C   UNL     1      39.128   9.731  21.586  0.00  0.00    +0.000 A 
ATOM     10  C   UNL     1      38.083   9.068  20.953  0.00  0.00    +0.000 A 
ATOM     11  F   UNL     1      37.227   8.341  21.683  0.00  0.00    +0.000 F 
ATOM     12  C   UNL     1      37.915   9.144  19.575  0.00  0.00    +0.000 A 
ATOM     13  C   UNL     1      38.812   9.896  18.821  0.00  0.00    +0.000 A 
ENDBRANCH   4   7
BRANCH   3  15
ATOM     14  N   UNL     1      43.348   7.155  16.621  0.00  0.00    +0.000 NA
ATOM     15  C   UNL     1      42.317   9.646  17.400  0.00  0.00    +0.000 A 
ATOM     16  C   UNL     1      42.717   9.424  16.084  0.00  0.00    +0.000 A 
ATOM     17  C   UNL     1      42.449   8.612  18.325  0.00  0.00    +0.000 A 
ATOM     18  C   UNL     1      43.216   8.176  15.748  0.00  0.00    +0.000 A 
ATOM     19  C   UNL     1      42.958   7.399  17.889  0.00  0.00    +0.000 A 
ENDBRANCH   3  15
BRANCH   5  20
ATOM     20  C   UNL     1      41.899  14.589  17.528  0.00  0.00    +0.000 A 
ATOM     21  C   UNL     1      41.820  15.553  18.537  0.00  0.00    +0.000 A 
ATOM     22  C   UNL     1      42.247  14.990  16.235  0.00  0.00    +0.000 A 
ATOM     23  C   UNL     1      42.082  16.894  18.263  0.00  0.00    +0.000 A 
ATOM     24  C   UNL     1      42.511  16.327  15.951  0.00  0.00    +0.000 A 
ATOM     25  C   UNL     1      42.427  17.269  16.969  0.00  0.00    +0.000 A 
BRANCH  25  26
ATOM     26  O   UNL     1      42.690  18.574  16.669  0.00  0.00    +0.000 OA
ATOM     27  H   UNL     1      41.854  19.071  16.712  0.00  0.00    +0.000 HD
ENDBRANCH  25  26
ENDBRANCH   5  20
TORSDOF 4
ENDMDL
