MODEL 1
REMARK VINA RESULT:      -7.4      0.000      0.000
REMARK  Name = Simvastatin.pdbqt.pdb
REMARK  7 active torsions:
REMARK  status: ('A' for Active; 'I' for Inactive)
REMARK    1  A    between atoms: C_2  and  C_13
REMARK    2  A    between atoms: C_3  and  O_24
REMARK    3  A    between atoms: C_14  and  C_15
REMARK    4  A    between atoms: C_20  and  O_22
REMARK    5  A    between atoms: O_24  and  C_25
REMARK    6  A    between atoms: C_25  and  C_27
REMARK    7  A    between atoms: C_27  and  C_30
REMARK                            x       y       z     vdW  Elec       q    Type
REMARK                         _______ _______ _______ _____ _____    ______ ____
ROOT
ATOM      1  C   UNL     1      26.531  -2.922  14.416  0.00  0.00    +0.000 A 
ATOM      2  C   UNL     1      25.079  -2.512  14.546  0.00  0.00    +0.000 A 
ATOM      3  C   UNL     1      27.225  -3.956  15.263  0.00  0.00    +0.000 A 
ATOM      4  C   UNL     1      24.439  -1.706  13.473  0.00  0.00    +0.000 A 
ATOM      5  C   UNL     1      27.334  -2.279  13.264  0.00  0.00    +0.000 A 
ATOM      6  C   UNL     1      28.571  -4.191  14.818  0.00  0.00    +0.000 A 
ATOM      7  C   UNL     1      29.362  -3.688  13.737  0.00  0.00    +0.000 A 
ATOM      8  C   UNL     1      28.536  -2.734  13.069  0.00  0.00    +0.000 A 
ATOM      9  C   UNL     1      25.363  -1.332  12.454  0.00  0.00    +0.000 A 
ATOM     10  C   UNL     1      26.537  -1.554  12.351  0.00  0.00    +0.000 A 
ATOM     11  C   UNL     1      23.014  -1.246  13.431  0.00  0.00    +0.000 C 
ATOM     12  C   UNL     1      30.226  -4.620  12.949  0.00  0.00    +0.000 C 
ENDROOT
BRANCH   2  13
ATOM     13  C   UNL     1      24.410  -2.716  15.789  0.00  0.00    +0.000 C 
ATOM     14  C   UNL     1      23.628  -2.942  17.088  0.00  0.00    +0.000 C 
BRANCH  14  15
ATOM     15  C   UNL     1      22.859  -3.178  18.253  0.00  0.00    +0.000 C 
ATOM     16  O   UNL     1      23.563  -3.481  19.475  0.00  0.00    +0.000 OA
ATOM     17  C   UNL     1      22.857  -3.776  20.645  0.00  0.00    +0.000 C 
ATOM     18  O   UNL     1      23.385  -4.042  21.714  0.00  0.00    +0.000 OA
ATOM     19  C   UNL     1      21.424  -3.750  20.489  0.00  0.00    +0.000 C 
ATOM     20  C   UNL     1      20.572  -3.490  19.394  0.00  0.00    +0.000 C 
ATOM     21  C   UNL     1      21.440  -3.212  18.315  0.00  0.00    +0.000 C 
BRANCH  20  22
ATOM     22  O   UNL     1      19.387  -4.149  19.243  0.00  0.00    +0.000 OA
ATOM     23  H   UNL     1      18.644  -3.544  19.055  0.00  0.00    +0.000 HD
ENDBRANCH  20  22
ENDBRANCH  14  15
ENDBRANCH   2  13
BRANCH   3  24
ATOM     24  O   UNL     1      26.441  -5.060  15.611  0.00  0.00    +0.000 OA
BRANCH  24  25
ATOM     25  C   UNL     1      27.169  -6.236  15.642  0.00  0.00    +0.000 C 
ATOM     26  O   UNL     1      27.673  -6.751  14.642  0.00  0.00    +0.000 OA
BRANCH  25  27
ATOM     27  C   UNL     1      27.237  -6.815  17.098  0.00  0.00    +0.000 C 
ATOM     28  C   UNL     1      27.111  -8.384  17.042  0.00  0.00    +0.000 C 
ATOM     29  C   UNL     1      26.061  -6.245  17.990  0.00  0.00    +0.000 C 
BRANCH  27  30
ATOM     30  C   UNL     1      28.545  -6.401  17.678  0.00  0.00    +0.000 C 
ATOM     31  C   UNL     1      29.936  -5.992  18.247  0.00  0.00    +0.000 C 
ENDBRANCH  27  30
ENDBRANCH  25  27
ENDBRANCH  24  25
ENDBRANCH   3  24
TORSDOF 7
ENDMDL
MODEL 2
REMARK VINA RESULT:      -7.2      1.622      2.827
REMARK  Name = Simvastatin.pdbqt.pdb
REMARK  7 active torsions:
REMARK  status: ('A' for Active; 'I' for Inactive)
REMARK    1  A    between atoms: C_2  and  C_13
REMARK    2  A    between atoms: C_3  and  O_24
REMARK    3  A    between atoms: C_14  and  C_15
REMARK    4  A    between atoms: C_20  and  O_22
REMARK    5  A    between atoms: O_24  and  C_25
REMARK    6  A    between atoms: C_25  and  C_27
REMARK    7  A    between atoms: C_27  and  C_30
REMARK                            x       y       z     vdW  Elec       q    Type
REMARK                         _______ _______ _______ _____ _____    ______ ____
ROOT
ATOM      1  C   UNL     1      26.507  -3.254  13.867  0.00  0.00    +0.000 A 
ATOM      2  C   UNL     1      25.233  -2.457  14.044  0.00  0.00    +0.000 A 
ATOM      3  C   UNL     1      26.823  -4.557  14.553  0.00  0.00    +0.000 A 
ATOM      4  C   UNL     1      24.915  -1.352  13.100  0.00  0.00    +0.000 A 
ATOM      5  C   UNL     1      27.524  -2.719  12.836  0.00  0.00    +0.000 A 
ATOM      6  C   UNL     1      28.066  -5.114  14.090  0.00  0.00    +0.000 A 
ATOM      7  C   UNL     1      29.027  -4.717  13.107  0.00  0.00    +0.000 A 
ATOM      8  C   UNL     1      28.552  -3.475  12.586  0.00  0.00    +0.000 A 
ATOM      9  C   UNL     1      25.962  -1.126  12.160  0.00  0.00    +0.000 A 
ATOM     10  C   UNL     1      27.024  -1.668  12.037  0.00  0.00    +0.000 A 
ATOM     11  C   UNL     1      23.689  -0.491  13.114  0.00  0.00    +0.000 C 
ATOM     12  C   UNL     1      29.625  -5.740  12.195  0.00  0.00    +0.000 C 
ENDROOT
BRANCH   2  13
ATOM     13  C   UNL     1      24.466  -2.630  15.233  0.00  0.00    +0.000 C 
ATOM     14  C   UNL     1      23.634  -2.886  16.496  0.00  0.00    +0.000 C 
BRANCH  14  15
ATOM     15  C   UNL     1      22.880  -3.185  17.655  0.00  0.00    +0.000 C 
ATOM     16  O   UNL     1      21.445  -3.058  17.576  0.00  0.00    +0.000 OA
ATOM     17  C   UNL     1      20.650  -3.288  18.704  0.00  0.00    +0.000 C 
ATOM     18  O   UNL     1      19.431  -3.200  18.711  0.00  0.00    +0.000 OA
ATOM     19  C   UNL     1      21.396  -3.639  19.887  0.00  0.00    +0.000 C 
ATOM     20  C   UNL     1      22.772  -3.798  20.153  0.00  0.00    +0.000 C 
ATOM     21  C   UNL     1      23.415  -3.535  18.923  0.00  0.00    +0.000 C 
BRANCH  20  22
ATOM     22  O   UNL     1      23.307  -3.451  21.359  0.00  0.00    +0.000 OA
ATOM     23  H   UNL     1      24.240  -3.170  21.288  0.00  0.00    +0.000 HD
ENDBRANCH  20  22
ENDBRANCH  14  15
ENDBRANCH   2  13
BRANCH   3  24
ATOM     24  O   UNL     1      25.735  -5.419  14.718  0.00  0.00    +0.000 OA
BRANCH  24  25
ATOM     25  C   UNL     1      25.567  -5.811  16.034  0.00  0.00    +0.000 C 
ATOM     26  O   UNL     1      26.275  -5.410  16.960  0.00  0.00    +0.000 OA
BRANCH  25  27
ATOM     27  C   UNL     1      24.385  -6.833  16.167  0.00  0.00    +0.000 C 
ATOM     28  C   UNL     1      23.995  -6.986  17.686  0.00  0.00    +0.000 C 
ATOM     29  C   UNL     1      24.797  -8.253  15.606  0.00  0.00    +0.000 C 
BRANCH  27  30
ATOM     30  C   UNL     1      23.245  -6.297  15.372  0.00  0.00    +0.000 C 
ATOM     31  C   UNL     1      22.082  -5.698  14.527  0.00  0.00    +0.000 C 
ENDBRANCH  27  30
ENDBRANCH  25  27
ENDBRANCH  24  25
ENDBRANCH   3  24
TORSDOF 7
ENDMDL
MODEL 3
REMARK VINA RESULT:      -7.2      1.232      2.044
REMARK  Name = Simvastatin.pdbqt.pdb
REMARK  7 active torsions:
REMARK  status: ('A' for Active; 'I' for Inactive)
REMARK    1  A    between atoms: C_2  and  C_13
REMARK    2  A    between atoms: C_3  and  O_24
REMARK    3  A    between atoms: C_14  and  C_15
REMARK    4  A    between atoms: C_20  and  O_22
REMARK    5  A    between atoms: O_24  and  C_25
REMARK    6  A    between atoms: C_25  and  C_27
REMARK    7  A    between atoms: C_27  and  C_30
REMARK                            x       y       z     vdW  Elec       q    Type
REMARK                         _______ _______ _______ _____ _____    ______ ____
ROOT
ATOM      1  C   UNL     1      26.530  -2.857  14.523  0.00  0.00    +0.000 A 
ATOM      2  C   UNL     1      25.064  -2.490  14.601  0.00  0.00    +0.000 A 
ATOM      3  C   UNL     1      27.240  -3.815  15.443  0.00  0.00    +0.000 A 
ATOM      4  C   UNL     1      24.421  -1.770  13.469  0.00  0.00    +0.000 A 
ATOM      5  C   UNL     1      27.336  -2.256  13.352  0.00  0.00    +0.000 A 
ATOM      6  C   UNL     1      28.603  -4.030  15.039  0.00  0.00    +0.000 A 
ATOM      7  C   UNL     1      29.399  -3.565  13.946  0.00  0.00    +0.000 A 
ATOM      8  C   UNL     1      28.557  -2.679  13.207  0.00  0.00    +0.000 A 
ATOM      9  C   UNL     1      25.354  -1.425  12.449  0.00  0.00    +0.000 A 
ATOM     10  C   UNL     1      26.536  -1.612  12.382  0.00  0.00    +0.000 A 
ATOM     11  C   UNL     1      22.983  -1.362  13.372  0.00  0.00    +0.000 C 
ATOM     12  C   UNL     1      30.310  -4.511  13.232  0.00  0.00    +0.000 C 
ENDROOT
BRANCH   2  13
ATOM     13  C   UNL     1      24.375  -2.643  15.840  0.00  0.00    +0.000 C 
ATOM     14  C   UNL     1      23.604  -2.869  17.146  0.00  0.00    +0.000 C 
BRANCH  14  15
ATOM     15  C   UNL     1      22.885  -3.139  18.335  0.00  0.00    +0.000 C 
ATOM     16  O   UNL     1      23.638  -3.512  19.507  0.00  0.00    +0.000 OA
ATOM     17  C   UNL     1      22.981  -3.842  20.697  0.00  0.00    +0.000 C 
ATOM     18  O   UNL     1      23.552  -4.166  21.727  0.00  0.00    +0.000 OA
ATOM     19  C   UNL     1      21.543  -3.777  20.611  0.00  0.00    +0.000 C 
ATOM     20  C   UNL     1      20.648  -3.450  19.570  0.00  0.00    +0.000 C 
ATOM     21  C   UNL     1      21.471  -3.144  18.463  0.00  0.00    +0.000 C 
BRANCH  20  22
ATOM     22  O   UNL     1      19.441  -4.075  19.448  0.00  0.00    +0.000 OA
ATOM     23  H   UNL     1      19.412  -4.928  19.921  0.00  0.00    +0.000 HD
ENDBRANCH  20  22
ENDBRANCH  14  15
ENDBRANCH   2  13
BRANCH   3  24
ATOM     24  O   UNL     1      26.485  -4.924  15.840  0.00  0.00    +0.000 OA
BRANCH  24  25
ATOM     25  C   UNL     1      26.996  -6.113  15.352  0.00  0.00    +0.000 C 
ATOM     26  O   UNL     1      28.025  -6.639  15.781  0.00  0.00    +0.000 OA
BRANCH  25  27
ATOM     27  C   UNL     1      26.108  -6.667  14.184  0.00  0.00    +0.000 C 
ATOM     28  C   UNL     1      24.657  -6.064  14.300  0.00  0.00    +0.000 C 
ATOM     29  C   UNL     1      26.007  -8.244  14.248  0.00  0.00    +0.000 C 
BRANCH  27  30
ATOM     30  C   UNL     1      26.757  -6.262  12.905  0.00  0.00    +0.000 C 
ATOM     31  C   UNL     1      27.478  -5.851  11.588  0.00  0.00    +0.000 C 
ENDBRANCH  27  30
ENDBRANCH  25  27
ENDBRANCH  24  25
ENDBRANCH   3  24
TORSDOF 7
ENDMDL
MODEL 4
REMARK VINA RESULT:      -7.0      0.965      2.060
REMARK  Name = Simvastatin.pdbqt.pdb
REMARK  7 active torsions:
REMARK  status: ('A' for Active; 'I' for Inactive)
REMARK    1  A    between atoms: C_2  and  C_13
REMARK    2  A    between atoms: C_3  and  O_24
REMARK    3  A    between atoms: C_14  and  C_15
REMARK    4  A    between atoms: C_20  and  O_22
REMARK    5  A    between atoms: O_24  and  C_25
REMARK    6  A    between atoms: C_25  and  C_27
REMARK    7  A    between atoms: C_27  and  C_30
REMARK                            x       y       z     vdW  Elec       q    Type
REMARK                         _______ _______ _______ _____ _____    ______ ____
ROOT
ATOM      1  C   UNL     1      26.410  -3.109  15.000  0.00  0.00    +0.000 A 
ATOM      2  C   UNL     1      24.928  -2.884  15.209  0.00  0.00    +0.000 A 
ATOM      3  C   UNL     1      27.290  -3.977  15.860  0.00  0.00    +0.000 A 
ATOM      4  C   UNL     1      24.118  -2.249  14.135  0.00  0.00    +0.000 A 
ATOM      5  C   UNL     1      27.044  -2.452  13.755  0.00  0.00    +0.000 A 
ATOM      6  C   UNL     1      28.626  -4.066  15.334  0.00  0.00    +0.000 A 
ATOM      7  C   UNL     1      29.270  -3.544  14.168  0.00  0.00    +0.000 A 
ATOM      8  C   UNL     1      28.282  -2.758  13.503  0.00  0.00    +0.000 A 
ATOM      9  C   UNL     1      24.916  -1.833  13.030  0.00  0.00    +0.000 A 
ATOM     10  C   UNL     1      26.100  -1.906  12.857  0.00  0.00    +0.000 A 
ATOM     11  C   UNL     1      22.644  -1.984  14.167  0.00  0.00    +0.000 C 
ATOM     12  C   UNL     1      30.202  -4.411  13.382  0.00  0.00    +0.000 C 
ENDROOT
BRANCH   2  13
ATOM     13  C   UNL     1      24.372  -3.082  16.507  0.00  0.00    +0.000 C 
ATOM     14  C   UNL     1      23.719  -3.330  17.872  0.00  0.00    +0.000 C 
BRANCH  14  15
ATOM     15  C   UNL     1      23.082  -3.607  19.105  0.00  0.00    +0.000 C 
ATOM     16  O   UNL     1      21.691  -3.247  19.240  0.00  0.00    +0.000 OA
ATOM     17  C   UNL     1      21.021  -3.446  20.451  0.00  0.00    +0.000 C 
ATOM     18  O   UNL     1      19.847  -3.166  20.638  0.00  0.00    +0.000 OA
ATOM     19  C   UNL     1      21.844  -4.014  21.490  0.00  0.00    +0.000 C 
ATOM     20  C   UNL     1      23.197  -4.413  21.547  0.00  0.00    +0.000 C 
ATOM     21  C   UNL     1      23.709  -4.148  20.258  0.00  0.00    +0.000 C 
BRANCH  20  22
ATOM     22  O   UNL     1      23.935  -4.264  22.685  0.00  0.00    +0.000 OA
ATOM     23  H   UNL     1      23.567  -3.584  23.282  0.00  0.00    +0.000 HD
ENDBRANCH  20  22
ENDBRANCH  14  15
ENDBRANCH   2  13
BRANCH   3  24
ATOM     24  O   UNL     1      26.687  -5.147  16.333  0.00  0.00    +0.000 OA
BRANCH  24  25
ATOM     25  C   UNL     1      27.485  -6.262  16.153  0.00  0.00    +0.000 C 
ATOM     26  O   UNL     1      27.781  -6.717  15.046  0.00  0.00    +0.000 OA
BRANCH  25  27
ATOM     27  C   UNL     1      27.926  -6.863  17.533  0.00  0.00    +0.000 C 
ATOM     28  C   UNL     1      26.825  -6.552  18.615  0.00  0.00    +0.000 C 
ATOM     29  C   UNL     1      29.298  -6.236  18.012  0.00  0.00    +0.000 C 
BRANCH  27  30
ATOM     30  C   UNL     1      28.092  -8.332  17.342  0.00  0.00    +0.000 C 
ATOM     31  C   UNL     1      28.272  -9.859  17.095  0.00  0.00    +0.000 C 
ENDBRANCH  27  30
ENDBRANCH  25  27
ENDBRANCH  24  25
ENDBRANCH   3  24
TORSDOF 7
ENDMDL
MODEL 5
REMARK VINA RESULT:      -6.7     26.588     29.447
REMARK  Name = Simvastatin.pdbqt.pdb
REMARK  7 active torsions:
REMARK  status: ('A' for Active; 'I' for Inactive)
REMARK    1  A    between atoms: C_2  and  C_13
REMARK    2  A    between atoms: C_3  and  O_24
REMARK    3  A    between atoms: C_14  and  C_15
REMARK    4  A    between atoms: C_20  and  O_22
REMARK    5  A    between atoms: O_24  and  C_25
REMARK    6  A    between atoms: C_25  and  C_27
REMARK    7  A    between atoms: C_27  and  C_30
REMARK                            x       y       z     vdW  Elec       q    Type
REMARK                         _______ _______ _______ _____ _____    ______ ____
ROOT
ATOM      1  C   UNL     1      20.106  17.741  31.807  0.00  0.00    +0.000 A 
ATOM      2  C   UNL     1      19.490  18.916  32.536  0.00  0.00    +0.000 A 
ATOM      3  C   UNL     1      21.470  17.729  31.168  0.00  0.00    +0.000 A 
ATOM      4  C   UNL     1      18.274  18.714  33.369  0.00  0.00    +0.000 A 
ATOM      5  C   UNL     1      19.294  16.428  31.794  0.00  0.00    +0.000 A 
ATOM      6  C   UNL     1      21.803  16.430  30.651  0.00  0.00    +0.000 A 
ATOM      7  C   UNL     1      21.141  15.161  30.652  0.00  0.00    +0.000 A 
ATOM      8  C   UNL     1      19.883  15.385  31.289  0.00  0.00    +0.000 A 
ATOM      9  C   UNL     1      17.778  17.381  33.287  0.00  0.00    +0.000 A 
ATOM     10  C   UNL     1      18.175  16.442  32.656  0.00  0.00    +0.000 A 
ATOM     11  C   UNL     1      17.561  19.757  34.175  0.00  0.00    +0.000 C 
ATOM     12  C   UNL     1      21.918  13.915  30.932  0.00  0.00    +0.000 C 
ENDROOT
BRANCH   2  13
ATOM     13  C   UNL     1      19.949  20.233  32.241  0.00  0.00    +0.000 C 
ATOM     14  C   UNL     1      20.490  21.644  31.979  0.00  0.00    +0.000 C 
BRANCH  14  15
ATOM     15  C   UNL     1      21.044  22.929  31.769  0.00  0.00    +0.000 C 
ATOM     16  O   UNL     1      21.660  23.589  32.895  0.00  0.00    +0.000 OA
ATOM     17  C   UNL     1      22.176  24.882  32.763  0.00  0.00    +0.000 C 
ATOM     18  O   UNL     1      22.710  25.501  33.671  0.00  0.00    +0.000 OA
ATOM     19  C   UNL     1      22.021  25.445  31.445  0.00  0.00    +0.000 C 
ATOM     20  C   UNL     1      21.448  24.966  30.247  0.00  0.00    +0.000 C 
ATOM     21  C   UNL     1      20.987  23.667  30.557  0.00  0.00    +0.000 C 
BRANCH  20  22
ATOM     22  O   UNL     1      20.795  25.800  29.388  0.00  0.00    +0.000 OA
ATOM     23  H   UNL     1      20.212  25.319  28.770  0.00  0.00    +0.000 HD
ENDBRANCH  20  22
ENDBRANCH  14  15
ENDBRANCH   2  13
BRANCH   3  24
ATOM     24  O   UNL     1      22.455  18.437  31.862  0.00  0.00    +0.000 OA
BRANCH  24  25
ATOM     25  C   UNL     1      23.180  19.279  31.039  0.00  0.00    +0.000 C 
ATOM     26  O   UNL     1      22.775  19.676  29.944  0.00  0.00    +0.000 OA
BRANCH  25  27
ATOM     27  C   UNL     1      24.570  19.628  31.677  0.00  0.00    +0.000 C 
ATOM     28  C   UNL     1      25.712  18.908  30.867  0.00  0.00    +0.000 C 
ATOM     29  C   UNL     1      24.638  19.148  33.183  0.00  0.00    +0.000 C 
BRANCH  27  30
ATOM     30  C   UNL     1      24.722  21.109  31.620  0.00  0.00    +0.000 C 
ATOM     31  C   UNL     1      24.883  22.654  31.512  0.00  0.00    +0.000 C 
ENDBRANCH  27  30
ENDBRANCH  25  27
ENDBRANCH  24  25
ENDBRANCH   3  24
TORSDOF 7
ENDMDL
MODEL 6
REMARK VINA RESULT:      -6.7     13.010     17.258
REMARK  Name = Simvastatin.pdbqt.pdb
REMARK  7 active torsions:
REMARK  status: ('A' for Active; 'I' for Inactive)
REMARK    1  A    between atoms: C_2  and  C_13
REMARK    2  A    between atoms: C_3  and  O_24
REMARK    3  A    between atoms: C_14  and  C_15
REMARK    4  A    between atoms: C_20  and  O_22
REMARK    5  A    between atoms: O_24  and  C_25
REMARK    6  A    between atoms: C_25  and  C_27
REMARK    7  A    between atoms: C_27  and  C_30
REMARK                            x       y       z     vdW  Elec       q    Type
REMARK                         _______ _______ _______ _____ _____    ______ ____
ROOT
ATOM      1  C   UNL     1      15.658   3.676   4.599  0.00  0.00    +0.000 A 
ATOM      2  C   UNL     1      16.183   4.155   5.935  0.00  0.00    +0.000 A 
ATOM      3  C   UNL     1      14.503   2.729   4.405  0.00  0.00    +0.000 A 
ATOM      4  C   UNL     1      17.125   5.305   5.990  0.00  0.00    +0.000 A 
ATOM      5  C   UNL     1      16.316   4.276   3.338  0.00  0.00    +0.000 A 
ATOM      6  C   UNL     1      14.185   2.556   3.013  0.00  0.00    +0.000 A 
ATOM      7  C   UNL     1      14.700   3.115   1.801  0.00  0.00    +0.000 A 
ATOM      8  C   UNL     1      15.774   3.969   2.197  0.00  0.00    +0.000 A 
ATOM      9  C   UNL     1      17.495   5.763   4.693  0.00  0.00    +0.000 A 
ATOM     10  C   UNL     1      17.179   5.360   3.608  0.00  0.00    +0.000 A 
ATOM     11  C   UNL     1      17.712   5.921   7.224  0.00  0.00    +0.000 C 
ATOM     12  C   UNL     1      13.760   3.538   0.718  0.00  0.00    +0.000 C 
ENDROOT
BRANCH   2  13
ATOM     13  C   UNL     1      15.942   3.367   7.099  0.00  0.00    +0.000 C 
ATOM     14  C   UNL     1      15.622   2.495   8.319  0.00  0.00    +0.000 C 
BRANCH  14  15
ATOM     15  C   UNL     1      15.286   1.655   9.408  0.00  0.00    +0.000 C 
ATOM     16  O   UNL     1      13.889   1.498   9.731  0.00  0.00    +0.000 OA
ATOM     17  C   UNL     1      13.498   0.724  10.829  0.00  0.00    +0.000 C 
ATOM     18  O   UNL     1      12.336   0.547  11.161  0.00  0.00    +0.000 OA
ATOM     19  C   UNL     1      14.597   0.145  11.560  0.00  0.00    +0.000 C 
ATOM     20  C   UNL     1      15.999   0.195  11.405  0.00  0.00    +0.000 C 
ATOM     21  C   UNL     1      16.211   1.002  10.265  0.00  0.00    +0.000 C 
BRANCH  20  22
ATOM     22  O   UNL     1      16.834   0.199  12.484  0.00  0.00    +0.000 OA
ATOM     23  H   UNL     1      17.770   0.318  12.232  0.00  0.00    +0.000 HD
ENDBRANCH  20  22
ENDBRANCH  14  15
ENDBRANCH   2  13
BRANCH   3  24
ATOM     24  O   UNL     1      13.448   2.887   5.309  0.00  0.00    +0.000 OA
BRANCH  24  25
ATOM     25  C   UNL     1      12.327   3.444   4.721  0.00  0.00    +0.000 C 
ATOM     26  O   UNL     1      11.596   2.835   3.937  0.00  0.00    +0.000 OA
BRANCH  25  27
ATOM     27  C   UNL     1      12.142   4.935   5.169  0.00  0.00    +0.000 C 
ATOM     28  C   UNL     1      12.781   5.135   6.595  0.00  0.00    +0.000 C 
ATOM     29  C   UNL     1      10.609   5.318   5.244  0.00  0.00    +0.000 C 
BRANCH  27  30
ATOM     30  C   UNL     1      12.818   5.789   4.153  0.00  0.00    +0.000 C 
ATOM     31  C   UNL     1      13.510   6.722   3.115  0.00  0.00    +0.000 C 
ENDBRANCH  27  30
ENDBRANCH  25  27
ENDBRANCH  24  25
ENDBRANCH   3  24
TORSDOF 7
ENDMDL
MODEL 7
REMARK VINA RESULT:      -6.7     12.694     16.806
REMARK  Name = Simvastatin.pdbqt.pdb
REMARK  7 active torsions:
REMARK  status: ('A' for Active; 'I' for Inactive)
REMARK    1  A    between atoms: C_2  and  C_13
REMARK    2  A    between atoms: C_3  and  O_24
REMARK    3  A    between atoms: C_14  and  C_15
REMARK    4  A    between atoms: C_20  and  O_22
REMARK    5  A    between atoms: O_24  and  C_25
REMARK    6  A    between atoms: C_25  and  C_27
REMARK    7  A    between atoms: C_27  and  C_30
REMARK                            x       y       z     vdW  Elec       q    Type
REMARK                         _______ _______ _______ _____ _____    ______ ____
ROOT
ATOM      1  C   UNL     1      14.585   3.293   4.043  0.00  0.00    +0.000 A 
ATOM      2  C   UNL     1      15.073   1.996   4.650  0.00  0.00    +0.000 A 
ATOM      3  C   UNL     1      14.359   4.578   4.796  0.00  0.00    +0.000 A 
ATOM      4  C   UNL     1      15.535   0.893   3.765  0.00  0.00    +0.000 A 
ATOM      5  C   UNL     1      14.383   3.312   2.513  0.00  0.00    +0.000 A 
ATOM      6  C   UNL     1      13.998   5.655   3.915  0.00  0.00    +0.000 A 
ATOM      7  C   UNL     1      13.849   5.769   2.496  0.00  0.00    +0.000 A 
ATOM      8  C   UNL     1      14.097   4.462   1.978  0.00  0.00    +0.000 A 
ATOM      9  C   UNL     1      15.355   1.197   2.385  0.00  0.00    +0.000 A 
ATOM     10  C   UNL     1      14.892   2.169   1.858  0.00  0.00    +0.000 A 
ATOM     11  C   UNL     1      16.073  -0.436   4.201  0.00  0.00    +0.000 C 
ATOM     12  C   UNL     1      14.377   6.975   1.788  0.00  0.00    +0.000 C 
ENDROOT
BRANCH   2  13
ATOM     13  C   UNL     1      14.880   1.766   6.044  0.00  0.00    +0.000 C 
ATOM     14  C   UNL     1      14.697   1.450   7.534  0.00  0.00    +0.000 C 
BRANCH  14  15
ATOM     15  C   UNL     1      14.568   1.110   8.901  0.00  0.00    +0.000 C 
ATOM     16  O   UNL     1      15.777   0.955   9.673  0.00  0.00    +0.000 OA
ATOM     17  C   UNL     1      15.716   0.567  11.015  0.00  0.00    +0.000 C 
ATOM     18  O   UNL     1      16.696   0.416  11.729  0.00  0.00    +0.000 OA
ATOM     19  C   UNL     1      14.377   0.346  11.503  0.00  0.00    +0.000 C 
ATOM     20  C   UNL     1      13.101   0.435  10.907  0.00  0.00    +0.000 C 
ATOM     21  C   UNL     1      13.348   0.835   9.575  0.00  0.00    +0.000 C 
BRANCH  20  22
ATOM     22  O   UNL     1      12.095  -0.419  11.250  0.00  0.00    +0.000 OA
ATOM     23  H   UNL     1      11.368  -0.423  10.598  0.00  0.00    +0.000 HD
ENDBRANCH  20  22
ENDBRANCH  14  15
ENDBRANCH   2  13
BRANCH   3  24
ATOM     24  O   UNL     1      15.281   4.838   5.814  0.00  0.00    +0.000 OA
BRANCH  24  25
ATOM     25  C   UNL     1      14.670   5.174   7.008  0.00  0.00    +0.000 C 
ATOM     26  O   UNL     1      13.570   4.740   7.355  0.00  0.00    +0.000 OA
BRANCH  25  27
ATOM     27  C   UNL     1      15.552   6.180   7.826  0.00  0.00    +0.000 C 
ATOM     28  C   UNL     1      15.627   5.709   9.327  0.00  0.00    +0.000 C 
ATOM     29  C   UNL     1      14.937   7.637   7.783  0.00  0.00    +0.000 C 
BRANCH  27  30
ATOM     30  C   UNL     1      16.904   6.193   7.199  0.00  0.00    +0.000 C 
ATOM     31  C   UNL     1      18.330   6.242   6.575  0.00  0.00    +0.000 C 
ENDBRANCH  27  30
ENDBRANCH  25  27
ENDBRANCH  24  25
ENDBRANCH   3  24
TORSDOF 7
ENDMDL
MODEL 8
REMARK VINA RESULT:      -6.6      3.347      6.149
REMARK  Name = Simvastatin.pdbqt.pdb
REMARK  7 active torsions:
REMARK  status: ('A' for Active; 'I' for Inactive)
REMARK    1  A    between atoms: C_2  and  C_13
REMARK    2  A    between atoms: C_3  and  O_24
REMARK    3  A    between atoms: C_14  and  C_15
REMARK    4  A    between atoms: C_20  and  O_22
REMARK    5  A    between atoms: O_24  and  C_25
REMARK    6  A    between atoms: C_25  and  C_27
REMARK    7  A    between atoms: C_27  and  C_30
REMARK                            x       y       z     vdW  Elec       q    Type
REMARK                         _______ _______ _______ _____ _____    ______ ____
ROOT
ATOM      1  C   UNL     1      27.079  -6.901  12.622  0.00  0.00    +0.000 A 
ATOM      2  C   UNL     1      28.139  -6.087  13.332  0.00  0.00    +0.000 A 
ATOM      3  C   UNL     1      25.789  -7.378  13.235  0.00  0.00    +0.000 A 
ATOM      4  C   UNL     1      29.219  -5.432  12.546  0.00  0.00    +0.000 A 
ATOM      5  C   UNL     1      27.314  -7.192  11.124  0.00  0.00    +0.000 A 
ATOM      6  C   UNL     1      24.951  -8.033  12.267  0.00  0.00    +0.000 A 
ATOM      7  C   UNL     1      25.066  -8.287  10.864  0.00  0.00    +0.000 A 
ATOM      8  C   UNL     1      26.341  -7.770  10.484  0.00  0.00    +0.000 A 
ATOM      9  C   UNL     1      29.153  -5.758  11.161  0.00  0.00    +0.000 A 
ATOM     10  C   UNL     1      28.390  -6.468  10.566  0.00  0.00    +0.000 A 
ATOM     11  C   UNL     1      30.320  -4.572  13.086  0.00  0.00    +0.000 C 
ATOM     12  C   UNL     1      23.879  -8.101   9.974  0.00  0.00    +0.000 C 
ENDROOT
BRANCH   2  13
ATOM     13  C   UNL     1      28.215  -6.138  14.755  0.00  0.00    +0.000 C 
ATOM     14  C   UNL     1      28.285  -6.265  16.282  0.00  0.00    +0.000 C 
BRANCH  14  15
ATOM     15  C   UNL     1      28.359  -6.445  17.684  0.00  0.00    +0.000 C 
ATOM     16  O   UNL     1      29.669  -6.554  18.280  0.00  0.00    +0.000 OA
ATOM     17  C   UNL     1      29.805  -6.786  19.652  0.00  0.00    +0.000 C 
ATOM     18  O   UNL     1      30.880  -6.890  20.224  0.00  0.00    +0.000 OA
ATOM     19  C   UNL     1      28.553  -6.905  20.355  0.00  0.00    +0.000 C 
ATOM     20  C   UNL     1      27.202  -6.839  19.949  0.00  0.00    +0.000 C 
ATOM     21  C   UNL     1      27.251  -6.599  18.558  0.00  0.00    +0.000 C 
BRANCH  20  22
ATOM     22  O   UNL     1      26.245  -7.613  20.536  0.00  0.00    +0.000 OA
ATOM     23  H   UNL     1      26.625  -8.336  21.071  0.00  0.00    +0.000 HD
ENDBRANCH  20  22
ENDBRANCH  14  15
ENDBRANCH   2  13
BRANCH   3  24
ATOM     24  O   UNL     1      25.191  -6.484  14.128  0.00  0.00    +0.000 OA
BRANCH  24  25
ATOM     25  C   UNL     1      24.542  -5.447  13.484  0.00  0.00    +0.000 C 
ATOM     26  O   UNL     1      23.857  -5.597  12.471  0.00  0.00    +0.000 OA
BRANCH  25  27
ATOM     27  C   UNL     1      24.818  -4.080  14.203  0.00  0.00    +0.000 C 
ATOM     28  C   UNL     1      25.307  -4.353  15.675  0.00  0.00    +0.000 C 
ATOM     29  C   UNL     1      23.508  -3.195  14.261  0.00  0.00    +0.000 C 
BRANCH  27  30
ATOM     30  C   UNL     1      25.863  -3.369  13.413  0.00  0.00    +0.000 C 
ATOM     31  C   UNL     1      26.927  -2.585  12.590  0.00  0.00    +0.000 C 
ENDBRANCH  27  30
ENDBRANCH  25  27
ENDBRANCH  24  25
ENDBRANCH   3  24
TORSDOF 7
ENDMDL
MODEL 9
REMARK VINA RESULT:      -6.6      3.343      6.241
REMARK  Name = Simvastatin.pdbqt.pdb
REMARK  7 active torsions:
REMARK  status: ('A' for Active; 'I' for Inactive)
REMARK    1  A    between atoms: C_2  and  C_13
REMARK    2  A    between atoms: C_3  and  O_24
REMARK    3  A    between atoms: C_14  and  C_15
REMARK    4  A    between atoms: C_20  and  O_22
REMARK    5  A    between atoms: O_24  and  C_25
REMARK    6  A    between atoms: C_25  and  C_27
REMARK    7  A    between atoms: C_27  and  C_30
REMARK                            x       y       z     vdW  Elec       q    Type
REMARK                         _______ _______ _______ _____ _____    ______ ____
ROOT
ATOM      1  C   UNL     1      27.225  -6.114  17.682  0.00  0.00    +0.000 A 
ATOM      2  C   UNL     1      27.748  -5.122  16.665  0.00  0.00    +0.000 A 
ATOM      3  C   UNL     1      25.829  -6.680  17.711  0.00  0.00    +0.000 A 
ATOM      4  C   UNL     1      29.210  -4.867  16.565  0.00  0.00    +0.000 A 
ATOM      5  C   UNL     1      28.237  -6.643  18.721  0.00  0.00    +0.000 A 
ATOM      6  C   UNL     1      25.681  -7.676  18.736  0.00  0.00    +0.000 A 
ATOM      7  C   UNL     1      26.574  -8.260  19.690  0.00  0.00    +0.000 A 
ATOM      8  C   UNL     1      27.823  -7.594  19.504  0.00  0.00    +0.000 A 
ATOM      9  C   UNL     1      29.949  -5.566  17.562  0.00  0.00    +0.000 A 
ATOM     10  C   UNL     1      29.575  -6.288  18.443  0.00  0.00    +0.000 A 
ATOM     11  C   UNL     1      29.892  -3.947  15.599  0.00  0.00    +0.000 C 
ATOM     12  C   UNL     1      26.533  -9.733  19.942  0.00  0.00    +0.000 C 
ENDROOT
BRANCH   2  13
ATOM     13  C   UNL     1      26.823  -4.289  15.970  0.00  0.00    +0.000 C 
ATOM     14  C   UNL     1      25.798  -3.452  15.194  0.00  0.00    +0.000 C 
BRANCH  14  15
ATOM     15  C   UNL     1      24.816  -2.732  14.474  0.00  0.00    +0.000 C 
ATOM     16  O   UNL     1      23.739  -3.481  13.872  0.00  0.00    +0.000 OA
ATOM     17  C   UNL     1      22.767  -2.832  13.103  0.00  0.00    +0.000 C 
ATOM     18  O   UNL     1      21.829  -3.400  12.565  0.00  0.00    +0.000 OA
ATOM     19  C   UNL     1      22.966  -1.409  12.985  0.00  0.00    +0.000 C 
ATOM     20  C   UNL     1      23.945  -0.522  13.482  0.00  0.00    +0.000 C 
ATOM     21  C   UNL     1      24.829  -1.334  14.226  0.00  0.00    +0.000 C 
BRANCH  20  22
ATOM     22  O   UNL     1      24.359   0.558  12.758  0.00  0.00    +0.000 OA
ATOM     23  H   UNL     1      24.168   1.404  13.206  0.00  0.00    +0.000 HD
ENDBRANCH  20  22
ENDBRANCH  14  15
ENDBRANCH   2  13
BRANCH   3  24
ATOM     24  O   UNL     1      25.266  -6.933  16.456  0.00  0.00    +0.000 OA
BRANCH  24  25
ATOM     25  C   UNL     1      25.911  -7.955  15.784  0.00  0.00    +0.000 C 
ATOM     26  O   UNL     1      26.514  -8.869  16.352  0.00  0.00    +0.000 OA
BRANCH  25  27
ATOM     27  C   UNL     1      25.786  -7.772  14.232  0.00  0.00    +0.000 C 
ATOM     28  C   UNL     1      24.578  -6.812  13.915  0.00  0.00    +0.000 C 
ATOM     29  C   UNL     1      25.531  -9.160  13.516  0.00  0.00    +0.000 C 
BRANCH  27  30
ATOM     30  C   UNL     1      27.072  -7.194  13.750  0.00  0.00    +0.000 C 
ATOM     31  C   UNL     1      28.413  -6.556  13.282  0.00  0.00    +0.000 C 
ENDBRANCH  27  30
ENDBRANCH  25  27
ENDBRANCH  24  25
ENDBRANCH   3  24
TORSDOF 7
ENDMDL
