MODEL 1
REMARK VINA RESULT:      -8.6      0.000      0.000
REMARK  Name = Staurosporine.pdbqt.pdb
REMARK  2 active torsions:
REMARK  status: ('A' for Active; 'I' for Inactive)
REMARK    1  A    between atoms: C_3  and  O_11
REMARK    2  A    between atoms: C_5  and  N_8
REMARK                            x       y       z     vdW  Elec       q    Type
REMARK                         _______ _______ _______ _____ _____    ______ ____
ROOT
ATOM      1  O   UNL     1      12.396   6.070  30.970  0.00  0.00    +0.000 OA
ATOM      2  C   UNL     1      13.024   7.206  30.315  0.00  0.00    +0.000 C 
ATOM      3  C   UNL     1      13.904   8.079  31.231  0.00  0.00    +0.000 C 
ATOM      4  C   UNL     1      13.280   5.312  31.721  0.00  0.00    +0.000 C 
ATOM      5  C   UNL     1      14.449   7.487  32.450  0.00  0.00    +0.000 C 
ATOM      6  C   UNL     1      14.033   6.148  32.572  0.00  0.00    +0.000 C 
ATOM      7  C   UNL     1      11.804   8.087  29.880  0.00  0.00    +0.000 C 
ATOM      8  N   UNL     1      13.767   6.685  29.145  0.00  0.00    +0.000 N 
ATOM      9  C   UNL     1      14.293   5.445  28.879  0.00  0.00    +0.000 A 
ATOM     10  C   UNL     1      14.368   4.344  29.737  0.00  0.00    +0.000 A 
ATOM     11  C   UNL     1      14.904   5.222  27.637  0.00  0.00    +0.000 A 
ATOM     12  N   UNL     1      13.959   4.326  31.036  0.00  0.00    +0.000 N 
ATOM     13  C   UNL     1      15.063   3.238  29.227  0.00  0.00    +0.000 A 
ATOM     14  C   UNL     1      14.517   3.104  31.459  0.00  0.00    +0.000 A 
ATOM     15  C   UNL     1      15.157   2.410  30.367  0.00  0.00    +0.000 A 
ATOM     16  C   UNL     1      14.477   2.537  32.744  0.00  0.00    +0.000 A 
ATOM     17  C   UNL     1      15.748   1.159  30.636  0.00  0.00    +0.000 A 
ATOM     18  C   UNL     1      15.697   0.613  31.917  0.00  0.00    +0.000 A 
ATOM     19  C   UNL     1      15.073   1.294  32.952  0.00  0.00    +0.000 A 
ATOM     20  C   UNL     1      15.670   3.000  27.978  0.00  0.00    +0.000 A 
ATOM     21  C   UNL     1      15.566   4.112  27.097  0.00  0.00    +0.000 A 
ATOM     22  C   UNL     1      16.416   1.930  27.357  0.00  0.00    +0.000 C 
ATOM     23  C   UNL     1      16.280   3.736  25.847  0.00  0.00    +0.000 C 
ATOM     24  N   UNL     1      16.719   2.485  26.106  0.00  0.00    +0.000 N 
ATOM     25  H   UNL     1      17.246   1.949  25.432  0.00  0.00    +0.000 HD
ATOM     26  O   UNL     1      16.753   0.811  27.714  0.00  0.00    +0.000 OA
ATOM     27  C   UNL     1      14.791   6.478  27.018  0.00  0.00    +0.000 A 
ATOM     28  C   UNL     1      14.119   7.358  27.943  0.00  0.00    +0.000 A 
ATOM     29  C   UNL     1      15.202   6.996  25.773  0.00  0.00    +0.000 A 
ATOM     30  C   UNL     1      13.887   8.697  27.584  0.00  0.00    +0.000 A 
ATOM     31  C   UNL     1      14.311   9.164  26.339  0.00  0.00    +0.000 A 
ATOM     32  C   UNL     1      14.957   8.328  25.444  0.00  0.00    +0.000 A 
ENDROOT
BRANCH   5  33
ATOM     33  N   UNL     1      15.432   8.107  33.268  0.00  0.00    +0.000 N 
ATOM     34  C   UNL     1      15.433   7.688  34.652  0.00  0.00    +0.000 C 
ATOM     35  H   UNL     1      15.558   9.109  33.106  0.00  0.00    +0.000 HD
ENDBRANCH   5  33
BRANCH   3  36
ATOM     36  O   UNL     1      14.550   9.130  30.615  0.00  0.00    +0.000 OA
ATOM     37  C   UNL     1      13.935  10.359  30.898  0.00  0.00    +0.000 C 
ENDBRANCH   3  36
TORSDOF 2
ENDMDL
MODEL 2
REMARK VINA RESULT:      -8.0      1.417      7.436
REMARK  Name = Staurosporine.pdbqt.pdb
REMARK  2 active torsions:
REMARK  status: ('A' for Active; 'I' for Inactive)
REMARK    1  A    between atoms: C_3  and  O_11
REMARK    2  A    between atoms: C_5  and  N_8
REMARK                            x       y       z     vdW  Elec       q    Type
REMARK                         _______ _______ _______ _____ _____    ______ ____
ROOT
ATOM      1  O   UNL     1      13.043   3.456  27.812  0.00  0.00    +0.000 OA
ATOM      2  C   UNL     1      13.847   2.616  28.685  0.00  0.00    +0.000 C 
ATOM      3  C   UNL     1      15.166   2.110  28.066  0.00  0.00    +0.000 C 
ATOM      4  C   UNL     1      13.765   4.477  27.216  0.00  0.00    +0.000 C 
ATOM      5  C   UNL     1      15.748   2.857  26.953  0.00  0.00    +0.000 C 
ATOM      6  C   UNL     1      14.940   3.962  26.628  0.00  0.00    +0.000 C 
ATOM      7  C   UNL     1      12.938   1.361  28.909  0.00  0.00    +0.000 C 
ATOM      8  N   UNL     1      14.064   3.367  29.942  0.00  0.00    +0.000 N 
ATOM      9  C   UNL     1      14.052   4.712  30.213  0.00  0.00    +0.000 A 
ATOM     10  C   UNL     1      13.947   5.769  29.303  0.00  0.00    +0.000 A 
ATOM     11  C   UNL     1      14.233   5.137  31.536  0.00  0.00    +0.000 A 
ATOM     12  N   UNL     1      13.879   5.640  27.949  0.00  0.00    +0.000 N 
ATOM     13  C   UNL     1      14.076   7.050  29.859  0.00  0.00    +0.000 A 
ATOM     14  C   UNL     1      14.068   6.981  27.558  0.00  0.00    +0.000 A 
ATOM     15  C   UNL     1      14.150   7.857  28.703  0.00  0.00    +0.000 A 
ATOM     16  C   UNL     1      14.144   7.496  26.254  0.00  0.00    +0.000 A 
ATOM     17  C   UNL     1      14.321   9.235  28.468  0.00  0.00    +0.000 A 
ATOM     18  C   UNL     1      14.394   9.728  27.166  0.00  0.00    +0.000 A 
ATOM     19  C   UNL     1      14.308   8.870  26.079  0.00  0.00    +0.000 A 
ATOM     20  C   UNL     1      14.248   7.487  31.187  0.00  0.00    +0.000 A 
ATOM     21  C   UNL     1      14.324   6.411  32.114  0.00  0.00    +0.000 A 
ATOM     22  C   UNL     1      14.409   8.752  31.867  0.00  0.00    +0.000 C 
ATOM     23  C   UNL     1      14.545   7.015  33.455  0.00  0.00    +0.000 C 
ATOM     24  N   UNL     1      14.576   8.341  33.196  0.00  0.00    +0.000 N 
ATOM     25  H   UNL     1      14.709   9.029  33.923  0.00  0.00    +0.000 HD
ATOM     26  O   UNL     1      14.416   9.918  31.500  0.00  0.00    +0.000 OA
ATOM     27  C   UNL     1      14.414   3.924  32.219  0.00  0.00    +0.000 A 
ATOM     28  C   UNL     1      14.326   2.862  31.245  0.00  0.00    +0.000 A 
ATOM     29  C   UNL     1      14.668   3.585  33.564  0.00  0.00    +0.000 A 
ATOM     30  C   UNL     1      14.490   1.527  31.656  0.00  0.00    +0.000 A 
ATOM     31  C   UNL     1      14.738   1.241  32.999  0.00  0.00    +0.000 A 
ATOM     32  C   UNL     1      14.824   2.253  33.941  0.00  0.00    +0.000 A 
ENDROOT
BRANCH   5  33
ATOM     33  N   UNL     1      17.050   2.624  26.432  0.00  0.00    +0.000 N 
ATOM     34  C   UNL     1      17.092   1.852  25.209  0.00  0.00    +0.000 C 
ATOM     35  H   UNL     1      17.759   2.391  27.130  0.00  0.00    +0.000 HD
ENDBRANCH   5  33
BRANCH   3  36
ATOM     36  O   UNL     1      15.965   1.356  28.897  0.00  0.00    +0.000 OA
ATOM     37  C   UNL     1      15.943  -0.003  28.552  0.00  0.00    +0.000 C 
ENDBRANCH   3  36
TORSDOF 2
ENDMDL
MODEL 3
REMARK VINA RESULT:      -7.9      2.192      5.090
REMARK  Name = Staurosporine.pdbqt.pdb
REMARK  2 active torsions:
REMARK  status: ('A' for Active; 'I' for Inactive)
REMARK    1  A    between atoms: C_3  and  O_11
REMARK    2  A    between atoms: C_5  and  N_8
REMARK                            x       y       z     vdW  Elec       q    Type
REMARK                         _______ _______ _______ _____ _____    ______ ____
ROOT
ATOM      1  O   UNL     1      12.207   3.874  30.908  0.00  0.00    +0.000 OA
ATOM      2  C   UNL     1      12.562   4.841  31.935  0.00  0.00    +0.000 C 
ATOM      3  C   UNL     1      13.696   4.398  32.881  0.00  0.00    +0.000 C 
ATOM      4  C   UNL     1      13.303   3.382  30.217  0.00  0.00    +0.000 C 
ATOM      5  C   UNL     1      14.631   3.374  32.421  0.00  0.00    +0.000 C 
ATOM      6  C   UNL     1      14.295   2.951  31.122  0.00  0.00    +0.000 C 
ATOM      7  C   UNL     1      11.260   4.939  32.799  0.00  0.00    +0.000 C 
ATOM      8  N   UNL     1      12.863   6.119  31.251  0.00  0.00    +0.000 N 
ATOM      9  C   UNL     1      13.276   6.392  29.971  0.00  0.00    +0.000 A 
ATOM     10  C   UNL     1      13.651   5.481  28.979  0.00  0.00    +0.000 A 
ATOM     11  C   UNL     1      13.424   7.729  29.579  0.00  0.00    +0.000 A 
ATOM     12  N   UNL     1      13.713   4.129  29.132  0.00  0.00    +0.000 N 
ATOM     13  C   UNL     1      14.138   6.055  27.796  0.00  0.00    +0.000 A 
ATOM     14  C   UNL     1      14.394   3.773  27.951  0.00  0.00    +0.000 A 
ATOM     15  C   UNL     1      14.625   4.922  27.109  0.00  0.00    +0.000 A 
ATOM     16  C   UNL     1      14.802   2.492  27.544  0.00  0.00    +0.000 A 
ATOM     17  C   UNL     1      15.283   4.717  25.880  0.00  0.00    +0.000 A 
ATOM     18  C   UNL     1      15.681   3.438  25.494  0.00  0.00    +0.000 A 
ATOM     19  C   UNL     1      15.445   2.346  26.316  0.00  0.00    +0.000 A 
ATOM     20  C   UNL     1      14.281   7.396  27.389  0.00  0.00    +0.000 A 
ATOM     21  C   UNL     1      13.871   8.320  28.389  0.00  0.00    +0.000 A 
ATOM     22  C   UNL     1      14.777   8.096  26.226  0.00  0.00    +0.000 C 
ATOM     23  C   UNL     1      14.114   9.681  27.841  0.00  0.00    +0.000 C 
ATOM     24  N   UNL     1      14.627   9.435  26.616  0.00  0.00    +0.000 N 
ATOM     25  H   UNL     1      14.895  10.176  25.984  0.00  0.00    +0.000 HD
ATOM     26  O   UNL     1      15.226   7.739  25.147  0.00  0.00    +0.000 OA
ATOM     27  C   UNL     1      13.094   8.425  30.754  0.00  0.00    +0.000 A 
ATOM     28  C   UNL     1      12.773   7.443  31.762  0.00  0.00    +0.000 A 
ATOM     29  C   UNL     1      13.048   9.790  31.104  0.00  0.00    +0.000 A 
ATOM     30  C   UNL     1      12.421   7.866  33.056  0.00  0.00    +0.000 A 
ATOM     31  C   UNL     1      12.386   9.229  33.354  0.00  0.00    +0.000 A 
ATOM     32  C   UNL     1      12.693  10.178  32.394  0.00  0.00    +0.000 A 
ENDROOT
BRANCH   5  33
ATOM     33  N   UNL     1      15.831   3.027  33.101  0.00  0.00    +0.000 N 
ATOM     34  C   UNL     1      15.999   1.615  33.364  0.00  0.00    +0.000 C 
ATOM     35  H   UNL     1      16.092   3.657  33.863  0.00  0.00    +0.000 HD
ENDBRANCH   5  33
BRANCH   3  36
ATOM     36  O   UNL     1      14.081   5.324  33.827  0.00  0.00    +0.000 OA
ATOM     37  C   UNL     1      13.812   4.881  35.131  0.00  0.00    +0.000 C 
ENDBRANCH   3  36
TORSDOF 2
ENDMDL
MODEL 4
REMARK VINA RESULT:      -7.6     12.780     15.768
REMARK  Name = Staurosporine.pdbqt.pdb
REMARK  2 active torsions:
REMARK  status: ('A' for Active; 'I' for Inactive)
REMARK    1  A    between atoms: C_3  and  O_11
REMARK    2  A    between atoms: C_5  and  N_8
REMARK                            x       y       z     vdW  Elec       q    Type
REMARK                         _______ _______ _______ _____ _____    ______ ____
ROOT
ATOM      1  O   UNL     1      24.616  -6.599  26.910  0.00  0.00    +0.000 OA
ATOM      2  C   UNL     1      25.200  -5.991  25.725  0.00  0.00    +0.000 C 
ATOM      3  C   UNL     1      24.194  -5.285  24.794  0.00  0.00    +0.000 C 
ATOM      4  C   UNL     1      23.772  -5.746  27.604  0.00  0.00    +0.000 C 
ATOM      5  C   UNL     1      22.922  -4.833  25.352  0.00  0.00    +0.000 C 
ATOM      6  C   UNL     1      22.845  -5.156  26.720  0.00  0.00    +0.000 C 
ATOM      7  C   UNL     1      25.766  -7.220  24.935  0.00  0.00    +0.000 C 
ATOM      8  N   UNL     1      26.281  -5.088  26.180  0.00  0.00    +0.000 N 
ATOM      9  C   UNL     1      26.487  -4.443  27.374  0.00  0.00    +0.000 A 
ATOM     10  C   UNL     1      25.624  -4.379  28.473  0.00  0.00    +0.000 A 
ATOM     11  C   UNL     1      27.654  -3.686  27.541  0.00  0.00    +0.000 A 
ATOM     12  N   UNL     1      24.378  -4.924  28.531  0.00  0.00    +0.000 N 
ATOM     13  C   UNL     1      26.055  -3.550  29.519  0.00  0.00    +0.000 A 
ATOM     14  C   UNL     1      23.895  -4.324  29.710  0.00  0.00    +0.000 A 
ATOM     15  C   UNL     1      24.910  -3.518  30.346  0.00  0.00    +0.000 A 
ATOM     16  C   UNL     1      22.622  -4.460  30.288  0.00  0.00    +0.000 A 
ATOM     17  C   UNL     1      24.577  -2.867  31.550  0.00  0.00    +0.000 A 
ATOM     18  C   UNL     1      23.309  -3.014  32.108  0.00  0.00    +0.000 A 
ATOM     19  C   UNL     1      22.349  -3.797  31.483  0.00  0.00    +0.000 A 
ATOM     20  C   UNL     1      27.230  -2.795  29.701  0.00  0.00    +0.000 A 
ATOM     21  C   UNL     1      28.118  -2.886  28.594  0.00  0.00    +0.000 A 
ATOM     22  C   UNL     1      27.765  -1.907  30.707  0.00  0.00    +0.000 C 
ATOM     23  C   UNL     1      29.283  -2.015  28.906  0.00  0.00    +0.000 C 
ATOM     24  N   UNL     1      28.976  -1.512  30.122  0.00  0.00    +0.000 N 
ATOM     25  H   UNL     1      29.588  -0.876  30.612  0.00  0.00    +0.000 HD
ATOM     26  O   UNL     1      27.372  -1.526  31.800  0.00  0.00    +0.000 OA
ATOM     27  C   UNL     1      28.284  -3.826  26.293  0.00  0.00    +0.000 A 
ATOM     28  C   UNL     1      27.439  -4.660  25.473  0.00  0.00    +0.000 A 
ATOM     29  C   UNL     1      29.478  -3.323  25.736  0.00  0.00    +0.000 A 
ATOM     30  C   UNL     1      27.822  -4.952  24.152  0.00  0.00    +0.000 A 
ATOM     31  C   UNL     1      29.014  -4.433  23.646  0.00  0.00    +0.000 A 
ATOM     32  C   UNL     1      29.832  -3.631  24.425  0.00  0.00    +0.000 A 
ENDROOT
BRANCH   5  33
ATOM     33  N   UNL     1      22.003  -3.994  24.665  0.00  0.00    +0.000 N 
ATOM     34  C   UNL     1      20.883  -4.679  24.058  0.00  0.00    +0.000 C 
ATOM     35  H   UNL     1      22.431  -3.255  24.103  0.00  0.00    +0.000 HD
ENDBRANCH   5  33
BRANCH   3  36
ATOM     36  O   UNL     1      24.737  -4.658  23.693  0.00  0.00    +0.000 OA
ATOM     37  C   UNL     1      24.323  -5.257  22.494  0.00  0.00    +0.000 C 
ENDBRANCH   3  36
TORSDOF 2
ENDMDL
MODEL 5
REMARK VINA RESULT:      -7.4     27.076     29.591
REMARK  Name = Staurosporine.pdbqt.pdb
REMARK  2 active torsions:
REMARK  status: ('A' for Active; 'I' for Inactive)
REMARK    1  A    between atoms: C_3  and  O_11
REMARK    2  A    between atoms: C_5  and  N_8
REMARK                            x       y       z     vdW  Elec       q    Type
REMARK                         _______ _______ _______ _____ _____    ______ ____
ROOT
ATOM      1  O   UNL     1      39.314   8.633  18.343  0.00  0.00    +0.000 OA
ATOM      2  C   UNL     1      39.134   9.224  19.659  0.00  0.00    +0.000 C 
ATOM      3  C   UNL     1      39.774   8.436  20.819  0.00  0.00    +0.000 C 
ATOM      4  C   UNL     1      40.627   8.283  18.074  0.00  0.00    +0.000 C 
ATOM      5  C   UNL     1      40.876   7.524  20.521  0.00  0.00    +0.000 C 
ATOM      6  C   UNL     1      41.157   7.529  19.142  0.00  0.00    +0.000 C 
ATOM      7  C   UNL     1      37.583   9.164  19.869  0.00  0.00    +0.000 C 
ATOM      8  N   UNL     1      39.623  10.620  19.586  0.00  0.00    +0.000 N 
ATOM      9  C   UNL     1      40.529  11.225  18.752  0.00  0.00    +0.000 A 
ATOM     10  C   UNL     1      41.349  10.619  17.794  0.00  0.00    +0.000 A 
ATOM     11  C   UNL     1      40.752  12.602  18.880  0.00  0.00    +0.000 A 
ATOM     12  N   UNL     1      41.419   9.282  17.547  0.00  0.00    +0.000 N 
ATOM     13  C   UNL     1      42.262  11.477  17.164  0.00  0.00    +0.000 A 
ATOM     14  C   UNL     1      42.562   9.238  16.724  0.00  0.00    +0.000 A 
ATOM     15  C   UNL     1      43.065  10.562  16.447  0.00  0.00    +0.000 A 
ATOM     16  C   UNL     1      43.181   8.105  16.170  0.00  0.00    +0.000 A 
ATOM     17  C   UNL     1      44.198  10.678  15.619  0.00  0.00    +0.000 A 
ATOM     18  C   UNL     1      44.799   9.542  15.078  0.00  0.00    +0.000 A 
ATOM     19  C   UNL     1      44.298   8.279  15.353  0.00  0.00    +0.000 A 
ATOM     20  C   UNL     1      42.486  12.863  17.278  0.00  0.00    +0.000 A 
ATOM     21  C   UNL     1      41.631  13.481  18.232  0.00  0.00    +0.000 A 
ATOM     22  C   UNL     1      43.391  13.834  16.707  0.00  0.00    +0.000 C 
ATOM     23  C   UNL     1      42.005  14.920  18.275  0.00  0.00    +0.000 C 
ATOM     24  N   UNL     1      43.009  15.006  17.375  0.00  0.00    +0.000 N 
ATOM     25  H   UNL     1      43.478  15.877  17.172  0.00  0.00    +0.000 HD
ATOM     26  O   UNL     1      44.282  13.776  15.872  0.00  0.00    +0.000 OA
ATOM     27  C   UNL     1      39.908  12.945  19.949  0.00  0.00    +0.000 A 
ATOM     28  C   UNL     1      39.243  11.738  20.379  0.00  0.00    +0.000 A 
ATOM     29  C   UNL     1      39.634  14.145  20.636  0.00  0.00    +0.000 A 
ATOM     30  C   UNL     1      38.344  11.787  21.458  0.00  0.00    +0.000 A 
ATOM     31  C   UNL     1      38.103  13.000  22.105  0.00  0.00    +0.000 A 
ATOM     32  C   UNL     1      38.736  14.163  21.701  0.00  0.00    +0.000 A 
ENDROOT
BRANCH   5  33
ATOM     33  N   UNL     1      41.684   6.900  21.510  0.00  0.00    +0.000 N 
ATOM     34  C   UNL     1      42.935   6.357  21.027  0.00  0.00    +0.000 C 
ATOM     35  H   UNL     1      41.175   6.317  22.179  0.00  0.00    +0.000 HD
ENDBRANCH   5  33
BRANCH   3  36
ATOM     36  O   UNL     1      39.659   9.009  22.067  0.00  0.00    +0.000 OA
ATOM     37  C   UNL     1      39.054   8.140  22.987  0.00  0.00    +0.000 C 
ENDBRANCH   3  36
TORSDOF 2
ENDMDL
MODEL 6
REMARK VINA RESULT:      -7.1     32.190     36.612
REMARK  Name = Staurosporine.pdbqt.pdb
REMARK  2 active torsions:
REMARK  status: ('A' for Active; 'I' for Inactive)
REMARK    1  A    between atoms: C_3  and  O_11
REMARK    2  A    between atoms: C_5  and  N_8
REMARK                            x       y       z     vdW  Elec       q    Type
REMARK                         _______ _______ _______ _____ _____    ______ ____
ROOT
ATOM      1  O   UNL     1      25.871  22.289  -1.026  0.00  0.00    +0.000 OA
ATOM      2  C   UNL     1      26.074  23.611  -1.595  0.00  0.00    +0.000 C 
ATOM      3  C   UNL     1      25.097  23.989  -2.727  0.00  0.00    +0.000 C 
ATOM      4  C   UNL     1      24.553  22.036  -0.683  0.00  0.00    +0.000 C 
ATOM      5  C   UNL     1      23.810  23.301  -2.799  0.00  0.00    +0.000 C 
ATOM      6  C   UNL     1      23.701  22.356  -1.761  0.00  0.00    +0.000 C 
ATOM      7  C   UNL     1      27.498  23.509  -2.239  0.00  0.00    +0.000 C 
ATOM      8  N   UNL     1      26.047  24.582  -0.477  0.00  0.00    +0.000 N 
ATOM      9  C   UNL     1      25.468  24.523   0.765  0.00  0.00    +0.000 A 
ATOM     10  C   UNL     1      24.616  23.534   1.268  0.00  0.00    +0.000 A 
ATOM     11  C   UNL     1      25.664  25.588   1.654  0.00  0.00    +0.000 A 
ATOM     12  N   UNL     1      24.169  22.451   0.575  0.00  0.00    +0.000 N 
ATOM     13  C   UNL     1      24.086  23.795   2.540  0.00  0.00    +0.000 A 
ATOM     14  C   UNL     1      23.167  21.987   1.451  0.00  0.00    +0.000 A 
ATOM     15  C   UNL     1      23.128  22.765   2.666  0.00  0.00    +0.000 A 
ATOM     16  C   UNL     1      22.298  20.899   1.268  0.00  0.00    +0.000 A 
ATOM     17  C   UNL     1      22.185  22.406   3.649  0.00  0.00    +0.000 A 
ATOM     18  C   UNL     1      21.331  21.323   3.449  0.00  0.00    +0.000 A 
ATOM     19  C   UNL     1      21.388  20.585   2.276  0.00  0.00    +0.000 A 
ATOM     20  C   UNL     1      24.285  24.857   3.444  0.00  0.00    +0.000 A 
ATOM     21  C   UNL     1      25.175  25.846   2.942  0.00  0.00    +0.000 A 
ATOM     22  C   UNL     1      23.790  25.237   4.747  0.00  0.00    +0.000 C 
ATOM     23  C   UNL     1      25.256  26.914   3.975  0.00  0.00    +0.000 C 
ATOM     24  N   UNL     1      24.435  26.465   4.949  0.00  0.00    +0.000 N 
ATOM     25  H   UNL     1      24.281  26.980   5.804  0.00  0.00    +0.000 HD
ATOM     26  O   UNL     1      23.025  24.721   5.549  0.00  0.00    +0.000 OA
ATOM     27  C   UNL     1      26.447  26.473   0.894  0.00  0.00    +0.000 A 
ATOM     28  C   UNL     1      26.658  25.863  -0.398  0.00  0.00    +0.000 A 
ATOM     29  C   UNL     1      26.995  27.750   1.133  0.00  0.00    +0.000 A 
ATOM     30  C   UNL     1      27.402  26.547  -1.375  0.00  0.00    +0.000 A 
ATOM     31  C   UNL     1      27.927  27.807  -1.090  0.00  0.00    +0.000 A 
ATOM     32  C   UNL     1      27.730  28.401   0.145  0.00  0.00    +0.000 A 
ENDROOT
BRANCH   5  33
ATOM     33  N   UNL     1      22.743  23.691  -3.654  0.00  0.00    +0.000 N 
ATOM     34  C   UNL     1      22.629  22.930  -4.878  0.00  0.00    +0.000 C 
ATOM     35  H   UNL     1      22.610  24.701  -3.743  0.00  0.00    +0.000 HD
ENDBRANCH   5  33
BRANCH   3  36
ATOM     36  O   UNL     1      25.241  25.259  -3.242  0.00  0.00    +0.000 OA
ATOM     37  C   UNL     1      25.649  25.235  -4.584  0.00  0.00    +0.000 C 
ENDBRANCH   3  36
TORSDOF 2
ENDMDL
MODEL 7
REMARK VINA RESULT:      -7.0     12.768     17.125
REMARK  Name = Staurosporine.pdbqt.pdb
REMARK  2 active torsions:
REMARK  status: ('A' for Active; 'I' for Inactive)
REMARK    1  A    between atoms: C_3  and  O_11
REMARK    2  A    between atoms: C_5  and  N_8
REMARK                            x       y       z     vdW  Elec       q    Type
REMARK                         _______ _______ _______ _____ _____    ______ ____
ROOT
ATOM      1  O   UNL     1      22.122  21.429  30.488  0.00  0.00    +0.000 OA
ATOM      2  C   UNL     1      22.766  20.133  30.621  0.00  0.00    +0.000 C 
ATOM      3  C   UNL     1      24.032  20.123  31.501  0.00  0.00    +0.000 C 
ATOM      4  C   UNL     1      21.919  22.067  31.701  0.00  0.00    +0.000 C 
ATOM      5  C   UNL     1      24.201  21.181  32.495  0.00  0.00    +0.000 C 
ATOM      6  C   UNL     1      23.112  22.071  32.453  0.00  0.00    +0.000 C 
ATOM      7  C   UNL     1      23.226  19.811  29.159  0.00  0.00    +0.000 C 
ATOM      8  N   UNL     1      21.741  19.176  31.095  0.00  0.00    +0.000 N 
ATOM      9  C   UNL     1      20.574  19.364  31.793  0.00  0.00    +0.000 A 
ATOM     10  C   UNL     1      20.099  20.549  32.365  0.00  0.00    +0.000 A 
ATOM     11  C   UNL     1      19.757  18.256  32.055  0.00  0.00    +0.000 A 
ATOM     12  N   UNL     1      20.752  21.743  32.362  0.00  0.00    +0.000 N 
ATOM     13  C   UNL     1      18.924  20.416  33.119  0.00  0.00    +0.000 A 
ATOM     14  C   UNL     1      19.967  22.462  33.286  0.00  0.00    +0.000 A 
ATOM     15  C   UNL     1      18.830  21.688  33.726  0.00  0.00    +0.000 A 
ATOM     16  C   UNL     1      20.164  23.773  33.749  0.00  0.00    +0.000 A 
ATOM     17  C   UNL     1      17.941  22.284  34.642  0.00  0.00    +0.000 A 
ATOM     18  C   UNL     1      18.154  23.586  35.090  0.00  0.00    +0.000 A 
ATOM     19  C   UNL     1      19.249  24.315  34.651  0.00  0.00    +0.000 A 
ATOM     20  C   UNL     1      18.090  19.311  33.379  0.00  0.00    +0.000 A 
ATOM     21  C   UNL     1      18.561  18.114  32.771  0.00  0.00    +0.000 A 
ATOM     22  C   UNL     1      16.889  19.053  34.140  0.00  0.00    +0.000 C 
ATOM     23  C   UNL     1      17.614  17.034  33.161  0.00  0.00    +0.000 C 
ATOM     24  N   UNL     1      16.712  17.678  33.933  0.00  0.00    +0.000 N 
ATOM     25  H   UNL     1      15.925  17.204  34.352  0.00  0.00    +0.000 HD
ATOM     26  O   UNL     1      16.146  19.750  34.814  0.00  0.00    +0.000 OA
ATOM     27  C   UNL     1      20.487  17.203  31.481  0.00  0.00    +0.000 A 
ATOM     28  C   UNL     1      21.691  17.766  30.919  0.00  0.00    +0.000 A 
ATOM     29  C   UNL     1      20.286  15.810  31.385  0.00  0.00    +0.000 A 
ATOM     30  C   UNL     1      22.625  16.923  30.291  0.00  0.00    +0.000 A 
ATOM     31  C   UNL     1      22.381  15.552  30.218  0.00  0.00    +0.000 A 
ATOM     32  C   UNL     1      21.229  15.001  30.755  0.00  0.00    +0.000 A 
ENDROOT
BRANCH   5  33
ATOM     33  N   UNL     1      25.205  21.176  33.502  0.00  0.00    +0.000 N 
ATOM     34  C   UNL     1      26.443  21.828  33.136  0.00  0.00    +0.000 C 
ATOM     35  H   UNL     1      25.300  20.295  34.012  0.00  0.00    +0.000 HD
ENDBRANCH   5  33
BRANCH   3  36
ATOM     36  O   UNL     1      24.627  18.893  31.680  0.00  0.00    +0.000 OA
ATOM     37  C   UNL     1      25.864  18.810  31.026  0.00  0.00    +0.000 C 
ENDBRANCH   3  36
TORSDOF 2
ENDMDL
MODEL 8
REMARK VINA RESULT:      -6.9     12.604     16.290
REMARK  Name = Staurosporine.pdbqt.pdb
REMARK  2 active torsions:
REMARK  status: ('A' for Active; 'I' for Inactive)
REMARK    1  A    between atoms: C_3  and  O_11
REMARK    2  A    between atoms: C_5  and  N_8
REMARK                            x       y       z     vdW  Elec       q    Type
REMARK                         _______ _______ _______ _____ _____    ______ ____
ROOT
ATOM      1  O   UNL     1      20.511  22.197  32.098  0.00  0.00    +0.000 OA
ATOM      2  C   UNL     1      21.944  22.060  32.304  0.00  0.00    +0.000 C 
ATOM      3  C   UNL     1      22.423  22.334  33.744  0.00  0.00    +0.000 C 
ATOM      4  C   UNL     1      19.755  21.516  33.038  0.00  0.00    +0.000 C 
ATOM      5  C   UNL     1      21.464  22.198  34.838  0.00  0.00    +0.000 C 
ATOM      6  C   UNL     1      20.201  21.829  34.339  0.00  0.00    +0.000 C 
ATOM      7  C   UNL     1      22.544  23.191  31.402  0.00  0.00    +0.000 C 
ATOM      8  N   UNL     1      22.332  20.714  31.825  0.00  0.00    +0.000 N 
ATOM      9  C   UNL     1      21.611  19.554  31.686  0.00  0.00    +0.000 A 
ATOM     10  C   UNL     1      20.296  19.309  32.094  0.00  0.00    +0.000 A 
ATOM     11  C   UNL     1      22.241  18.428  31.139  0.00  0.00    +0.000 A 
ATOM     12  N   UNL     1      19.498  20.190  32.756  0.00  0.00    +0.000 N 
ATOM     13  C   UNL     1      19.856  17.988  31.921  0.00  0.00    +0.000 A 
ATOM     14  C   UNL     1      18.443  19.337  33.139  0.00  0.00    +0.000 A 
ATOM     15  C   UNL     1      18.622  18.007  32.608  0.00  0.00    +0.000 A 
ATOM     16  C   UNL     1      17.310  19.658  33.903  0.00  0.00    +0.000 A 
ATOM     17  C   UNL     1      17.634  17.044  32.893  0.00  0.00    +0.000 A 
ATOM     18  C   UNL     1      16.516  17.381  33.654  0.00  0.00    +0.000 A 
ATOM     19  C   UNL     1      16.360  18.667  34.151  0.00  0.00    +0.000 A 
ATOM     20  C   UNL     1      20.477  16.853  31.363  0.00  0.00    +0.000 A 
ATOM     21  C   UNL     1      21.804  17.115  30.922  0.00  0.00    +0.000 A 
ATOM     22  C   UNL     1      20.137  15.465  31.151  0.00  0.00    +0.000 C 
ATOM     23  C   UNL     1      22.342  15.830  30.400  0.00  0.00    +0.000 C 
ATOM     24  N   UNL     1      21.317  14.969  30.579  0.00  0.00    +0.000 N 
ATOM     25  H   UNL     1      21.376  13.996  30.312  0.00  0.00    +0.000 HD
ATOM     26  O   UNL     1      19.139  14.793  31.365  0.00  0.00    +0.000 OA
ATOM     27  C   UNL     1      23.546  18.894  30.914  0.00  0.00    +0.000 A 
ATOM     28  C   UNL     1      23.596  20.270  31.348  0.00  0.00    +0.000 A 
ATOM     29  C   UNL     1      24.724  18.304  30.409  0.00  0.00    +0.000 A 
ATOM     30  C   UNL     1      24.802  20.985  31.253  0.00  0.00    +0.000 A 
ATOM     31  C   UNL     1      25.941  20.359  30.744  0.00  0.00    +0.000 A 
ATOM     32  C   UNL     1      25.904  19.040  30.326  0.00  0.00    +0.000 A 
ENDROOT
BRANCH   5  33
ATOM     33  N   UNL     1      21.817  22.218  36.214  0.00  0.00    +0.000 N 
ATOM     34  C   UNL     1      20.746  21.884  37.127  0.00  0.00    +0.000 C 
ATOM     35  H   UNL     1      22.414  22.999  36.496  0.00  0.00    +0.000 HD
ENDBRANCH   5  33
BRANCH   3  36
ATOM     36  O   UNL     1      23.771  22.158  33.969  0.00  0.00    +0.000 OA
ATOM     37  C   UNL     1      24.408  23.363  34.301  0.00  0.00    +0.000 C 
ENDBRANCH   3  36
TORSDOF 2
ENDMDL
MODEL 9
REMARK VINA RESULT:      -6.9     32.488     36.974
REMARK  Name = Staurosporine.pdbqt.pdb
REMARK  2 active torsions:
REMARK  status: ('A' for Active; 'I' for Inactive)
REMARK    1  A    between atoms: C_3  and  O_11
REMARK    2  A    between atoms: C_5  and  N_8
REMARK                            x       y       z     vdW  Elec       q    Type
REMARK                         _______ _______ _______ _____ _____    ______ ____
ROOT
ATOM      1  O   UNL     1      21.889  24.042  -0.732  0.00  0.00    +0.000 OA
ATOM      2  C   UNL     1      22.075  23.615   0.645  0.00  0.00    +0.000 C 
ATOM      3  C   UNL     1      22.307  22.102   0.831  0.00  0.00    +0.000 C 
ATOM      4  C   UNL     1      22.858  23.552  -1.593  0.00  0.00    +0.000 C 
ATOM      5  C   UNL     1      22.818  21.328  -0.298  0.00  0.00    +0.000 C 
ATOM      6  C   UNL     1      23.006  22.160  -1.417  0.00  0.00    +0.000 C 
ATOM      7  C   UNL     1      20.698  23.950   1.312  0.00  0.00    +0.000 C 
ATOM      8  N   UNL     1      23.172  24.430   1.215  0.00  0.00    +0.000 N 
ATOM      9  C   UNL     1      24.220  25.088   0.622  0.00  0.00    +0.000 A 
ATOM     10  C   UNL     1      24.603  25.054  -0.723  0.00  0.00    +0.000 A 
ATOM     11  C   UNL     1      25.084  25.844   1.425  0.00  0.00    +0.000 A 
ATOM     12  N   UNL     1      24.009  24.306  -1.693  0.00  0.00    +0.000 N 
ATOM     13  C   UNL     1      25.788  25.742  -1.022  0.00  0.00    +0.000 A 
ATOM     14  C   UNL     1      24.952  24.447  -2.731  0.00  0.00    +0.000 A 
ATOM     15  C   UNL     1      26.017  25.346  -2.358  0.00  0.00    +0.000 A 
ATOM     16  C   UNL     1      24.923  23.859  -4.007  0.00  0.00    +0.000 A 
ATOM     17  C   UNL     1      27.029  25.600  -3.305  0.00  0.00    +0.000 A 
ATOM     18  C   UNL     1      26.983  25.007  -4.566  0.00  0.00    +0.000 A 
ATOM     19  C   UNL     1      25.948  24.149  -4.907  0.00  0.00    +0.000 A 
ATOM     20  C   UNL     1      26.657  26.513  -0.225  0.00  0.00    +0.000 A 
ATOM     21  C   UNL     1      26.248  26.570   1.136  0.00  0.00    +0.000 A 
ATOM     22  C   UNL     1      27.891  27.239  -0.413  0.00  0.00    +0.000 C 
ATOM     23  C   UNL     1      27.271  27.374   1.857  0.00  0.00    +0.000 C 
ATOM     24  N   UNL     1      28.151  27.699   0.885  0.00  0.00    +0.000 N 
ATOM     25  H   UNL     1      28.972  28.259   1.066  0.00  0.00    +0.000 HD
ATOM     26  O   UNL     1      28.606  27.464  -1.379  0.00  0.00    +0.000 OA
ATOM     27  C   UNL     1      24.558  25.638   2.710  0.00  0.00    +0.000 A 
ATOM     28  C   UNL     1      23.414  24.769   2.575  0.00  0.00    +0.000 A 
ATOM     29  C   UNL     1      24.927  26.068   4.001  0.00  0.00    +0.000 A 
ATOM     30  C   UNL     1      22.698  24.379   3.720  0.00  0.00    +0.000 A 
ATOM     31  C   UNL     1      23.100  24.833   4.977  0.00  0.00    +0.000 A 
ATOM     32  C   UNL     1      24.197  25.666   5.118  0.00  0.00    +0.000 A 
ENDROOT
BRANCH   5  33
ATOM     33  N   UNL     1      23.269  19.983  -0.204  0.00  0.00    +0.000 N 
ATOM     34  C   UNL     1      22.259  18.979  -0.458  0.00  0.00    +0.000 C 
ATOM     35  H   UNL     1      23.899  19.793   0.578  0.00  0.00    +0.000 HD
ENDBRANCH   5  33
BRANCH   3  36
ATOM     36  O   UNL     1      22.537  21.687   2.125  0.00  0.00    +0.000 OA
ATOM     37  C   UNL     1      21.480  20.910   2.621  0.00  0.00    +0.000 C 
ENDBRANCH   3  36
TORSDOF 2
ENDMDL
