MODEL 1
REMARK VINA RESULT:      -7.9      0.000      0.000
REMARK  Name = Testosterone.pdbqt.pdb
REMARK  1 active torsions:
REMARK  status: ('A' for Active; 'I' for Inactive)
REMARK    1  A    between atoms: C_9  and  O_21
REMARK                            x       y       z     vdW  Elec       q    Type
REMARK                         _______ _______ _______ _____ _____    ______ ____
ROOT
ATOM      1  O   UNL     1      44.008  -8.179   7.574  0.00  0.00    +0.000 OA
ATOM      2  C   UNL     1      45.939  -2.248  12.013  0.00  0.00    +0.000 C 
ATOM      3  C   UNL     1      44.864  -1.160  12.490  0.00  0.00    +0.000 C 
ATOM      4  C   UNL     1      45.546  -3.635  11.695  0.00  0.00    +0.000 C 
ATOM      5  C   UNL     1      44.143  -4.127  11.466  0.00  0.00    +0.000 C 
ATOM      6  C   UNL     1      43.777  -5.608  11.225  0.00  0.00    +0.000 C 
ATOM      7  C   UNL     1      43.560  -1.679  12.074  0.00  0.00    +0.000 C 
ATOM      8  C   UNL     1      43.202  -3.072  11.617  0.00  0.00    +0.000 C 
ATOM      9  C   UNL     1      45.264   0.115  11.709  0.00  0.00    +0.000 C 
ATOM     10  C   UNL     1      46.864  -1.562  11.160  0.00  0.00    +0.000 C 
ATOM     11  C   UNL     1      46.518  -4.625  11.423  0.00  0.00    +0.000 C 
ATOM     12  C   UNL     1      46.426  -0.137  10.929  0.00  0.00    +0.000 C 
ATOM     13  C   UNL     1      45.025  -6.569  10.712  0.00  0.00    +0.000 C 
ATOM     14  C   UNL     1      46.314  -6.034  10.954  0.00  0.00    +0.000 C 
ATOM     15  C   UNL     1      44.977  -0.927  14.017  0.00  0.00    +0.000 C 
ATOM     16  C   UNL     1      42.786  -5.725  10.104  0.00  0.00    +0.000 C 
ATOM     17  C   UNL     1      43.234  -6.234  12.539  0.00  0.00    +0.000 C 
ATOM     18  C   UNL     1      42.752  -6.586   8.821  0.00  0.00    +0.000 C 
ATOM     19  C   UNL     1      44.845  -7.272   9.614  0.00  0.00    +0.000 C 
ATOM     20  C   UNL     1      43.876  -7.458   8.544  0.00  0.00    +0.000 C 
ENDROOT
BRANCH   9  21
ATOM     21  O   UNL     1      45.014   1.385  12.194  0.00  0.00    +0.000 OA
ATOM     22  H   UNL     1      45.247   2.069  11.536  0.00  0.00    +0.000 HD
ENDBRANCH   9  21
TORSDOF 1
ENDMDL
MODEL 2
REMARK VINA RESULT:      -7.5      1.792      6.289
REMARK  Name = Testosterone.pdbqt.pdb
REMARK  1 active torsions:
REMARK  status: ('A' for Active; 'I' for Inactive)
REMARK    1  A    between atoms: C_9  and  O_21
REMARK                            x       y       z     vdW  Elec       q    Type
REMARK                         _______ _______ _______ _____ _____    ______ ____
ROOT
ATOM      1  O   UNL     1      46.893  -0.461  15.359  0.00  0.00    +0.000 OA
ATOM      2  C   UNL     1      43.770  -6.119  11.255  0.00  0.00    +0.000 C 
ATOM      3  C   UNL     1      42.637  -5.844  10.156  0.00  0.00    +0.000 C 
ATOM      4  C   UNL     1      44.767  -5.089  11.611  0.00  0.00    +0.000 C 
ATOM      5  C   UNL     1      44.688  -3.626  11.273  0.00  0.00    +0.000 C 
ATOM      6  C   UNL     1      45.803  -2.606  11.591  0.00  0.00    +0.000 C 
ATOM      7  C   UNL     1      42.548  -4.388  10.030  0.00  0.00    +0.000 C 
ATOM      8  C   UNL     1      43.513  -3.338  10.524  0.00  0.00    +0.000 C 
ATOM      9  C   UNL     1      41.363  -6.457  10.785  0.00  0.00    +0.000 C 
ATOM     10  C   UNL     1      43.156  -6.896  12.290  0.00  0.00    +0.000 C 
ATOM     11  C   UNL     1      45.853  -5.390  12.466  0.00  0.00    +0.000 C 
ATOM     12  C   UNL     1      41.678  -7.058  12.035  0.00  0.00    +0.000 C 
ATOM     13  C   UNL     1      46.865  -3.067  12.774  0.00  0.00    +0.000 C 
ATOM     14  C   UNL     1      46.875  -4.458  13.043  0.00  0.00    +0.000 C 
ATOM     15  C   UNL     1      42.992  -6.558   8.828  0.00  0.00    +0.000 C 
ATOM     16  C   UNL     1      45.212  -1.344  12.148  0.00  0.00    +0.000 C 
ATOM     17  C   UNL     1      46.642  -2.330  10.312  0.00  0.00    +0.000 C 
ATOM     18  C   UNL     1      45.522  -0.511  13.413  0.00  0.00    +0.000 C 
ATOM     19  C   UNL     1      47.053  -2.243  13.784  0.00  0.00    +0.000 C 
ATOM     20  C   UNL     1      46.548  -0.987  14.319  0.00  0.00    +0.000 C 
ENDROOT
BRANCH   9  21
ATOM     21  O   UNL     1      40.327  -6.954  10.015  0.00  0.00    +0.000 OA
ATOM     22  H   UNL     1      39.875  -6.240   9.525  0.00  0.00    +0.000 HD
ENDBRANCH   9  21
TORSDOF 1
ENDMDL
MODEL 3
REMARK VINA RESULT:      -7.0     34.628     36.774
REMARK  Name = Testosterone.pdbqt.pdb
REMARK  1 active torsions:
REMARK  status: ('A' for Active; 'I' for Inactive)
REMARK    1  A    between atoms: C_9  and  O_21
REMARK                            x       y       z     vdW  Elec       q    Type
REMARK                         _______ _______ _______ _____ _____    ______ ____
ROOT
ATOM      1  O   UNL     1      24.717  19.532  29.392  0.00  0.00    +0.000 OA
ATOM      2  C   UNL     1      21.679  13.215  32.470  0.00  0.00    +0.000 C 
ATOM      3  C   UNL     1      21.614  12.990  34.055  0.00  0.00    +0.000 C 
ATOM      4  C   UNL     1      21.690  14.569  31.882  0.00  0.00    +0.000 C 
ATOM      5  C   UNL     1      21.954  15.853  32.619  0.00  0.00    +0.000 C 
ATOM      6  C   UNL     1      21.865  17.253  31.973  0.00  0.00    +0.000 C 
ATOM      7  C   UNL     1      22.040  14.256  34.655  0.00  0.00    +0.000 C 
ATOM      8  C   UNL     1      22.179  15.609  34.002  0.00  0.00    +0.000 C 
ATOM      9  C   UNL     1      22.632  11.851  34.304  0.00  0.00    +0.000 C 
ATOM     10  C   UNL     1      22.560  12.211  31.951  0.00  0.00    +0.000 C 
ATOM     11  C   UNL     1      21.593  14.757  30.483  0.00  0.00    +0.000 C 
ATOM     12  C   UNL     1      23.185  11.414  33.069  0.00  0.00    +0.000 C 
ATOM     13  C   UNL     1      21.974  17.275  30.321  0.00  0.00    +0.000 C 
ATOM     14  C   UNL     1      21.722  16.027  29.699  0.00  0.00    +0.000 C 
ATOM     15  C   UNL     1      20.189  12.555  34.479  0.00  0.00    +0.000 C 
ATOM     16  C   UNL     1      23.031  18.097  32.395  0.00  0.00    +0.000 C 
ATOM     17  C   UNL     1      20.510  17.916  32.346  0.00  0.00    +0.000 C 
ATOM     18  C   UNL     1      24.058  18.938  31.602  0.00  0.00    +0.000 C 
ATOM     19  C   UNL     1      22.880  18.063  29.778  0.00  0.00    +0.000 C 
ATOM     20  C   UNL     1      23.977  18.941  30.155  0.00  0.00    +0.000 C 
ENDROOT
BRANCH   9  21
ATOM     21  O   UNL     1      22.508  10.970  35.362  0.00  0.00    +0.000 OA
ATOM     22  H   UNL     1      21.651  11.081  35.818  0.00  0.00    +0.000 HD
ENDBRANCH   9  21
TORSDOF 1
ENDMDL
MODEL 4
REMARK VINA RESULT:      -6.5     32.966     34.626
REMARK  Name = Testosterone.pdbqt.pdb
REMARK  1 active torsions:
REMARK  status: ('A' for Active; 'I' for Inactive)
REMARK    1  A    between atoms: C_9  and  O_21
REMARK                            x       y       z     vdW  Elec       q    Type
REMARK                         _______ _______ _______ _____ _____    ______ ____
ROOT
ATOM      1  O   UNL     1      14.479  -0.179  22.863  0.00  0.00    +0.000 OA
ATOM      2  C   UNL     1      15.493   6.352  26.726  0.00  0.00    +0.000 C 
ATOM      3  C   UNL     1      14.283   7.095  27.470  0.00  0.00    +0.000 C 
ATOM      4  C   UNL     1      15.483   4.892  26.505  0.00  0.00    +0.000 C 
ATOM      5  C   UNL     1      14.291   3.985  26.632  0.00  0.00    +0.000 C 
ATOM      6  C   UNL     1      14.355   2.449  26.478  0.00  0.00    +0.000 C 
ATOM      7  C   UNL     1      13.143   6.179  27.391  0.00  0.00    +0.000 C 
ATOM      8  C   UNL     1      13.135   4.714  27.026  0.00  0.00    +0.000 C 
ATOM      9  C   UNL     1      14.066   8.373  26.625  0.00  0.00    +0.000 C 
ATOM     10  C   UNL     1      15.923   7.224  25.674  0.00  0.00    +0.000 C 
ATOM     11  C   UNL     1      16.619   4.225  25.988  0.00  0.00    +0.000 C 
ATOM     12  C   UNL     1      15.023   8.430  25.574  0.00  0.00    +0.000 C 
ATOM     13  C   UNL     1      15.675   1.877  25.659  0.00  0.00    +0.000 C 
ATOM     14  C   UNL     1      16.753   2.792  25.573  0.00  0.00    +0.000 C 
ATOM     15  C   UNL     1      14.685   7.457  28.921  0.00  0.00    +0.000 C 
ATOM     16  C   UNL     1      13.208   1.961  25.642  0.00  0.00    +0.000 C 
ATOM     17  C   UNL     1      14.368   1.781  27.880  0.00  0.00    +0.000 C 
ATOM     18  C   UNL     1      13.132   1.043  24.401  0.00  0.00    +0.000 C 
ATOM     19  C   UNL     1      15.461   1.078  24.634  0.00  0.00    +0.000 C 
ATOM     20  C   UNL     1      14.369   0.534  23.841  0.00  0.00    +0.000 C 
ENDROOT
BRANCH   9  21
ATOM     21  O   UNL     1      13.560   9.539  27.169  0.00  0.00    +0.000 OA
ATOM     22  H   UNL     1      12.716   9.792  26.745  0.00  0.00    +0.000 HD
ENDBRANCH   9  21
TORSDOF 1
ENDMDL
MODEL 5
REMARK VINA RESULT:      -6.3      3.143      4.947
REMARK  Name = Testosterone.pdbqt.pdb
REMARK  1 active torsions:
REMARK  status: ('A' for Active; 'I' for Inactive)
REMARK    1  A    between atoms: C_9  and  O_21
REMARK                            x       y       z     vdW  Elec       q    Type
REMARK                         _______ _______ _______ _____ _____    ______ ____
ROOT
ATOM      1  O   UNL     1      42.992  -4.335  15.718  0.00  0.00    +0.000 OA
ATOM      2  C   UNL     1      46.613   0.530  11.046  0.00  0.00    +0.000 C 
ATOM      3  C   UNL     1      48.056   0.201  10.432  0.00  0.00    +0.000 C 
ATOM      4  C   UNL     1      45.672  -0.543  11.426  0.00  0.00    +0.000 C 
ATOM      5  C   UNL     1      46.010  -1.999  11.594  0.00  0.00    +0.000 C 
ATOM      6  C   UNL     1      44.968  -3.096  11.904  0.00  0.00    +0.000 C 
ATOM      7  C   UNL     1      48.336  -1.189  10.794  0.00  0.00    +0.000 C 
ATOM      8  C   UNL     1      47.384  -2.238  11.314  0.00  0.00    +0.000 C 
ATOM      9  C   UNL     1      48.995   1.196  11.155  0.00  0.00    +0.000 C 
ATOM     10  C   UNL     1      46.785   1.659  11.912  0.00  0.00    +0.000 C 
ATOM     11  C   UNL     1      44.348  -0.245  11.822  0.00  0.00    +0.000 C 
ATOM     12  C   UNL     1      48.242   2.033  12.023  0.00  0.00    +0.000 C 
ATOM     13  C   UNL     1      43.546  -2.554  12.557  0.00  0.00    +0.000 C 
ATOM     14  C   UNL     1      43.303  -1.171  12.366  0.00  0.00    +0.000 C 
ATOM     15  C   UNL     1      48.059   0.453   8.903  0.00  0.00    +0.000 C 
ATOM     16  C   UNL     1      45.488  -4.024  12.963  0.00  0.00    +0.000 C 
ATOM     17  C   UNL     1      44.607  -3.859  10.600  0.00  0.00    +0.000 C 
ATOM     18  C   UNL     1      44.890  -4.535  14.294  0.00  0.00    +0.000 C 
ATOM     19  C   UNL     1      43.142  -3.102  13.684  0.00  0.00    +0.000 C 
ATOM     20  C   UNL     1      43.587  -4.046  14.698  0.00  0.00    +0.000 C 
ENDROOT
BRANCH   9  21
ATOM     21  O   UNL     1      50.160   1.664  10.574  0.00  0.00    +0.000 OA
ATOM     22  H   UNL     1      50.013   2.515  10.117  0.00  0.00    +0.000 HD
ENDBRANCH   9  21
TORSDOF 1
ENDMDL
MODEL 6
REMARK VINA RESULT:      -6.2      2.969      4.472
REMARK  Name = Testosterone.pdbqt.pdb
REMARK  1 active torsions:
REMARK  status: ('A' for Active; 'I' for Inactive)
REMARK    1  A    between atoms: C_9  and  O_21
REMARK                            x       y       z     vdW  Elec       q    Type
REMARK                         _______ _______ _______ _____ _____    ______ ____
ROOT
ATOM      1  O   UNL     1      44.221  -6.082  16.209  0.00  0.00    +0.000 OA
ATOM      2  C   UNL     1      45.864  -0.749  10.969  0.00  0.00    +0.000 C 
ATOM      3  C   UNL     1      47.361  -0.233  10.723  0.00  0.00    +0.000 C 
ATOM      4  C   UNL     1      45.589  -2.103  11.488  0.00  0.00    +0.000 C 
ATOM      5  C   UNL     1      46.588  -3.025  12.131  0.00  0.00    +0.000 C 
ATOM      6  C   UNL     1      46.267  -4.469  12.576  0.00  0.00    +0.000 C 
ATOM      7  C   UNL     1      48.221  -1.111  11.520  0.00  0.00    +0.000 C 
ATOM      8  C   UNL     1      47.881  -2.433  12.163  0.00  0.00    +0.000 C 
ATOM      9  C   UNL     1      47.341   1.216  11.263  0.00  0.00    +0.000 C 
ATOM     10  C   UNL     1      45.126   0.369  11.480  0.00  0.00    +0.000 C 
ATOM     11  C   UNL     1      44.267  -2.603  11.557  0.00  0.00    +0.000 C 
ATOM     12  C   UNL     1      46.034   1.551  11.712  0.00  0.00    +0.000 C 
ATOM     13  C   UNL     1      44.660  -4.798  12.798  0.00  0.00    +0.000 C 
ATOM     14  C   UNL     1      43.781  -3.880  12.171  0.00  0.00    +0.000 C 
ATOM     15  C   UNL     1      47.694  -0.251   9.210  0.00  0.00    +0.000 C 
ATOM     16  C   UNL     1      46.853  -4.738  13.931  0.00  0.00    +0.000 C 
ATOM     17  C   UNL     1      46.793  -5.473  11.514  0.00  0.00    +0.000 C 
ATOM     18  C   UNL     1      46.253  -5.309  15.237  0.00  0.00    +0.000 C 
ATOM     19  C   UNL     1      44.294  -5.310  13.955  0.00  0.00    +0.000 C 
ATOM     20  C   UNL     1      44.843  -5.644  15.261  0.00  0.00    +0.000 C 
ENDROOT
BRANCH   9  21
ATOM     21  O   UNL     1      48.180   2.199  10.770  0.00  0.00    +0.000 OA
ATOM     22  H   UNL     1      49.015   1.817  10.434  0.00  0.00    +0.000 HD
ENDBRANCH   9  21
TORSDOF 1
ENDMDL
MODEL 7
REMARK VINA RESULT:      -6.0      4.408      6.627
REMARK  Name = Testosterone.pdbqt.pdb
REMARK  1 active torsions:
REMARK  status: ('A' for Active; 'I' for Inactive)
REMARK    1  A    between atoms: C_9  and  O_21
REMARK                            x       y       z     vdW  Elec       q    Type
REMARK                         _______ _______ _______ _____ _____    ______ ____
ROOT
ATOM      1  O   UNL     1      42.600  -4.488  14.953  0.00  0.00    +0.000 OA
ATOM      2  C   UNL     1      44.424   2.944  15.196  0.00  0.00    +0.000 C 
ATOM      3  C   UNL     1      45.946   3.443  15.222  0.00  0.00    +0.000 C 
ATOM      4  C   UNL     1      44.043   1.658  14.578  0.00  0.00    +0.000 C 
ATOM      5  C   UNL     1      44.982   0.546  14.198  0.00  0.00    +0.000 C 
ATOM      6  C   UNL     1      44.542  -0.743  13.470  0.00  0.00    +0.000 C 
ATOM      7  C   UNL     1      46.762   2.249  14.996  0.00  0.00    +0.000 C 
ATOM      8  C   UNL     1      46.330   0.894  14.491  0.00  0.00    +0.000 C 
ATOM      9  C   UNL     1      46.120   4.008  16.653  0.00  0.00    +0.000 C 
ATOM     10  C   UNL     1      43.848   3.322  16.453  0.00  0.00    +0.000 C 
ATOM     11  C   UNL     1      42.685   1.297  14.423  0.00  0.00    +0.000 C 
ATOM     12  C   UNL     1      44.891   3.921  17.362  0.00  0.00    +0.000 C 
ATOM     13  C   UNL     1      42.929  -1.099  13.579  0.00  0.00    +0.000 C 
ATOM     14  C   UNL     1      42.110  -0.004  13.951  0.00  0.00    +0.000 C 
ATOM     15  C   UNL     1      46.167   4.552  14.163  0.00  0.00    +0.000 C 
ATOM     16  C   UNL     1      45.191  -1.943  14.096  0.00  0.00    +0.000 C 
ATOM     17  C   UNL     1      44.880  -0.633  11.958  0.00  0.00    +0.000 C 
ATOM     18  C   UNL     1      44.628  -3.285  14.619  0.00  0.00    +0.000 C 
ATOM     19  C   UNL     1      42.594  -2.296  14.016  0.00  0.00    +0.000 C 
ATOM     20  C   UNL     1      43.196  -3.501  14.566  0.00  0.00    +0.000 C 
ENDROOT
BRANCH   9  21
ATOM     21  O   UNL     1      47.021   5.016  16.942  0.00  0.00    +0.000 OA
ATOM     22  H   UNL     1      47.319   4.971  17.872  0.00  0.00    +0.000 HD
ENDBRANCH   9  21
TORSDOF 1
ENDMDL
MODEL 8
REMARK VINA RESULT:      -5.7     27.569     28.825
REMARK  Name = Testosterone.pdbqt.pdb
REMARK  1 active torsions:
REMARK  status: ('A' for Active; 'I' for Inactive)
REMARK    1  A    between atoms: C_9  and  O_21
REMARK                            x       y       z     vdW  Elec       q    Type
REMARK                         _______ _______ _______ _____ _____    ______ ____
ROOT
ATOM      1  O   UNL     1      23.467   9.188  -9.705  0.00  0.00    +0.000 OA
ATOM      2  C   UNL     1      30.221   9.939  -6.179  0.00  0.00    +0.000 C 
ATOM      3  C   UNL     1      31.571  10.239  -6.988  0.00  0.00    +0.000 C 
ATOM      4  C   UNL     1      28.903  10.361  -6.693  0.00  0.00    +0.000 C 
ATOM      5  C   UNL     1      28.602  10.810  -8.097  0.00  0.00    +0.000 C 
ATOM      6  C   UNL     1      27.222  11.328  -8.560  0.00  0.00    +0.000 C 
ATOM      7  C   UNL     1      31.159  10.508  -8.367  0.00  0.00    +0.000 C 
ATOM      8  C   UNL     1      29.778  10.803  -8.897  0.00  0.00    +0.000 C 
ATOM      9  C   UNL     1      32.372   8.921  -6.862  0.00  0.00    +0.000 C 
ATOM     10  C   UNL     1      30.371   8.636  -5.603  0.00  0.00    +0.000 C 
ATOM     11  C   UNL     1      27.736  10.229  -5.905  0.00  0.00    +0.000 C 
ATOM     12  C   UNL     1      31.655   7.991  -6.060  0.00  0.00    +0.000 C 
ATOM     13  C   UNL     1      25.946  10.891  -7.600  0.00  0.00    +0.000 C 
ATOM     14  C   UNL     1      26.310  10.471  -6.296  0.00  0.00    +0.000 C 
ATOM     15  C   UNL     1      32.340  11.414  -6.333  0.00  0.00    +0.000 C 
ATOM     16  C   UNL     1      26.860  10.729  -9.888  0.00  0.00    +0.000 C 
ATOM     17  C   UNL     1      27.237  12.880  -8.615  0.00  0.00    +0.000 C 
ATOM     18  C   UNL     1      25.598   9.996 -10.397  0.00  0.00    +0.000 C 
ATOM     19  C   UNL     1      24.922  10.296  -8.176  0.00  0.00    +0.000 C 
ATOM     20  C   UNL     1      24.511   9.763  -9.466  0.00  0.00    +0.000 C 
ENDROOT
BRANCH   9  21
ATOM     21  O   UNL     1      33.754   8.893  -6.893  0.00  0.00    +0.000 OA
ATOM     22  H   UNL     1      34.129   8.803  -5.994  0.00  0.00    +0.000 HD
ENDBRANCH   9  21
TORSDOF 1
ENDMDL
MODEL 9
REMARK VINA RESULT:      -5.7      3.178      4.918
REMARK  Name = Testosterone.pdbqt.pdb
REMARK  1 active torsions:
REMARK  status: ('A' for Active; 'I' for Inactive)
REMARK    1  A    between atoms: C_9  and  O_21
REMARK                            x       y       z     vdW  Elec       q    Type
REMARK                         _______ _______ _______ _____ _____    ______ ____
ROOT
ATOM      1  O   UNL     1      42.420  -4.004  15.103  0.00  0.00    +0.000 OA
ATOM      2  C   UNL     1      47.954  -2.155  10.147  0.00  0.00    +0.000 C 
ATOM      3  C   UNL     1      49.449  -2.712  10.298  0.00  0.00    +0.000 C 
ATOM      4  C   UNL     1      46.795  -2.904  10.670  0.00  0.00    +0.000 C 
ATOM      5  C   UNL     1      46.847  -4.052  11.641  0.00  0.00    +0.000 C 
ATOM      6  C   UNL     1      45.609  -4.860  12.088  0.00  0.00    +0.000 C 
ATOM      7  C   UNL     1      49.399  -3.705  11.372  0.00  0.00    +0.000 C 
ATOM      8  C   UNL     1      48.190  -4.361  11.993  0.00  0.00    +0.000 C 
ATOM      9  C   UNL     1      50.266  -1.459  10.696  0.00  0.00    +0.000 C 
ATOM     10  C   UNL     1      48.025  -0.737  10.338  0.00  0.00    +0.000 C 
ATOM     11  C   UNL     1      45.472  -2.483  10.400  0.00  0.00    +0.000 C 
ATOM     12  C   UNL     1      49.421  -0.317  10.726  0.00  0.00    +0.000 C 
ATOM     13  C   UNL     1      44.154  -4.101  11.868  0.00  0.00    +0.000 C 
ATOM     14  C   UNL     1      44.187  -3.025  10.947  0.00  0.00    +0.000 C 
ATOM     15  C   UNL     1      49.948  -3.287   8.949  0.00  0.00    +0.000 C 
ATOM     16  C   UNL     1      45.644  -5.090  13.571  0.00  0.00    +0.000 C 
ATOM     17  C   UNL     1      45.544  -6.198  11.301  0.00  0.00    +0.000 C 
ATOM     18  C   UNL     1      44.605  -4.856  14.692  0.00  0.00    +0.000 C 
ATOM     19  C   UNL     1      43.354  -3.998  12.909  0.00  0.00    +0.000 C 
ATOM     20  C   UNL     1      43.329  -4.267  14.339  0.00  0.00    +0.000 C 
ENDROOT
BRANCH   9  21
ATOM     21  O   UNL     1      51.607  -1.325  10.386  0.00  0.00    +0.000 OA
ATOM     22  H   UNL     1      51.805  -0.433  10.039  0.00  0.00    +0.000 HD
ENDBRANCH   9  21
TORSDOF 1
ENDMDL
