MODEL 1
REMARK VINA RESULT:      -3.2      0.000      0.000
REMARK  Name = Tetrachloroethylene.pdbqt.pdb
REMARK  0 active torsions:
REMARK  status: ('A' for Active; 'I' for Inactive)
REMARK                            x       y       z     vdW  Elec       q    Type
REMARK                         _______ _______ _______ _____ _____    ______ ____
ROOT
ATOM      1 CL   UNL     1      45.421  -6.676  10.810  0.00  0.00    +0.000 Cl
ATOM      2 CL   UNL     1      43.367  -6.442  12.884  0.00  0.00    +0.000 Cl
ATOM      3 CL   UNL     1      41.074  -6.604  10.632  0.00  0.00    +0.000 Cl
ATOM      4 CL   UNL     1      43.128  -6.838   8.558  0.00  0.00    +0.000 Cl
ATOM      5  C   UNL     1      43.726  -6.606  11.191  0.00  0.00    +0.000 C 
ATOM      6  C   UNL     1      42.769  -6.674  10.251  0.00  0.00    +0.000 C 
ENDROOT
TORSDOF 0
ENDMDL
MODEL 2
REMARK VINA RESULT:      -3.2      0.081      2.740
REMARK  Name = Tetrachloroethylene.pdbqt.pdb
REMARK  0 active torsions:
REMARK  status: ('A' for Active; 'I' for Inactive)
REMARK                            x       y       z     vdW  Elec       q    Type
REMARK                         _______ _______ _______ _____ _____    ______ ____
ROOT
ATOM      1 CL   UNL     1      43.221  -6.869   8.593  0.00  0.00    +0.000 Cl
ATOM      2 CL   UNL     1      41.130  -6.621  10.628  0.00  0.00    +0.000 Cl
ATOM      3 CL   UNL     1      43.382  -6.376  12.913  0.00  0.00    +0.000 Cl
ATOM      4 CL   UNL     1      45.473  -6.624  10.879  0.00  0.00    +0.000 Cl
ATOM      5  C   UNL     1      42.831  -6.674  10.276  0.00  0.00    +0.000 C 
ATOM      6  C   UNL     1      43.772  -6.571  11.231  0.00  0.00    +0.000 C 
ENDROOT
TORSDOF 0
ENDMDL
MODEL 3
REMARK VINA RESULT:      -3.1      1.977      3.555
REMARK  Name = Tetrachloroethylene.pdbqt.pdb
REMARK  0 active torsions:
REMARK  status: ('A' for Active; 'I' for Inactive)
REMARK                            x       y       z     vdW  Elec       q    Type
REMARK                         _______ _______ _______ _____ _____    ______ ____
ROOT
ATOM      1 CL   UNL     1      41.447  -7.385  11.814  0.00  0.00    +0.000 Cl
ATOM      2 CL   UNL     1      40.839  -5.399   9.749  0.00  0.00    +0.000 Cl
ATOM      3 CL   UNL     1      43.390  -3.665  10.665  0.00  0.00    +0.000 Cl
ATOM      4 CL   UNL     1      43.998  -5.650  12.730  0.00  0.00    +0.000 Cl
ATOM      5  C   UNL     1      41.886  -5.887  11.048  0.00  0.00    +0.000 C 
ATOM      6  C   UNL     1      42.951  -5.163  11.431  0.00  0.00    +0.000 C 
ENDROOT
TORSDOF 0
ENDMDL
MODEL 4
REMARK VINA RESULT:      -3.1      0.871      2.977
REMARK  Name = Tetrachloroethylene.pdbqt.pdb
REMARK  0 active torsions:
REMARK  status: ('A' for Active; 'I' for Inactive)
REMARK                            x       y       z     vdW  Elec       q    Type
REMARK                         _______ _______ _______ _____ _____    ______ ____
ROOT
ATOM      1 CL   UNL     1      42.128  -5.833  12.559  0.00  0.00    +0.000 Cl
ATOM      2 CL   UNL     1      40.757  -6.291  10.013  0.00  0.00    +0.000 Cl
ATOM      3 CL   UNL     1      43.576  -6.972   8.617  0.00  0.00    +0.000 Cl
ATOM      4 CL   UNL     1      44.947  -6.514  11.164  0.00  0.00    +0.000 Cl
ATOM      5  C   UNL     1      42.263  -6.260  10.879  0.00  0.00    +0.000 C 
ATOM      6  C   UNL     1      43.440  -6.545  10.297  0.00  0.00    +0.000 C 
ENDROOT
TORSDOF 0
ENDMDL
MODEL 5
REMARK VINA RESULT:      -3.1      1.976      2.231
REMARK  Name = Tetrachloroethylene.pdbqt.pdb
REMARK  0 active torsions:
REMARK  status: ('A' for Active; 'I' for Inactive)
REMARK                            x       y       z     vdW  Elec       q    Type
REMARK                         _______ _______ _______ _____ _____    ______ ____
ROOT
ATOM      1 CL   UNL     1      43.394  -3.675  10.660  0.00  0.00    +0.000 Cl
ATOM      2 CL   UNL     1      44.014  -5.656  12.726  0.00  0.00    +0.000 Cl
ATOM      3 CL   UNL     1      41.456  -7.391  11.829  0.00  0.00    +0.000 Cl
ATOM      4 CL   UNL     1      40.837  -5.411   9.763  0.00  0.00    +0.000 Cl
ATOM      5  C   UNL     1      42.959  -5.171  11.432  0.00  0.00    +0.000 C 
ATOM      6  C   UNL     1      41.891  -5.896  11.057  0.00  0.00    +0.000 C 
ENDROOT
TORSDOF 0
ENDMDL
MODEL 6
REMARK VINA RESULT:      -3.1      1.980      2.434
REMARK  Name = Tetrachloroethylene.pdbqt.pdb
REMARK  0 active torsions:
REMARK  status: ('A' for Active; 'I' for Inactive)
REMARK                            x       y       z     vdW  Elec       q    Type
REMARK                         _______ _______ _______ _____ _____    ______ ____
ROOT
ATOM      1 CL   UNL     1      43.791  -5.981  12.872  0.00  0.00    +0.000 Cl
ATOM      2 CL   UNL     1      41.447  -7.385  11.821  0.00  0.00    +0.000 Cl
ATOM      3 CL   UNL     1      41.099  -5.117   9.565  0.00  0.00    +0.000 Cl
ATOM      4 CL   UNL     1      43.444  -3.713  10.616  0.00  0.00    +0.000 Cl
ATOM      5  C   UNL     1      42.518  -6.023  11.690  0.00  0.00    +0.000 C 
ATOM      6  C   UNL     1      42.373  -5.075  10.747  0.00  0.00    +0.000 C 
ENDROOT
TORSDOF 0
ENDMDL
MODEL 7
REMARK VINA RESULT:      -3.1      1.257      2.455
REMARK  Name = Tetrachloroethylene.pdbqt.pdb
REMARK  0 active torsions:
REMARK  status: ('A' for Active; 'I' for Inactive)
REMARK                            x       y       z     vdW  Elec       q    Type
REMARK                         _______ _______ _______ _____ _____    ______ ____
ROOT
ATOM      1 CL   UNL     1      43.075  -4.641  12.163  0.00  0.00    +0.000 Cl
ATOM      2 CL   UNL     1      45.001  -6.556  11.067  0.00  0.00    +0.000 Cl
ATOM      3 CL   UNL     1      43.128  -6.961   8.482  0.00  0.00    +0.000 Cl
ATOM      4 CL   UNL     1      41.202  -5.046   9.578  0.00  0.00    +0.000 Cl
ATOM      5  C   UNL     1      43.493  -5.717  10.862  0.00  0.00    +0.000 C 
ATOM      6  C   UNL     1      42.710  -5.886   9.783  0.00  0.00    +0.000 C 
ENDROOT
TORSDOF 0
ENDMDL
MODEL 8
REMARK VINA RESULT:      -3.1      1.972      3.168
REMARK  Name = Tetrachloroethylene.pdbqt.pdb
REMARK  0 active torsions:
REMARK  status: ('A' for Active; 'I' for Inactive)
REMARK                            x       y       z     vdW  Elec       q    Type
REMARK                         _______ _______ _______ _____ _____    ______ ____
ROOT
ATOM      1 CL   UNL     1      43.533  -3.682  10.833  0.00  0.00    +0.000 Cl
ATOM      2 CL   UNL     1      41.319  -5.119   9.565  0.00  0.00    +0.000 Cl
ATOM      3 CL   UNL     1      41.514  -7.408  11.818  0.00  0.00    +0.000 Cl
ATOM      4 CL   UNL     1      43.728  -5.971  13.086  0.00  0.00    +0.000 Cl
ATOM      5  C   UNL     1      42.483  -5.067  10.855  0.00  0.00    +0.000 C 
ATOM      6  C   UNL     1      42.564  -6.023  11.796  0.00  0.00    +0.000 C 
ENDROOT
TORSDOF 0
ENDMDL
MODEL 9
REMARK VINA RESULT:      -3.0     14.177     15.713
REMARK  Name = Tetrachloroethylene.pdbqt.pdb
REMARK  0 active torsions:
REMARK  status: ('A' for Active; 'I' for Inactive)
REMARK                            x       y       z     vdW  Elec       q    Type
REMARK                         _______ _______ _______ _____ _____    ______ ____
ROOT
ATOM      1 CL   UNL     1      27.712  -2.356  12.439  0.00  0.00    +0.000 Cl
ATOM      2 CL   UNL     1      26.912  -2.334  15.255  0.00  0.00    +0.000 Cl
ATOM      3 CL   UNL     1      29.270  -4.414  15.941  0.00  0.00    +0.000 Cl
ATOM      4 CL   UNL     1      30.070  -4.436  13.125  0.00  0.00    +0.000 Cl
ATOM      5  C   UNL     1      27.999  -2.951  14.047  0.00  0.00    +0.000 C 
ATOM      6  C   UNL     1      28.983  -3.819  14.333  0.00  0.00    +0.000 C 
ENDROOT
TORSDOF 0
ENDMDL
