MODEL 1
REMARK VINA RESULT:      -7.3      0.000      0.000
REMARK  Name = Thalidomide.pdbqt.pdb
REMARK  1 active torsions:
REMARK  status: ('A' for Active; 'I' for Inactive)
REMARK    1  A    between atoms: N_3  and  C_12
REMARK                            x       y       z     vdW  Elec       q    Type
REMARK                         _______ _______ _______ _____ _____    ______ ____
ROOT
ATOM      1  O   UNL     1      19.897  21.925   2.317  0.00  0.00    +0.000 OA
ATOM      2  O   UNL     1      21.823  17.824   3.114  0.00  0.00    +0.000 OA
ATOM      3  N   UNL     1      21.307  20.052   2.545  0.00  0.00    +0.000 N 
ATOM      4  C   UNL     1      20.215  20.851   2.793  0.00  0.00    +0.000 C 
ATOM      5  C   UNL     1      21.209  18.867   3.241  0.00  0.00    +0.000 C 
ATOM      6  C   UNL     1      19.423  20.180   3.817  0.00  0.00    +0.000 A 
ATOM      7  C   UNL     1      20.040  18.980   4.105  0.00  0.00    +0.000 A 
ATOM      8  C   UNL     1      18.252  20.570   4.433  0.00  0.00    +0.000 A 
ATOM      9  C   UNL     1      19.520  18.085   5.016  0.00  0.00    +0.000 A 
ATOM     10  C   UNL     1      17.714  19.688   5.372  0.00  0.00    +0.000 A 
ATOM     11  C   UNL     1      18.339  18.462   5.659  0.00  0.00    +0.000 A 
ENDROOT
BRANCH   3  12
ATOM     12  C   UNL     1      22.293  20.336   1.632  0.00  0.00    +0.000 C 
ATOM     13  C   UNL     1      23.425  21.124   1.936  0.00  0.00    +0.000 C 
ATOM     14  C   UNL     1      24.400  21.557   0.885  0.00  0.00    +0.000 C 
ATOM     15  C   UNL     1      24.274  21.158  -0.486  0.00  0.00    +0.000 C 
ATOM     16  O   UNL     1      25.110  21.449  -1.326  0.00  0.00    +0.000 OA
ATOM     17  N   UNL     1      23.150  20.370  -0.721  0.00  0.00    +0.000 N 
ATOM     18  C   UNL     1      22.271  19.791   0.207  0.00  0.00    +0.000 C 
ATOM     19  H   UNL     1      23.111  19.964  -1.644  0.00  0.00    +0.000 HD
ATOM     20  O   UNL     1      21.619  18.800  -0.105  0.00  0.00    +0.000 OA
ENDBRANCH   3  12
TORSDOF 1
ENDMDL
MODEL 2
REMARK VINA RESULT:      -7.1     32.645     33.892
REMARK  Name = Thalidomide.pdbqt.pdb
REMARK  1 active torsions:
REMARK  status: ('A' for Active; 'I' for Inactive)
REMARK    1  A    between atoms: N_3  and  C_12
REMARK                            x       y       z     vdW  Elec       q    Type
REMARK                         _______ _______ _______ _____ _____    ______ ____
ROOT
ATOM      1  O   UNL     1      44.117  -2.611  10.860  0.00  0.00    +0.000 OA
ATOM      2  O   UNL     1      42.863  -4.005  15.061  0.00  0.00    +0.000 OA
ATOM      3  N   UNL     1      43.336  -2.834  13.072  0.00  0.00    +0.000 N 
ATOM      4  C   UNL     1      43.689  -3.245  11.807  0.00  0.00    +0.000 C 
ATOM      5  C   UNL     1      42.994  -3.915  13.855  0.00  0.00    +0.000 C 
ATOM      6  C   UNL     1      43.435  -4.680  11.742  0.00  0.00    +0.000 A 
ATOM      7  C   UNL     1      42.993  -5.084  12.984  0.00  0.00    +0.000 A 
ATOM      8  C   UNL     1      43.596  -5.564  10.695  0.00  0.00    +0.000 A 
ATOM      9  C   UNL     1      42.697  -6.401  13.267  0.00  0.00    +0.000 A 
ATOM     10  C   UNL     1      43.287  -6.901  10.952  0.00  0.00    +0.000 A 
ATOM     11  C   UNL     1      42.844  -7.314  12.221  0.00  0.00    +0.000 A 
ENDROOT
BRANCH   3  12
ATOM     12  C   UNL     1      43.435  -1.544  13.531  0.00  0.00    +0.000 C 
ATOM     13  C   UNL     1      42.347  -0.642  13.543  0.00  0.00    +0.000 C 
ATOM     14  C   UNL     1      42.516   0.805  13.891  0.00  0.00    +0.000 C 
ATOM     15  C   UNL     1      43.780   1.354  14.284  0.00  0.00    +0.000 C 
ATOM     16  O   UNL     1      43.901   2.515  14.640  0.00  0.00    +0.000 OA
ATOM     17  N   UNL     1      44.809   0.415  14.268  0.00  0.00    +0.000 N 
ATOM     18  C   UNL     1      44.728  -0.975  14.107  0.00  0.00    +0.000 C 
ATOM     19  H   UNL     1      45.676   0.740  14.669  0.00  0.00    +0.000 HD
ATOM     20  O   UNL     1      45.622  -1.695  14.543  0.00  0.00    +0.000 OA
ENDBRANCH   3  12
TORSDOF 1
ENDMDL
MODEL 3
REMARK VINA RESULT:      -6.9      1.950      6.036
REMARK  Name = Thalidomide.pdbqt.pdb
REMARK  1 active torsions:
REMARK  status: ('A' for Active; 'I' for Inactive)
REMARK    1  A    between atoms: N_3  and  C_12
REMARK                            x       y       z     vdW  Elec       q    Type
REMARK                         _______ _______ _______ _____ _____    ______ ____
ROOT
ATOM      1  O   UNL     1      21.390  21.614   3.834  0.00  0.00    +0.000 OA
ATOM      2  O   UNL     1      21.629  18.337   0.614  0.00  0.00    +0.000 OA
ATOM      3  N   UNL     1      21.028  19.839   2.327  0.00  0.00    +0.000 N 
ATOM      4  C   UNL     1      21.622  20.977   2.823  0.00  0.00    +0.000 C 
ATOM      5  C   UNL     1      21.683  19.403   1.195  0.00  0.00    +0.000 C 
ATOM      6  C   UNL     1      22.655  21.365   1.869  0.00  0.00    +0.000 A 
ATOM      7  C   UNL     1      22.678  20.417   0.868  0.00  0.00    +0.000 A 
ATOM      8  C   UNL     1      23.516  22.442   1.882  0.00  0.00    +0.000 A 
ATOM      9  C   UNL     1      23.574  20.475  -0.179  0.00  0.00    +0.000 A 
ATOM     10  C   UNL     1      24.423  22.532   0.824  0.00  0.00    +0.000 A 
ATOM     11  C   UNL     1      24.452  21.561  -0.193  0.00  0.00    +0.000 A 
ENDROOT
BRANCH   3  12
ATOM     12  C   UNL     1      20.008  19.157   2.943  0.00  0.00    +0.000 C 
ATOM     13  C   UNL     1      18.657  19.259   2.543  0.00  0.00    +0.000 C 
ATOM     14  C   UNL     1      17.544  18.639   3.330  0.00  0.00    +0.000 C 
ATOM     15  C   UNL     1      17.782  17.860   4.509  0.00  0.00    +0.000 C 
ATOM     16  O   UNL     1      16.882  17.293   5.105  0.00  0.00    +0.000 OA
ATOM     17  N   UNL     1      19.132  17.782   4.844  0.00  0.00    +0.000 N 
ATOM     18  C   UNL     1      20.248  18.193   4.100  0.00  0.00    +0.000 C 
ATOM     19  H   UNL     1      19.340  17.131   5.586  0.00  0.00    +0.000 HD
ATOM     20  O   UNL     1      21.344  17.679   4.307  0.00  0.00    +0.000 OA
ENDBRANCH   3  12
TORSDOF 1
ENDMDL
MODEL 4
REMARK VINA RESULT:      -6.9     32.599     33.742
REMARK  Name = Thalidomide.pdbqt.pdb
REMARK  1 active torsions:
REMARK  status: ('A' for Active; 'I' for Inactive)
REMARK    1  A    between atoms: N_3  and  C_12
REMARK                            x       y       z     vdW  Elec       q    Type
REMARK                         _______ _______ _______ _____ _____    ______ ____
ROOT
ATOM      1  O   UNL     1      44.614  -3.308  14.439  0.00  0.00    +0.000 OA
ATOM      2  O   UNL     1      42.659  -3.207  10.276  0.00  0.00    +0.000 OA
ATOM      3  N   UNL     1      43.931  -2.861  12.229  0.00  0.00    +0.000 N 
ATOM      4  C   UNL     1      44.111  -3.606  13.372  0.00  0.00    +0.000 C 
ATOM      5  C   UNL     1      43.220  -3.576  11.290  0.00  0.00    +0.000 C 
ATOM      6  C   UNL     1      43.583  -4.938  13.096  0.00  0.00    +0.000 A 
ATOM      7  C   UNL     1      43.059  -4.925  11.821  0.00  0.00    +0.000 A 
ATOM      8  C   UNL     1      43.545  -6.061  13.896  0.00  0.00    +0.000 A 
ATOM      9  C   UNL     1      42.447  -6.029  11.266  0.00  0.00    +0.000 A 
ATOM     10  C   UNL     1      42.944  -7.197  13.351  0.00  0.00    +0.000 A 
ATOM     11  C   UNL     1      42.402  -7.182  12.053  0.00  0.00    +0.000 A 
ENDROOT
BRANCH   3  12
ATOM     12  C   UNL     1      44.294  -1.544  12.089  0.00  0.00    +0.000 C 
ATOM     13  C   UNL     1      45.395  -1.124  11.310  0.00  0.00    +0.000 C 
ATOM     14  C   UNL     1      45.871   0.296  11.305  0.00  0.00    +0.000 C 
ATOM     15  C   UNL     1      45.209   1.328  12.047  0.00  0.00    +0.000 C 
ATOM     16  O   UNL     1      45.552   2.497  11.982  0.00  0.00    +0.000 OA
ATOM     17  N   UNL     1      44.123   0.856  12.781  0.00  0.00    +0.000 N 
ATOM     18  C   UNL     1      43.512  -0.405  12.736  0.00  0.00    +0.000 C 
ATOM     19  H   UNL     1      43.559   1.580  13.202  0.00  0.00    +0.000 HD
ATOM     20  O   UNL     1      42.343  -0.532  13.089  0.00  0.00    +0.000 OA
ENDBRANCH   3  12
TORSDOF 1
ENDMDL
MODEL 5
REMARK VINA RESULT:      -6.4     14.921     17.325
REMARK  Name = Thalidomide.pdbqt.pdb
REMARK  1 active torsions:
REMARK  status: ('A' for Active; 'I' for Inactive)
REMARK    1  A    between atoms: N_3  and  C_12
REMARK                            x       y       z     vdW  Elec       q    Type
REMARK                         _______ _______ _______ _____ _____    ______ ____
ROOT
ATOM      1  O   UNL     1      31.098  11.796  -6.775  0.00  0.00    +0.000 OA
ATOM      2  O   UNL     1      30.588   7.346  -5.724  0.00  0.00    +0.000 OA
ATOM      3  N   UNL     1      30.431   9.547  -6.551  0.00  0.00    +0.000 N 
ATOM      4  C   UNL     1      31.289  10.623  -6.515  0.00  0.00    +0.000 C 
ATOM      5  C   UNL     1      31.054   8.414  -6.074  0.00  0.00    +0.000 C 
ATOM      6  C   UNL     1      32.591  10.112  -6.100  0.00  0.00    +0.000 A 
ATOM      7  C   UNL     1      32.452   8.763  -5.852  0.00  0.00    +0.000 A 
ATOM      8  C   UNL     1      33.792  10.770  -5.934  0.00  0.00    +0.000 A 
ATOM      9  C   UNL     1      33.500   7.985  -5.405  0.00  0.00    +0.000 A 
ATOM     10  C   UNL     1      34.872  10.001  -5.498  0.00  0.00    +0.000 A 
ATOM     11  C   UNL     1      34.729   8.627  -5.237  0.00  0.00    +0.000 A 
ENDROOT
BRANCH   3  12
ATOM     12  C   UNL     1      29.103   9.618  -6.891  0.00  0.00    +0.000 C 
ATOM     13  C   UNL     1      28.130  10.248  -6.082  0.00  0.00    +0.000 C 
ATOM     14  C   UNL     1      26.667  10.168  -6.389  0.00  0.00    +0.000 C 
ATOM     15  C   UNL     1      26.164   9.494  -7.549  0.00  0.00    +0.000 C 
ATOM     16  O   UNL     1      24.979   9.495  -7.838  0.00  0.00    +0.000 OA
ATOM     17  N   UNL     1      27.169   8.908  -8.314  0.00  0.00    +0.000 N 
ATOM     18  C   UNL     1      28.560   9.050  -8.198  0.00  0.00    +0.000 C 
ATOM     19  H   UNL     1      26.859   8.545  -9.203  0.00  0.00    +0.000 HD
ATOM     20  O   UNL     1      29.279   8.845  -9.171  0.00  0.00    +0.000 OA
ENDBRANCH   3  12
TORSDOF 1
ENDMDL
MODEL 6
REMARK VINA RESULT:      -6.2      3.531      5.480
REMARK  Name = Thalidomide.pdbqt.pdb
REMARK  1 active torsions:
REMARK  status: ('A' for Active; 'I' for Inactive)
REMARK    1  A    between atoms: N_3  and  C_12
REMARK                            x       y       z     vdW  Elec       q    Type
REMARK                         _______ _______ _______ _____ _____    ______ ____
ROOT
ATOM      1  O   UNL     1      24.961  23.956   1.001  0.00  0.00    +0.000 OA
ATOM      2  O   UNL     1      21.694  22.503   3.896  0.00  0.00    +0.000 OA
ATOM      3  N   UNL     1      23.340  22.768   2.231  0.00  0.00    +0.000 N 
ATOM      4  C   UNL     1      24.264  23.756   1.978  0.00  0.00    +0.000 C 
ATOM      5  C   UNL     1      22.709  22.990   3.436  0.00  0.00    +0.000 C 
ATOM      6  C   UNL     1      24.313  24.602   3.165  0.00  0.00    +0.000 A 
ATOM      7  C   UNL     1      23.381  24.123   4.061  0.00  0.00    +0.000 A 
ATOM      8  C   UNL     1      25.091  25.709   3.435  0.00  0.00    +0.000 A 
ATOM      9  C   UNL     1      23.152  24.727   5.279  0.00  0.00    +0.000 A 
ATOM     10  C   UNL     1      24.890  26.330   4.670  0.00  0.00    +0.000 A 
ATOM     11  C   UNL     1      23.933  25.846   5.580  0.00  0.00    +0.000 A 
ENDROOT
BRANCH   3  12
ATOM     12  C   UNL     1      22.999  21.772   1.349  0.00  0.00    +0.000 C 
ATOM     13  C   UNL     1      22.514  22.025   0.047  0.00  0.00    +0.000 C 
ATOM     14  C   UNL     1      21.993  20.933  -0.835  0.00  0.00    +0.000 C 
ATOM     15  C   UNL     1      22.003  19.557  -0.435  0.00  0.00    +0.000 C 
ATOM     16  O   UNL     1      21.649  18.661  -1.184  0.00  0.00    +0.000 OA
ATOM     17  N   UNL     1      22.507  19.368   0.849  0.00  0.00    +0.000 N 
ATOM     18  C   UNL     1      23.150  20.292   1.686  0.00  0.00    +0.000 C 
ATOM     19  H   UNL     1      22.651  18.402   1.103  0.00  0.00    +0.000 HD
ATOM     20  O   UNL     1      23.908  19.896   2.567  0.00  0.00    +0.000 OA
ENDBRANCH   3  12
TORSDOF 1
ENDMDL
MODEL 7
REMARK VINA RESULT:      -6.1     27.267     28.719
REMARK  Name = Thalidomide.pdbqt.pdb
REMARK  1 active torsions:
REMARK  status: ('A' for Active; 'I' for Inactive)
REMARK    1  A    between atoms: N_3  and  C_12
REMARK                            x       y       z     vdW  Elec       q    Type
REMARK                         _______ _______ _______ _____ _____    ______ ____
ROOT
ATOM      1  O   UNL     1      21.266  19.884  32.407  0.00  0.00    +0.000 OA
ATOM      2  O   UNL     1      21.762  16.124  29.802  0.00  0.00    +0.000 OA
ATOM      3  N   UNL     1      22.016  18.093  31.072  0.00  0.00    +0.000 N 
ATOM      4  C   UNL     1      21.174  18.770  31.925  0.00  0.00    +0.000 C 
ATOM      5  C   UNL     1      21.463  16.886  30.702  0.00  0.00    +0.000 C 
ATOM      6  C   UNL     1      20.059  17.876  32.217  0.00  0.00    +0.000 A 
ATOM      7  C   UNL     1      20.246  16.721  31.487  0.00  0.00    +0.000 A 
ATOM      8  C   UNL     1      18.963  18.061  33.033  0.00  0.00    +0.000 A 
ATOM      9  C   UNL     1      19.342  15.680  31.514  0.00  0.00    +0.000 A 
ATOM     10  C   UNL     1      18.041  17.015  33.090  0.00  0.00    +0.000 A 
ATOM     11  C   UNL     1      18.227  15.840  32.340  0.00  0.00    +0.000 A 
ENDROOT
BRANCH   3  12
ATOM     12  C   UNL     1      23.183  18.601  30.558  0.00  0.00    +0.000 C 
ATOM     13  C   UNL     1      24.461  18.113  30.910  0.00  0.00    +0.000 C 
ATOM     14  C   UNL     1      25.722  18.789  30.467  0.00  0.00    +0.000 C 
ATOM     15  C   UNL     1      25.713  19.941  29.615  0.00  0.00    +0.000 C 
ATOM     16  O   UNL     1      26.741  20.445  29.193  0.00  0.00    +0.000 OA
ATOM     17  N   UNL     1      24.427  20.366  29.289  0.00  0.00    +0.000 N 
ATOM     18  C   UNL     1      23.203  19.723  29.524  0.00  0.00    +0.000 C 
ATOM     19  H   UNL     1      24.392  21.087  28.584  0.00  0.00    +0.000 HD
ATOM     20  O   UNL     1      22.231  19.980  28.819  0.00  0.00    +0.000 OA
ENDBRANCH   3  12
TORSDOF 1
ENDMDL
MODEL 8
REMARK VINA RESULT:      -6.1     14.777     16.945
REMARK  Name = Thalidomide.pdbqt.pdb
REMARK  1 active torsions:
REMARK  status: ('A' for Active; 'I' for Inactive)
REMARK    1  A    between atoms: N_3  and  C_12
REMARK                            x       y       z     vdW  Elec       q    Type
REMARK                         _______ _______ _______ _____ _____    ______ ____
ROOT
ATOM      1  O   UNL     1      31.026  12.033  -7.172  0.00  0.00    +0.000 OA
ATOM      2  O   UNL     1      29.541   7.752  -6.374  0.00  0.00    +0.000 OA
ATOM      3  N   UNL     1      30.743   9.769  -6.586  0.00  0.00    +0.000 N 
ATOM      4  C   UNL     1      30.360  11.058  -6.876  0.00  0.00    +0.000 C 
ATOM      5  C   UNL     1      29.638   8.964  -6.404  0.00  0.00    +0.000 C 
ATOM      6  C   UNL     1      28.908  11.108  -6.749  0.00  0.00    +0.000 A 
ATOM      7  C   UNL     1      28.471   9.837  -6.442  0.00  0.00    +0.000 A 
ATOM      8  C   UNL     1      28.038  12.167  -6.908  0.00  0.00    +0.000 A 
ATOM      9  C   UNL     1      27.134   9.536  -6.287  0.00  0.00    +0.000 A 
ATOM     10  C   UNL     1      26.680  11.891  -6.741  0.00  0.00    +0.000 A 
ATOM     11  C   UNL     1      26.233  10.594  -6.435  0.00  0.00    +0.000 A 
ENDROOT
BRANCH   3  12
ATOM     12  C   UNL     1      32.038   9.314  -6.603  0.00  0.00    +0.000 C 
ATOM     13  C   UNL     1      32.789   9.073  -5.431  0.00  0.00    +0.000 C 
ATOM     14  C   UNL     1      34.248   8.739  -5.474  0.00  0.00    +0.000 C 
ATOM     15  C   UNL     1      34.962   8.590  -6.707  0.00  0.00    +0.000 C 
ATOM     16  O   UNL     1      36.131   8.244  -6.743  0.00  0.00    +0.000 OA
ATOM     17  N   UNL     1      34.167   8.824  -7.827  0.00  0.00    +0.000 N 
ATOM     18  C   UNL     1      32.777   8.992  -7.898  0.00  0.00    +0.000 C 
ATOM     19  H   UNL     1      34.607   8.594  -8.706  0.00  0.00    +0.000 HD
ATOM     20  O   UNL     1      32.184   8.752  -8.946  0.00  0.00    +0.000 OA
ENDBRANCH   3  12
TORSDOF 1
ENDMDL
MODEL 9
REMARK VINA RESULT:      -6.0     27.649     28.709
REMARK  Name = Thalidomide.pdbqt.pdb
REMARK  1 active torsions:
REMARK  status: ('A' for Active; 'I' for Inactive)
REMARK    1  A    between atoms: N_3  and  C_12
REMARK                            x       y       z     vdW  Elec       q    Type
REMARK                         _______ _______ _______ _____ _____    ______ ____
ROOT
ATOM      1  O   UNL     1      20.006  19.695  32.234  0.00  0.00    +0.000 OA
ATOM      2  O   UNL     1      23.218  19.882  28.946  0.00  0.00    +0.000 OA
ATOM      3  N   UNL     1      21.721  20.269  30.724  0.00  0.00    +0.000 N 
ATOM      4  C   UNL     1      20.909  19.437  31.461  0.00  0.00    +0.000 C 
ATOM      5  C   UNL     1      22.547  19.536  29.900  0.00  0.00    +0.000 C 
ATOM      6  C   UNL     1      21.334  18.071  31.176  0.00  0.00    +0.000 A 
ATOM      7  C   UNL     1      22.345  18.133  30.240  0.00  0.00    +0.000 A 
ATOM      8  C   UNL     1      20.865  16.873  31.674  0.00  0.00    +0.000 A 
ATOM      9  C   UNL     1      22.944  17.001  29.729  0.00  0.00    +0.000 A 
ATOM     10  C   UNL     1      21.467  15.712  31.184  0.00  0.00    +0.000 A 
ATOM     11  C   UNL     1      22.493  15.775  30.224  0.00  0.00    +0.000 A 
ENDROOT
BRANCH   3  12
ATOM     12  C   UNL     1      21.632  21.639  30.713  0.00  0.00    +0.000 C 
ATOM     13  C   UNL     1      20.559  22.340  30.120  0.00  0.00    +0.000 C 
ATOM     14  C   UNL     1      20.565  23.830  29.974  0.00  0.00    +0.000 C 
ATOM     15  C   UNL     1      21.634  24.644  30.472  0.00  0.00    +0.000 C 
ATOM     16  O   UNL     1      21.601  25.862  30.420  0.00  0.00    +0.000 OA
ATOM     17  N   UNL     1      22.653  23.899  31.060  0.00  0.00    +0.000 N 
ATOM     18  C   UNL     1      22.674  22.533  31.378  0.00  0.00    +0.000 C 
ATOM     19  H   UNL     1      23.350  24.451  31.539  0.00  0.00    +0.000 HD
ATOM     20  O   UNL     1      23.423  22.121  32.259  0.00  0.00    +0.000 OA
ENDBRANCH   3  12
TORSDOF 1
ENDMDL
