MODEL 1
REMARK VINA RESULT:      -7.1      0.000      0.000
REMARK  Name = Thapsigargin.pdbqt.pdb
REMARK  10 active torsions:
REMARK  status: ('A' for Active; 'I' for Inactive)
REMARK    1  A    between atoms: O_2  and  C_24
REMARK    2  A    between atoms: C_17  and  O_43
REMARK    3  A    between atoms: C_19  and  C_24
REMARK    4  A    between atoms: C_19  and  O_47
REMARK    5  A    between atoms: C_27  and  C_35
REMARK    6  A    between atoms: C_35  and  C_36
REMARK    7  A    between atoms: C_37  and  C_38
REMARK    8  A    between atoms: C_39  and  C_40
REMARK    9  A    between atoms: C_42  and  O_43
REMARK   10  A    between atoms: C_42  and  C_44
REMARK                            x       y       z     vdW  Elec       q    Type
REMARK                         _______ _______ _______ _____ _____    ______ ____
ROOT
ATOM      1  O   UNL     1      43.271  -0.737  13.939  0.00  0.00    +0.000 OA
ATOM      2  O   UNL     1      48.332  -3.982  13.190  0.00  0.00    +0.000 OA
ATOM      3  O   UNL     1      47.205  -4.127  10.898  0.00  0.00    +0.000 OA
ATOM      4  O   UNL     1      44.475  -5.828  13.560  0.00  0.00    +0.000 OA
ATOM      5  O   UNL     1      42.151   1.255  13.976  0.00  0.00    +0.000 OA
ATOM      6  O   UNL     1      48.036  -2.915  11.007  0.00  0.00    +0.000 OA
ATOM      7  O   UNL     1      47.481  -6.468  10.237  0.00  0.00    +0.000 OA
ATOM      8  O   UNL     1      42.401  -4.757  12.693  0.00  0.00    +0.000 OA
ATOM      9  C   UNL     1      46.400  -3.024  14.531  0.00  0.00    +0.000 C 
ATOM     10  C   UNL     1      45.413   0.065  14.345  0.00  0.00    +0.000 C 
ATOM     11  C   UNL     1      44.593  -1.096  14.171  0.00  0.00    +0.000 C 
ATOM     12  C   UNL     1      47.637  -2.241  14.814  0.00  0.00    +0.000 C 
ATOM     13  C   UNL     1      45.010  -2.377  14.263  0.00  0.00    +0.000 C 
ATOM     14  C   UNL     1      46.645  -0.112  14.695  0.00  0.00    +0.000 C 
ATOM     15  C   UNL     1      47.759  -0.916  15.018  0.00  0.00    +0.000 C 
ATOM     16  C   UNL     1      46.102  -4.418  14.772  0.00  0.00    +0.000 C 
ATOM     17  C   UNL     1      44.588   1.277  14.197  0.00  0.00    +0.000 C 
ATOM     18  C   UNL     1      44.798  -4.693  14.312  0.00  0.00    +0.000 C 
ATOM     19  C   UNL     1      44.119  -3.537  14.151  0.00  0.00    +0.000 C 
ATOM     20  C   UNL     1      47.460  -2.876  13.495  0.00  0.00    +0.000 C 
ATOM     21  C   UNL     1      43.210   0.635  14.016  0.00  0.00    +0.000 C 
ATOM     22  C   UNL     1      42.969  -3.779  13.389  0.00  0.00    +0.000 C 
ATOM     23  C   UNL     1      48.478  -2.802  12.387  0.00  0.00    +0.000 C 
ATOM     24  C   UNL     1      47.946  -5.162  10.318  0.00  0.00    +0.000 C 
ATOM     25  C   UNL     1      43.482  -5.672  12.524  0.00  0.00    +0.000 C 
ATOM     26  C   UNL     1      49.850  -2.134  12.546  0.00  0.00    +0.000 C 
ATOM     27  C   UNL     1      43.723  -6.194  11.303  0.00  0.00    +0.000 C 
ATOM     28  C   UNL     1      42.745  -6.029  10.161  0.00  0.00    +0.000 C 
ATOM     29  C   UNL     1      45.048  -6.560  10.931  0.00  0.00    +0.000 C 
ATOM     30  C   UNL     1      46.204  -6.575  10.603  0.00  0.00    +0.000 C 
ENDROOT
BRANCH  17  31
ATOM     31  O   UNL     1      44.673   2.089  15.356  0.00  0.00    +0.000 OA
ATOM     32  H   UNL     1      43.910   1.836  15.909  0.00  0.00    +0.000 HD
ENDBRANCH  17  31
BRANCH  17  33
ATOM     33  C   UNL     1      45.004   2.052  13.015  0.00  0.00    +0.000 C 
BRANCH  33  34
ATOM     34  O   UNL     1      45.385   2.772  11.961  0.00  0.00    +0.000 OA
ATOM     35  H   UNL     1      45.787   2.206  11.275  0.00  0.00    +0.000 HD
ENDBRANCH  33  34
ENDBRANCH  17  33
BRANCH  24  36
ATOM     36  C   UNL     1      49.193  -5.001   9.988  0.00  0.00    +0.000 C 
BRANCH  36  37
ATOM     37  C   UNL     1      50.659  -4.762   9.612  0.00  0.00    +0.000 C 
ATOM     38  C   UNL     1      51.797  -4.548   9.295  0.00  0.00    +0.000 C 
BRANCH  38  39
ATOM     39  C   UNL     1      53.240  -4.253   8.876  0.00  0.00    +0.000 C 
ATOM     40  C   UNL     1      54.369  -4.027   8.533  0.00  0.00    +0.000 C 
BRANCH  40  41
ATOM     41  C   UNL     1      55.805  -3.739   8.089  0.00  0.00    +0.000 C 
ATOM     42  C   UNL     1      57.056  -3.486   7.703  0.00  0.00    +0.000 C 
ENDBRANCH  40  41
ENDBRANCH  38  39
ENDBRANCH  36  37
ENDBRANCH  24  36
BRANCH  15  43
ATOM     43  O   UNL     1      48.818  -0.404  15.777  0.00  0.00    +0.000 OA
BRANCH  43  45
ATOM     44  O   UNL     1      48.729   1.856  16.335  0.00  0.00    +0.000 OA
ATOM     45  C   UNL     1      49.041   0.933  15.595  0.00  0.00    +0.000 C 
BRANCH  45  46
ATOM     46  C   UNL     1      49.720   1.192  14.362  0.00  0.00    +0.000 C 
ATOM     47  C   UNL     1      50.289   1.415  13.333  0.00  0.00    +0.000 C 
ATOM     48  C   UNL     1      51.010   1.687  12.011  0.00  0.00    +0.000 C 
ENDBRANCH  45  46
ENDBRANCH  43  45
ENDBRANCH  15  43
TORSDOF 10
ENDMDL
MODEL 2
REMARK VINA RESULT:      -7.0     35.029     38.492
REMARK  Name = Thapsigargin.pdbqt.pdb
REMARK  10 active torsions:
REMARK  status: ('A' for Active; 'I' for Inactive)
REMARK    1  A    between atoms: O_2  and  C_24
REMARK    2  A    between atoms: C_17  and  O_43
REMARK    3  A    between atoms: C_19  and  C_24
REMARK    4  A    between atoms: C_19  and  O_47
REMARK    5  A    between atoms: C_27  and  C_35
REMARK    6  A    between atoms: C_35  and  C_36
REMARK    7  A    between atoms: C_37  and  C_38
REMARK    8  A    between atoms: C_39  and  C_40
REMARK    9  A    between atoms: C_42  and  O_43
REMARK   10  A    between atoms: C_42  and  C_44
REMARK                            x       y       z     vdW  Elec       q    Type
REMARK                         _______ _______ _______ _____ _____    ______ ____
ROOT
ATOM      1  O   UNL     1      23.389  21.214  -2.791  0.00  0.00    +0.000 OA
ATOM      2  O   UNL     1      24.332  24.238   2.373  0.00  0.00    +0.000 OA
ATOM      3  O   UNL     1      23.460  26.049   0.791  0.00  0.00    +0.000 OA
ATOM      4  O   UNL     1      26.950  24.627  -1.007  0.00  0.00    +0.000 OA
ATOM      5  O   UNL     1      22.092  19.901  -4.140  0.00  0.00    +0.000 OA
ATOM      6  O   UNL     1      22.350  25.337   1.447  0.00  0.00    +0.000 OA
ATOM      7  O   UNL     1      24.897  27.981   1.234  0.00  0.00    +0.000 OA
ATOM      8  O   UNL     1      26.122  24.482  -3.351  0.00  0.00    +0.000 OA
ATOM      9  C   UNL     1      24.778  22.401   0.678  0.00  0.00    +0.000 C 
ATOM     10  C   UNL     1      22.450  20.638  -0.746  0.00  0.00    +0.000 C 
ATOM     11  C   UNL     1      23.481  21.374  -1.414  0.00  0.00    +0.000 C 
ATOM     12  C   UNL     1      24.008  21.841   1.825  0.00  0.00    +0.000 C 
ATOM     13  C   UNL     1      24.453  22.094  -0.813  0.00  0.00    +0.000 C 
ATOM     14  C   UNL     1      22.485  20.587   0.546  0.00  0.00    +0.000 C 
ATOM     15  C   UNL     1      23.032  20.913   1.805  0.00  0.00    +0.000 C 
ATOM     16  C   UNL     1      26.096  22.994   0.638  0.00  0.00    +0.000 C 
ATOM     17  C   UNL     1      21.603  19.961  -1.744  0.00  0.00    +0.000 C 
ATOM     18  C   UNL     1      26.380  23.391  -0.684  0.00  0.00    +0.000 C 
ATOM     19  C   UNL     1      25.534  22.773  -1.536  0.00  0.00    +0.000 C 
ATOM     20  C   UNL     1      23.830  23.255   1.447  0.00  0.00    +0.000 C 
ATOM     21  C   UNL     1      22.351  20.342  -3.024  0.00  0.00    +0.000 C 
ATOM     22  C   UNL     1      25.587  23.408  -2.783  0.00  0.00    +0.000 C 
ATOM     23  C   UNL     1      22.913  24.207   2.169  0.00  0.00    +0.000 C 
ATOM     24  C   UNL     1      23.786  27.199   1.519  0.00  0.00    +0.000 C 
ATOM     25  C   UNL     1      26.496  25.267  -2.219  0.00  0.00    +0.000 C 
ATOM     26  C   UNL     1      22.133  23.828   3.435  0.00  0.00    +0.000 C 
ATOM     27  C   UNL     1      26.181  26.578  -2.189  0.00  0.00    +0.000 C 
ATOM     28  C   UNL     1      25.658  27.298  -3.412  0.00  0.00    +0.000 C 
ATOM     29  C   UNL     1      25.946  27.227  -0.944  0.00  0.00    +0.000 C 
ATOM     30  C   UNL     1      25.495  27.619   0.100  0.00  0.00    +0.000 C 
ENDROOT
BRANCH  17  31
ATOM     31  O   UNL     1      21.573  18.563  -1.514  0.00  0.00    +0.000 OA
ATOM     32  H   UNL     1      20.732  18.392  -1.049  0.00  0.00    +0.000 HD
ENDBRANCH  17  31
BRANCH  17  33
ATOM     33  C   UNL     1      20.231  20.500  -1.716  0.00  0.00    +0.000 C 
BRANCH  33  34
ATOM     34  O   UNL     1      18.983  20.965  -1.697  0.00  0.00    +0.000 OA
ATOM     35  H   UNL     1      18.338  20.237  -1.613  0.00  0.00    +0.000 HD
ENDBRANCH  33  34
ENDBRANCH  17  33
BRANCH  24  36
ATOM     36  C   UNL     1      23.171  27.497   2.625  0.00  0.00    +0.000 C 
BRANCH  36  37
ATOM     37  C   UNL     1      22.463  27.898   3.923  0.00  0.00    +0.000 C 
ATOM     38  C   UNL     1      21.884  28.232   4.920  0.00  0.00    +0.000 C 
BRANCH  38  39
ATOM     39  C   UNL     1      21.128  28.671   6.178  0.00  0.00    +0.000 C 
ATOM     40  C   UNL     1      20.523  29.016   7.155  0.00  0.00    +0.000 C 
BRANCH  40  41
ATOM     41  C   UNL     1      19.743  29.454   8.399  0.00  0.00    +0.000 C 
ATOM     42  C   UNL     1      19.067  29.834   9.482  0.00  0.00    +0.000 C 
ENDBRANCH  40  41
ENDBRANCH  38  39
ENDBRANCH  36  37
ENDBRANCH  24  36
BRANCH  15  43
ATOM     43  O   UNL     1      22.784  20.112   2.925  0.00  0.00    +0.000 OA
BRANCH  43  45
ATOM     44  O   UNL     1      21.660  18.190   2.242  0.00  0.00    +0.000 OA
ATOM     45  C   UNL     1      21.705  19.282   2.791  0.00  0.00    +0.000 C 
BRANCH  45  46
ATOM     46  C   UNL     1      20.531  19.841   3.387  0.00  0.00    +0.000 C 
ATOM     47  C   UNL     1      19.552  20.313   3.889  0.00  0.00    +0.000 C 
ATOM     48  C   UNL     1      18.293  20.904   4.527  0.00  0.00    +0.000 C 
ENDBRANCH  45  46
ENDBRANCH  43  45
ENDBRANCH  15  43
TORSDOF 10
ENDMDL
MODEL 3
REMARK VINA RESULT:      -6.9      3.425      7.141
REMARK  Name = Thapsigargin.pdbqt.pdb
REMARK  10 active torsions:
REMARK  status: ('A' for Active; 'I' for Inactive)
REMARK    1  A    between atoms: O_2  and  C_24
REMARK    2  A    between atoms: C_17  and  O_43
REMARK    3  A    between atoms: C_19  and  C_24
REMARK    4  A    between atoms: C_19  and  O_47
REMARK    5  A    between atoms: C_27  and  C_35
REMARK    6  A    between atoms: C_35  and  C_36
REMARK    7  A    between atoms: C_37  and  C_38
REMARK    8  A    between atoms: C_39  and  C_40
REMARK    9  A    between atoms: C_42  and  O_43
REMARK   10  A    between atoms: C_42  and  C_44
REMARK                            x       y       z     vdW  Elec       q    Type
REMARK                         _______ _______ _______ _____ _____    ______ ____
ROOT
ATOM      1  O   UNL     1      45.284   0.288  11.728  0.00  0.00    +0.000 OA
ATOM      2  O   UNL     1      49.127  -4.127  10.166  0.00  0.00    +0.000 OA
ATOM      3  O   UNL     1      50.265  -3.056  12.191  0.00  0.00    +0.000 OA
ATOM      4  O   UNL     1      49.961   0.008   9.371  0.00  0.00    +0.000 OA
ATOM      5  O   UNL     1      43.419   1.032  12.820  0.00  0.00    +0.000 OA
ATOM      6  O   UNL     1      49.299  -4.088  12.607  0.00  0.00    +0.000 OA
ATOM      7  O   UNL     1      52.627  -2.925  11.558  0.00  0.00    +0.000 OA
ATOM      8  O   UNL     1      49.206   1.831  10.891  0.00  0.00    +0.000 OA
ATOM      9  C   UNL     1      47.358  -2.361   9.716  0.00  0.00    +0.000 C 
ATOM     10  C   UNL     1      44.697  -1.951  11.533  0.00  0.00    +0.000 C 
ATOM     11  C   UNL     1      45.654  -0.941  11.196  0.00  0.00    +0.000 C 
ATOM     12  C   UNL     1      46.723  -3.711   9.721  0.00  0.00    +0.000 C 
ATOM     13  C   UNL     1      46.752  -1.119  10.429  0.00  0.00    +0.000 C 
ATOM     14  C   UNL     1      44.841  -3.121  11.001  0.00  0.00    +0.000 C 
ATOM     15  C   UNL     1      45.513  -4.064  10.194  0.00  0.00    +0.000 C 
ATOM     16  C   UNL     1      48.374  -1.811   8.847  0.00  0.00    +0.000 C 
ATOM     17  C   UNL     1      43.629  -1.361  12.360  0.00  0.00    +0.000 C 
ATOM     18  C   UNL     1      48.660  -0.493   9.256  0.00  0.00    +0.000 C 
ATOM     19  C   UNL     1      47.668  -0.037  10.049  0.00  0.00    +0.000 C 
ATOM     20  C   UNL     1      47.911  -3.460  10.557  0.00  0.00    +0.000 C 
ATOM     21  C   UNL     1      44.073   0.104  12.354  0.00  0.00    +0.000 C 
ATOM     22  C   UNL     1      48.100   1.116  10.715  0.00  0.00    +0.000 C 
ATOM     23  C   UNL     1      48.559  -4.505  11.427  0.00  0.00    +0.000 C 
ATOM     24  C   UNL     1      51.543  -3.616  12.087  0.00  0.00    +0.000 C 
ATOM     25  C   UNL     1      50.221   0.928  10.454  0.00  0.00    +0.000 C 
ATOM     26  C   UNL     1      48.103  -5.970  11.466  0.00  0.00    +0.000 C 
ATOM     27  C   UNL     1      51.321   0.750  11.214  0.00  0.00    +0.000 C 
ATOM     28  C   UNL     1      51.629   1.651  12.390  0.00  0.00    +0.000 C 
ATOM     29  C   UNL     1      52.008  -0.497  11.197  0.00  0.00    +0.000 C 
ATOM     30  C   UNL     1      52.350  -1.641  11.338  0.00  0.00    +0.000 C 
ENDROOT
BRANCH  17  31
ATOM     31  O   UNL     1      42.360  -1.559  11.761  0.00  0.00    +0.000 OA
ATOM     32  H   UNL     1      41.725  -1.088  12.333  0.00  0.00    +0.000 HD
ENDBRANCH  17  31
BRANCH  17  33
ATOM     33  C   UNL     1      43.636  -1.943  13.714  0.00  0.00    +0.000 C 
BRANCH  33  34
ATOM     34  O   UNL     1      43.665  -2.479  14.934  0.00  0.00    +0.000 OA
ATOM     35  H   UNL     1      43.740  -1.788  15.619  0.00  0.00    +0.000 HD
ENDBRANCH  33  34
ENDBRANCH  17  33
BRANCH  24  36
ATOM     36  C   UNL     1      51.751  -4.879  12.307  0.00  0.00    +0.000 C 
BRANCH  36  37
ATOM     37  C   UNL     1      51.945  -6.377  12.563  0.00  0.00    +0.000 C 
ATOM     38  C   UNL     1      52.061  -7.556  12.760  0.00  0.00    +0.000 C 
BRANCH  38  39
ATOM     39  C   UNL     1      52.182  -9.063  13.005  0.00  0.00    +0.000 C 
ATOM     40  C   UNL     1      52.270 -10.247  13.186  0.00  0.00    +0.000 C 
BRANCH  40  41
ATOM     41  C   UNL     1      52.378 -11.758  13.408  0.00  0.00    +0.000 C 
ATOM     42  C   UNL     1      52.475 -13.073  13.600  0.00  0.00    +0.000 C 
ENDBRANCH  40  41
ENDBRANCH  38  39
ENDBRANCH  36  37
ENDBRANCH  24  36
BRANCH  15  43
ATOM     43  O   UNL     1      44.839  -5.175   9.675  0.00  0.00    +0.000 OA
BRANCH  43  45
ATOM     44  O   UNL     1      44.608  -6.462  11.603  0.00  0.00    +0.000 OA
ATOM     45  C   UNL     1      44.952  -6.304  10.440  0.00  0.00    +0.000 C 
BRANCH  45  46
ATOM     46  C   UNL     1      45.563  -7.375   9.714  0.00  0.00    +0.000 C 
ATOM     47  C   UNL     1      46.068  -8.275   9.107  0.00  0.00    +0.000 C 
ATOM     48  C   UNL     1      46.728  -9.418   8.333  0.00  0.00    +0.000 C 
ENDBRANCH  45  46
ENDBRANCH  43  45
ENDBRANCH  15  43
TORSDOF 10
ENDMDL
MODEL 4
REMARK VINA RESULT:      -6.7      3.340      8.191
REMARK  Name = Thapsigargin.pdbqt.pdb
REMARK  10 active torsions:
REMARK  status: ('A' for Active; 'I' for Inactive)
REMARK    1  A    between atoms: O_2  and  C_24
REMARK    2  A    between atoms: C_17  and  O_43
REMARK    3  A    between atoms: C_19  and  C_24
REMARK    4  A    between atoms: C_19  and  O_47
REMARK    5  A    between atoms: C_27  and  C_35
REMARK    6  A    between atoms: C_35  and  C_36
REMARK    7  A    between atoms: C_37  and  C_38
REMARK    8  A    between atoms: C_39  and  C_40
REMARK    9  A    between atoms: C_42  and  O_43
REMARK   10  A    between atoms: C_42  and  C_44
REMARK                            x       y       z     vdW  Elec       q    Type
REMARK                         _______ _______ _______ _____ _____    ______ ____
ROOT
ATOM      1  O   UNL     1      48.997  -4.871  10.570  0.00  0.00    +0.000 OA
ATOM      2  O   UNL     1      45.142  -0.257  11.311  0.00  0.00    +0.000 OA
ATOM      3  O   UNL     1      45.424  -1.165  13.685  0.00  0.00    +0.000 OA
ATOM      4  O   UNL     1      43.859  -4.349  11.485  0.00  0.00    +0.000 OA
ATOM      5  O   UNL     1      51.117  -5.703  10.374  0.00  0.00    +0.000 OA
ATOM      6  O   UNL     1      46.479  -0.190  13.360  0.00  0.00    +0.000 OA
ATOM      7  O   UNL     1      43.156  -1.152  14.610  0.00  0.00    +0.000 OA
ATOM      8  O   UNL     1      45.317  -6.162  12.375  0.00  0.00    +0.000 OA
ATOM      9  C   UNL     1      46.219  -2.160  10.019  0.00  0.00    +0.000 C 
ATOM     10  C   UNL     1      49.422  -2.688   9.897  0.00  0.00    +0.000 C 
ATOM     11  C   UNL     1      48.422  -3.640  10.279  0.00  0.00    +0.000 C 
ATOM     12  C   UNL     1      46.773  -0.861   9.542  0.00  0.00    +0.000 C 
ATOM     13  C   UNL     1      47.091  -3.414  10.315  0.00  0.00    +0.000 C 
ATOM     14  C   UNL     1      49.025  -1.533   9.474  0.00  0.00    +0.000 C 
ATOM     15  C   UNL     1      48.034  -0.577   9.165  0.00  0.00    +0.000 C 
ATOM     16  C   UNL     1      44.867  -2.670   9.980  0.00  0.00    +0.000 C 
ATOM     17  C   UNL     1      50.752  -3.321   9.957  0.00  0.00    +0.000 C 
ATOM     18  C   UNL     1      44.842  -3.948  10.574  0.00  0.00    +0.000 C 
ATOM     19  C   UNL     1      46.096  -4.442  10.643  0.00  0.00    +0.000 C 
ATOM     20  C   UNL     1      46.324  -0.993  10.941  0.00  0.00    +0.000 C 
ATOM     21  C   UNL     1      50.346  -4.749  10.327  0.00  0.00    +0.000 C 
ATOM     22  C   UNL     1      46.116  -5.535  11.518  0.00  0.00    +0.000 C 
ATOM     23  C   UNL     1      46.369   0.128  11.945  0.00  0.00    +0.000 C 
ATOM     24  C   UNL     1      44.362  -0.520  14.329  0.00  0.00    +0.000 C 
ATOM     25  C   UNL     1      44.276  -5.206  12.570  0.00  0.00    +0.000 C 
ATOM     26  C   UNL     1      46.804   1.557  11.594  0.00  0.00    +0.000 C 
ATOM     27  C   UNL     1      43.865  -4.921  13.824  0.00  0.00    +0.000 C 
ATOM     28  C   UNL     1      44.301  -5.751  15.011  0.00  0.00    +0.000 C 
ATOM     29  C   UNL     1      43.350  -3.630  14.130  0.00  0.00    +0.000 C 
ATOM     30  C   UNL     1      43.201  -2.460  14.364  0.00  0.00    +0.000 C 
ENDROOT
BRANCH  17  31
ATOM     31  O   UNL     1      51.407  -3.238   8.703  0.00  0.00    +0.000 OA
ATOM     32  H   UNL     1      50.805  -3.665   8.065  0.00  0.00    +0.000 HD
ENDBRANCH  17  31
BRANCH  17  33
ATOM     33  C   UNL     1      51.584  -2.688  10.996  0.00  0.00    +0.000 C 
BRANCH  33  34
ATOM     34  O   UNL     1      52.353  -2.134  11.932  0.00  0.00    +0.000 OA
ATOM     35  H   UNL     1      52.716  -2.810  12.534  0.00  0.00    +0.000 HD
ENDBRANCH  33  34
ENDBRANCH  17  33
BRANCH  24  36
ATOM     36  C   UNL     1      44.372   0.763  14.535  0.00  0.00    +0.000 C 
BRANCH  36  37
ATOM     37  C   UNL     1      44.368   2.267  14.826  0.00  0.00    +0.000 C 
ATOM     38  C   UNL     1      44.356   3.438  15.088  0.00  0.00    +0.000 C 
BRANCH  38  39
ATOM     39  C   UNL     1      44.337   4.927  15.449  0.00  0.00    +0.000 C 
ATOM     40  C   UNL     1      44.310   6.091  15.741  0.00  0.00    +0.000 C 
BRANCH  40  41
ATOM     41  C   UNL     1      44.271   7.575  16.120  0.00  0.00    +0.000 C 
ATOM     42  C   UNL     1      44.239   8.866  16.448  0.00  0.00    +0.000 C 
ENDBRANCH  40  41
ENDBRANCH  38  39
ENDBRANCH  36  37
ENDBRANCH  24  36
BRANCH  15  43
ATOM     43  O   UNL     1      48.294   0.463   8.266  0.00  0.00    +0.000 OA
BRANCH  43  45
ATOM     44  O   UNL     1      49.559   1.664   9.810  0.00  0.00    +0.000 OA
ATOM     45  C   UNL     1      49.283   1.317   8.670  0.00  0.00    +0.000 C 
BRANCH  45  46
ATOM     46  C   UNL     1      50.031   1.822   7.559  0.00  0.00    +0.000 C 
ATOM     47  C   UNL     1      50.662   2.246   6.634  0.00  0.00    +0.000 C 
ATOM     48  C   UNL     1      51.456   2.789   5.444  0.00  0.00    +0.000 C 
ENDBRANCH  45  46
ENDBRANCH  43  45
ENDBRANCH  15  43
TORSDOF 10
ENDMDL
MODEL 5
REMARK VINA RESULT:      -6.4     11.283     15.350
REMARK  Name = Thapsigargin.pdbqt.pdb
REMARK  10 active torsions:
REMARK  status: ('A' for Active; 'I' for Inactive)
REMARK    1  A    between atoms: O_2  and  C_24
REMARK    2  A    between atoms: C_17  and  O_43
REMARK    3  A    between atoms: C_19  and  C_24
REMARK    4  A    between atoms: C_19  and  O_47
REMARK    5  A    between atoms: C_27  and  C_35
REMARK    6  A    between atoms: C_35  and  C_36
REMARK    7  A    between atoms: C_37  and  C_38
REMARK    8  A    between atoms: C_39  and  C_40
REMARK    9  A    between atoms: C_42  and  O_43
REMARK   10  A    between atoms: C_42  and  C_44
REMARK                            x       y       z     vdW  Elec       q    Type
REMARK                         _______ _______ _______ _____ _____    ______ ____
ROOT
ATOM      1  O   UNL     1      42.188  13.014  18.132  0.00  0.00    +0.000 OA
ATOM      2  O   UNL     1      42.104   6.957  18.206  0.00  0.00    +0.000 OA
ATOM      3  O   UNL     1      44.408   7.517  19.165  0.00  0.00    +0.000 OA
ATOM      4  O   UNL     1      44.398   9.170  15.331  0.00  0.00    +0.000 OA
ATOM      5  O   UNL     1      41.691  15.040  19.068  0.00  0.00    +0.000 OA
ATOM      6  O   UNL     1      43.380   7.513  20.220  0.00  0.00    +0.000 OA
ATOM      7  O   UNL     1      45.916   5.917  18.087  0.00  0.00    +0.000 OA
ATOM      8  O   UNL     1      45.448  11.362  15.873  0.00  0.00    +0.000 OA
ATOM      9  C   UNL     1      41.469   9.248  17.313  0.00  0.00    +0.000 C 
ATOM     10  C   UNL     1      40.557  11.739  19.187  0.00  0.00    +0.000 C 
ATOM     11  C   UNL     1      41.606  11.755  18.212  0.00  0.00    +0.000 C 
ATOM     12  C   UNL     1      40.337   8.694  18.109  0.00  0.00    +0.000 C 
ATOM     13  C   UNL     1      41.970  10.717  17.428  0.00  0.00    +0.000 C 
ATOM     14  C   UNL     1      39.837  10.670  19.283  0.00  0.00    +0.000 C 
ATOM     15  C   UNL     1      39.491   9.349  18.927  0.00  0.00    +0.000 C 
ATOM     16  C   UNL     1      42.087   8.757  16.102  0.00  0.00    +0.000 C 
ATOM     17  C   UNL     1      40.447  13.069  19.813  0.00  0.00    +0.000 C 
ATOM     18  C   UNL     1      43.140   9.623  15.741  0.00  0.00    +0.000 C 
ATOM     19  C   UNL     1      43.003  10.799  16.390  0.00  0.00    +0.000 C 
ATOM     20  C   UNL     1      41.722   8.324  18.454  0.00  0.00    +0.000 C 
ATOM     21  C   UNL     1      41.496  13.830  18.997  0.00  0.00    +0.000 C 
ATOM     22  C   UNL     1      44.201  11.520  16.299  0.00  0.00    +0.000 C 
ATOM     23  C   UNL     1      42.083   7.384  19.575  0.00  0.00    +0.000 C 
ATOM     24  C   UNL     1      45.023   6.263  19.094  0.00  0.00    +0.000 C 
ATOM     25  C   UNL     1      45.545   9.944  15.743  0.00  0.00    +0.000 C 
ATOM     26  C   UNL     1      41.041   6.640  20.420  0.00  0.00    +0.000 C 
ATOM     27  C   UNL     1      46.618   9.304  16.252  0.00  0.00    +0.000 C 
ATOM     28  C   UNL     1      47.834  10.058  16.743  0.00  0.00    +0.000 C 
ATOM     29  C   UNL     1      46.497   7.962  16.713  0.00  0.00    +0.000 C 
ATOM     30  C   UNL     1      46.248   6.958  17.325  0.00  0.00    +0.000 C 
ENDROOT
BRANCH  17  31
ATOM     31  O   UNL     1      39.139  13.593  19.658  0.00  0.00    +0.000 OA
ATOM     32  H   UNL     1      39.236  14.377  19.086  0.00  0.00    +0.000 HD
ENDBRANCH  17  31
BRANCH  17  33
ATOM     33  C   UNL     1      40.790  13.003  21.244  0.00  0.00    +0.000 C 
BRANCH  33  34
ATOM     34  O   UNL     1      41.094  12.966  22.541  0.00  0.00    +0.000 OA
ATOM     35  H   UNL     1      41.815  12.332  22.715  0.00  0.00    +0.000 HD
ENDBRANCH  33  34
ENDBRANCH  17  33
BRANCH  24  36
ATOM     36  C   UNL     1      44.651   5.281  19.860  0.00  0.00    +0.000 C 
BRANCH  36  37
ATOM     37  C   UNL     1      44.247   4.094  20.740  0.00  0.00    +0.000 C 
ATOM     38  C   UNL     1      43.896   3.178  21.432  0.00  0.00    +0.000 C 
BRANCH  38  39
ATOM     39  C   UNL     1      43.422   2.017  22.313  0.00  0.00    +0.000 C 
ATOM     40  C   UNL     1      43.065   1.102  23.003  0.00  0.00    +0.000 C 
BRANCH  40  41
ATOM     41  C   UNL     1      42.617  -0.066  23.885  0.00  0.00    +0.000 C 
ATOM     42  C   UNL     1      42.225  -1.083  24.652  0.00  0.00    +0.000 C 
ENDBRANCH  40  41
ENDBRANCH  38  39
ENDBRANCH  36  37
ENDBRANCH  24  36
BRANCH  15  43
ATOM     43  O   UNL     1      38.205   8.853  19.171  0.00  0.00    +0.000 OA
BRANCH  43  45
ATOM     44  O   UNL     1      36.731  10.551  18.565  0.00  0.00    +0.000 OA
ATOM     45  C   UNL     1      37.227   9.443  18.418  0.00  0.00    +0.000 C 
BRANCH  45  46
ATOM     46  C   UNL     1      36.786   8.587  17.360  0.00  0.00    +0.000 C 
ATOM     47  C   UNL     1      36.410   7.872  16.477  0.00  0.00    +0.000 C 
ATOM     48  C   UNL     1      35.946   6.953  15.345  0.00  0.00    +0.000 C 
ENDBRANCH  45  46
ENDBRANCH  43  45
ENDBRANCH  15  43
TORSDOF 10
ENDMDL
MODEL 6
REMARK VINA RESULT:      -5.9     40.748     46.241
REMARK  Name = Thapsigargin.pdbqt.pdb
REMARK  10 active torsions:
REMARK  status: ('A' for Active; 'I' for Inactive)
REMARK    1  A    between atoms: O_2  and  C_24
REMARK    2  A    between atoms: C_17  and  O_43
REMARK    3  A    between atoms: C_19  and  C_24
REMARK    4  A    between atoms: C_19  and  O_47
REMARK    5  A    between atoms: C_27  and  C_35
REMARK    6  A    between atoms: C_35  and  C_36
REMARK    7  A    between atoms: C_37  and  C_38
REMARK    8  A    between atoms: C_39  and  C_40
REMARK    9  A    between atoms: C_42  and  O_43
REMARK   10  A    between atoms: C_42  and  C_44
REMARK                            x       y       z     vdW  Elec       q    Type
REMARK                         _______ _______ _______ _____ _____    ______ ____
ROOT
ATOM      1  O   UNL     1      13.043  28.530  23.412  0.00  0.00    +0.000 OA
ATOM      2  O   UNL     1      18.061  31.229  25.470  0.00  0.00    +0.000 OA
ATOM      3  O   UNL     1      17.818  29.203  27.012  0.00  0.00    +0.000 OA
ATOM      4  O   UNL     1      14.333  31.430  27.588  0.00  0.00    +0.000 OA
ATOM      5  O   UNL     1      11.970  27.120  21.967  0.00  0.00    +0.000 OA
ATOM      6  O   UNL     1      18.549  28.851  25.783  0.00  0.00    +0.000 OA
ATOM      7  O   UNL     1      18.323  30.078  29.242  0.00  0.00    +0.000 OA
ATOM      8  O   UNL     1      12.693  29.556  27.570  0.00  0.00    +0.000 OA
ATOM      9  C   UNL     1      15.774  31.175  24.367  0.00  0.00    +0.000 C 
ATOM     10  C   UNL     1      14.898  29.018  22.102  0.00  0.00    +0.000 C 
ATOM     11  C   UNL     1      14.199  29.294  23.321  0.00  0.00    +0.000 C 
ATOM     12  C   UNL     1      16.826  31.316  23.320  0.00  0.00    +0.000 C 
ATOM     13  C   UNL     1      14.565  30.202  24.252  0.00  0.00    +0.000 C 
ATOM     14  C   UNL     1      15.928  29.746  21.818  0.00  0.00    +0.000 C 
ATOM     15  C   UNL     1      16.861  30.769  22.091  0.00  0.00    +0.000 C 
ATOM     16  C   UNL     1      15.418  32.055  25.458  0.00  0.00    +0.000 C 
ATOM     17  C   UNL     1      14.171  27.986  21.341  0.00  0.00    +0.000 C 
ATOM     18  C   UNL     1      14.363  31.473  26.190  0.00  0.00    +0.000 C 
ATOM     19  C   UNL     1      13.778  30.505  25.452  0.00  0.00    +0.000 C 
ATOM     20  C   UNL     1      17.131  30.595  24.570  0.00  0.00    +0.000 C 
ATOM     21  C   UNL     1      12.950  27.805  22.246  0.00  0.00    +0.000 C 
ATOM     22  C   UNL     1      12.972  29.715  26.282  0.00  0.00    +0.000 C 
ATOM     23  C   UNL     1      18.475  29.988  24.880  0.00  0.00    +0.000 C 
ATOM     24  C   UNL     1      18.722  29.545  28.023  0.00  0.00    +0.000 C 
ATOM     25  C   UNL     1      13.769  30.249  28.199  0.00  0.00    +0.000 C 
ATOM     26  C   UNL     1      19.698  30.136  23.966  0.00  0.00    +0.000 C 
ATOM     27  C   UNL     1      14.430  29.662  29.219  0.00  0.00    +0.000 C 
ATOM     28  C   UNL     1      13.918  28.399  29.875  0.00  0.00    +0.000 C 
ATOM     29  C   UNL     1      15.802  29.962  29.449  0.00  0.00    +0.000 C 
ATOM     30  C   UNL     1      17.000  30.051  29.398  0.00  0.00    +0.000 C 
ENDROOT
BRANCH  17  31
ATOM     31  O   UNL     1      13.836  28.457  20.047  0.00  0.00    +0.000 OA
ATOM     32  H   UNL     1      12.931  28.812  20.124  0.00  0.00    +0.000 HD
ENDBRANCH  17  31
BRANCH  17  33
ATOM     33  C   UNL     1      14.974  26.755  21.230  0.00  0.00    +0.000 C 
BRANCH  33  34
ATOM     34  O   UNL     1      15.682  25.632  21.118  0.00  0.00    +0.000 OA
ATOM     35  H   UNL     1      15.142  24.914  20.737  0.00  0.00    +0.000 HD
ENDBRANCH  33  34
ENDBRANCH  17  33
BRANCH  24  36
ATOM     36  C   UNL     1      20.004  29.560  27.809  0.00  0.00    +0.000 C 
BRANCH  36  37
ATOM     37  C   UNL     1      21.510  29.537  27.528  0.00  0.00    +0.000 C 
ATOM     38  C   UNL     1      22.683  29.528  27.273  0.00  0.00    +0.000 C 
BRANCH  38  39
ATOM     39  C   UNL     1      24.174  29.525  26.923  0.00  0.00    +0.000 C 
ATOM     40  C   UNL     1      25.346  29.525  26.662  0.00  0.00    +0.000 C 
BRANCH  40  41
ATOM     41  C   UNL     1      26.843  29.523  26.338  0.00  0.00    +0.000 C 
ATOM     42  C   UNL     1      28.145  29.519  26.055  0.00  0.00    +0.000 C 
ENDBRANCH  40  41
ENDBRANCH  38  39
ENDBRANCH  36  37
ENDBRANCH  24  36
BRANCH  15  43
ATOM     43  O   UNL     1      17.580  31.380  21.057  0.00  0.00    +0.000 OA
BRANCH  43  45
ATOM     44  O   UNL     1      16.833  33.572  20.807  0.00  0.00    +0.000 OA
ATOM     45  C   UNL     1      17.659  32.742  21.160  0.00  0.00    +0.000 C 
BRANCH  45  46
ATOM     46  C   UNL     1      18.891  33.156  21.757  0.00  0.00    +0.000 C 
ATOM     47  C   UNL     1      19.925  33.496  22.256  0.00  0.00    +0.000 C 
ATOM     48  C   UNL     1      21.239  33.944  22.900  0.00  0.00    +0.000 C 
ENDBRANCH  45  46
ENDBRANCH  43  45
ENDBRANCH  15  43
TORSDOF 10
ENDMDL
MODEL 7
REMARK VINA RESULT:      -5.9     10.864     15.847
REMARK  Name = Thapsigargin.pdbqt.pdb
REMARK  10 active torsions:
REMARK  status: ('A' for Active; 'I' for Inactive)
REMARK    1  A    between atoms: O_2  and  C_24
REMARK    2  A    between atoms: C_17  and  O_43
REMARK    3  A    between atoms: C_19  and  C_24
REMARK    4  A    between atoms: C_19  and  O_47
REMARK    5  A    between atoms: C_27  and  C_35
REMARK    6  A    between atoms: C_35  and  C_36
REMARK    7  A    between atoms: C_37  and  C_38
REMARK    8  A    between atoms: C_39  and  C_40
REMARK    9  A    between atoms: C_42  and  O_43
REMARK   10  A    between atoms: C_42  and  C_44
REMARK                            x       y       z     vdW  Elec       q    Type
REMARK                         _______ _______ _______ _____ _____    ______ ____
ROOT
ATOM      1  O   UNL     1      43.516  13.086  18.374  0.00  0.00    +0.000 OA
ATOM      2  O   UNL     1      41.430   7.481  19.340  0.00  0.00    +0.000 OA
ATOM      3  O   UNL     1      43.950   7.127  19.086  0.00  0.00    +0.000 OA
ATOM      4  O   UNL     1      42.720   8.797  15.463  0.00  0.00    +0.000 OA
ATOM      5  O   UNL     1      44.231  15.121  19.134  0.00  0.00    +0.000 OA
ATOM      6  O   UNL     1      43.597   7.464  20.477  0.00  0.00    +0.000 OA
ATOM      7  O   UNL     1      44.141   5.123  17.692  0.00  0.00    +0.000 OA
ATOM      8  O   UNL     1      44.574  10.432  15.164  0.00  0.00    +0.000 OA
ATOM      9  C   UNL     1      41.272   9.875  18.505  0.00  0.00    +0.000 C 
ATOM     10  C   UNL     1      42.240  12.462  20.213  0.00  0.00    +0.000 C 
ATOM     11  C   UNL     1      42.651  12.126  18.882  0.00  0.00    +0.000 C 
ATOM     12  C   UNL     1      40.528   9.748  19.791  0.00  0.00    +0.000 C 
ATOM     13  C   UNL     1      42.232  11.053  18.176  0.00  0.00    +0.000 C 
ATOM     14  C   UNL     1      41.334  11.728  20.769  0.00  0.00    +0.000 C 
ATOM     15  C   UNL     1      40.438  10.638  20.796  0.00  0.00    +0.000 C 
ATOM     16  C   UNL     1      41.048   9.233  17.229  0.00  0.00    +0.000 C 
ATOM     17  C   UNL     1      42.892  13.718  20.625  0.00  0.00    +0.000 C 
ATOM     18  C   UNL     1      42.035   9.665  16.320  0.00  0.00    +0.000 C 
ATOM     19  C   UNL     1      42.623  10.787  16.787  0.00  0.00    +0.000 C 
ATOM     20  C   UNL     1      41.695   8.884  19.534  0.00  0.00    +0.000 C 
ATOM     21  C   UNL     1      43.629  14.069  19.331  0.00  0.00    +0.000 C 
ATOM     22  C   UNL     1      43.805  11.022  16.072  0.00  0.00    +0.000 C 
ATOM     23  C   UNL     1      42.193   7.840  20.500  0.00  0.00    +0.000 C 
ATOM     24  C   UNL     1      43.995   5.737  18.930  0.00  0.00    +0.000 C 
ATOM     25  C   UNL     1      44.112   9.083  15.208  0.00  0.00    +0.000 C 
ATOM     26  C   UNL     1      41.481   7.502  21.816  0.00  0.00    +0.000 C 
ATOM     27  C   UNL     1      45.010   8.078  15.274  0.00  0.00    +0.000 C 
ATOM     28  C   UNL     1      46.488   8.317  15.062  0.00  0.00    +0.000 C 
ATOM     29  C   UNL     1      44.670   6.859  15.927  0.00  0.00    +0.000 C 
ATOM     30  C   UNL     1      44.411   5.996  16.722  0.00  0.00    +0.000 C 
ENDROOT
BRANCH  17  31
ATOM     31  O   UNL     1      41.927  14.689  20.994  0.00  0.00    +0.000 OA
ATOM     32  H   UNL     1      41.628  15.092  20.158  0.00  0.00    +0.000 HD
ENDBRANCH  17  31
BRANCH  17  33
ATOM     33  C   UNL     1      43.816  13.482  21.749  0.00  0.00    +0.000 C 
BRANCH  33  34
ATOM     34  O   UNL     1      44.667  13.260  22.749  0.00  0.00    +0.000 OA
ATOM     35  H   UNL     1      44.616  12.334  23.054  0.00  0.00    +0.000 HD
ENDBRANCH  33  34
ENDBRANCH  17  33
BRANCH  24  36
ATOM     36  C   UNL     1      43.714   4.935  19.913  0.00  0.00    +0.000 C 
BRANCH  36  37
ATOM     37  C   UNL     1      43.394   3.949  21.041  0.00  0.00    +0.000 C 
ATOM     38  C   UNL     1      43.174   3.187  21.942  0.00  0.00    +0.000 C 
BRANCH  38  39
ATOM     39  C   UNL     1      42.916   2.224  23.105  0.00  0.00    +0.000 C 
ATOM     40  C   UNL     1      42.716   1.458  24.007  0.00  0.00    +0.000 C 
BRANCH  40  41
ATOM     41  C   UNL     1      42.463   0.474  25.153  0.00  0.00    +0.000 C 
ATOM     42  C   UNL     1      42.242  -0.380  26.152  0.00  0.00    +0.000 C 
ENDBRANCH  40  41
ENDBRANCH  38  39
ENDBRANCH  36  37
ENDBRANCH  24  36
BRANCH  15  43
ATOM     43  O   UNL     1      39.331  10.639  21.653  0.00  0.00    +0.000 OA
BRANCH  43  45
ATOM     44  O   UNL     1      37.341  10.884  20.468  0.00  0.00    +0.000 OA
ATOM     45  C   UNL     1      38.248  11.317  21.165  0.00  0.00    +0.000 C 
BRANCH  45  46
ATOM     46  C   UNL     1      38.262  12.692  21.562  0.00  0.00    +0.000 C 
ATOM     47  C   UNL     1      38.271  13.841  21.899  0.00  0.00    +0.000 C 
ATOM     48  C   UNL     1      38.287  15.313  22.315  0.00  0.00    +0.000 C 
ENDBRANCH  45  46
ENDBRANCH  43  45
ENDBRANCH  15  43
TORSDOF 10
ENDMDL
MODEL 8
REMARK VINA RESULT:      -5.9     34.759     38.165
REMARK  Name = Thapsigargin.pdbqt.pdb
REMARK  10 active torsions:
REMARK  status: ('A' for Active; 'I' for Inactive)
REMARK    1  A    between atoms: O_2  and  C_24
REMARK    2  A    between atoms: C_17  and  O_43
REMARK    3  A    between atoms: C_19  and  C_24
REMARK    4  A    between atoms: C_19  and  O_47
REMARK    5  A    between atoms: C_27  and  C_35
REMARK    6  A    between atoms: C_35  and  C_36
REMARK    7  A    between atoms: C_37  and  C_38
REMARK    8  A    between atoms: C_39  and  C_40
REMARK    9  A    between atoms: C_42  and  O_43
REMARK   10  A    between atoms: C_42  and  C_44
REMARK                            x       y       z     vdW  Elec       q    Type
REMARK                         _______ _______ _______ _____ _____    ______ ____
ROOT
ATOM      1  O   UNL     1      33.073  23.512  40.128  0.00  0.00    +0.000 OA
ATOM      2  O   UNL     1      31.486  20.811  34.942  0.00  0.00    +0.000 OA
ATOM      3  O   UNL     1      30.635  19.188  36.726  0.00  0.00    +0.000 OA
ATOM      4  O   UNL     1      34.759  19.404  37.336  0.00  0.00    +0.000 OA
ATOM      5  O   UNL     1      32.689  25.013  41.808  0.00  0.00    +0.000 OA
ATOM      6  O   UNL     1      29.642  20.239  36.446  0.00  0.00    +0.000 OA
ATOM      7  O   UNL     1      31.234  16.976  35.865  0.00  0.00    +0.000 OA
ATOM      8  O   UNL     1      34.754  19.569  39.821  0.00  0.00    +0.000 OA
ATOM      9  C   UNL     1      32.942  22.292  36.404  0.00  0.00    +0.000 C 
ATOM     10  C   UNL     1      31.778  24.507  38.475  0.00  0.00    +0.000 C 
ATOM     11  C   UNL     1      32.697  23.455  38.792  0.00  0.00    +0.000 C 
ATOM     12  C   UNL     1      32.065  23.145  35.552  0.00  0.00    +0.000 C 
ATOM     13  C   UNL     1      33.184  22.545  37.920  0.00  0.00    +0.000 C 
ATOM     14  C   UNL     1      31.437  24.660  37.238  0.00  0.00    +0.000 C 
ATOM     15  C   UNL     1      31.460  24.304  35.872  0.00  0.00    +0.000 C 
ATOM     16  C   UNL     1      33.974  21.350  36.033  0.00  0.00    +0.000 C 
ATOM     17  C   UNL     1      31.509  25.305  39.685  0.00  0.00    +0.000 C 
ATOM     18  C   UNL     1      34.510  20.774  37.202  0.00  0.00    +0.000 C 
ATOM     19  C   UNL     1      34.181  21.528  38.272  0.00  0.00    +0.000 C 
ATOM     20  C   UNL     1      31.599  21.810  35.974  0.00  0.00    +0.000 C 
ATOM     21  C   UNL     1      32.459  24.618  40.669  0.00  0.00    +0.000 C 
ATOM     22  C   UNL     1      34.416  20.797  39.444  0.00  0.00    +0.000 C 
ATOM     23  C   UNL     1      30.269  21.223  35.579  0.00  0.00    +0.000 C 
ATOM     24  C   UNL     1      30.372  18.062  35.938  0.00  0.00    +0.000 C 
ATOM     25  C   UNL     1      34.522  18.814  38.633  0.00  0.00    +0.000 C 
ATOM     26  C   UNL     1      29.294  21.917  34.618  0.00  0.00    +0.000 C 
ATOM     27  C   UNL     1      33.840  17.653  38.709  0.00  0.00    +0.000 C 
ATOM     28  C   UNL     1      33.519  17.005  40.037  0.00  0.00    +0.000 C 
ATOM     29  C   UNL     1      33.061  17.208  37.603  0.00  0.00    +0.000 C 
ATOM     30  C   UNL     1      32.224  17.054  36.754  0.00  0.00    +0.000 C 
ENDROOT
BRANCH  17  31
ATOM     31  O   UNL     1      31.826  26.669  39.470  0.00  0.00    +0.000 OA
ATOM     32  H   UNL     1      32.453  26.678  38.723  0.00  0.00    +0.000 HD
ENDBRANCH  17  31
BRANCH  17  33
ATOM     33  C   UNL     1      30.097  25.180  40.090  0.00  0.00    +0.000 C 
BRANCH  33  34
ATOM     34  O   UNL     1      28.821  25.043  40.446  0.00  0.00    +0.000 OA
ATOM     35  H   UNL     1      28.691  25.283  41.383  0.00  0.00    +0.000 HD
ENDBRANCH  33  34
ENDBRANCH  17  33
BRANCH  24  36
ATOM     36  C   UNL     1      29.395  18.047  35.081  0.00  0.00    +0.000 C 
BRANCH  36  37
ATOM     37  C   UNL     1      28.234  18.079  34.081  0.00  0.00    +0.000 C 
ATOM     38  C   UNL     1      27.320  18.139  33.306  0.00  0.00    +0.000 C 
BRANCH  38  39
ATOM     39  C   UNL     1      26.152  18.243  32.320  0.00  0.00    +0.000 C 
ATOM     40  C   UNL     1      25.238  18.309  31.545  0.00  0.00    +0.000 C 
BRANCH  40  41
ATOM     41  C   UNL     1      24.070  18.386  30.557  0.00  0.00    +0.000 C 
ATOM     42  C   UNL     1      23.053  18.456  29.699  0.00  0.00    +0.000 C 
ENDBRANCH  40  41
ENDBRANCH  38  39
ENDBRANCH  36  37
ENDBRANCH  24  36
BRANCH  15  43
ATOM     43  O   UNL     1      31.136  25.238  34.881  0.00  0.00    +0.000 OA
BRANCH  43  45
ATOM     44  O   UNL     1      32.814  25.691  33.331  0.00  0.00    +0.000 OA
ATOM     45  C   UNL     1      32.213  25.911  34.373  0.00  0.00    +0.000 C 
BRANCH  45  46
ATOM     46  C   UNL     1      32.624  26.979  35.233  0.00  0.00    +0.000 C 
ATOM     47  C   UNL     1      32.967  27.868  35.957  0.00  0.00    +0.000 C 
ATOM     48  C   UNL     1      33.401  29.016  36.871  0.00  0.00    +0.000 C 
ENDBRANCH  45  46
ENDBRANCH  43  45
ENDBRANCH  15  43
TORSDOF 10
ENDMDL
MODEL 9
REMARK VINA RESULT:      -5.8     41.428     44.137
REMARK  Name = Thapsigargin.pdbqt.pdb
REMARK  10 active torsions:
REMARK  status: ('A' for Active; 'I' for Inactive)
REMARK    1  A    between atoms: O_2  and  C_24
REMARK    2  A    between atoms: C_17  and  O_43
REMARK    3  A    between atoms: C_19  and  C_24
REMARK    4  A    between atoms: C_19  and  O_47
REMARK    5  A    between atoms: C_27  and  C_35
REMARK    6  A    between atoms: C_35  and  C_36
REMARK    7  A    between atoms: C_37  and  C_38
REMARK    8  A    between atoms: C_39  and  C_40
REMARK    9  A    between atoms: C_42  and  O_43
REMARK   10  A    between atoms: C_42  and  C_44
REMARK                            x       y       z     vdW  Elec       q    Type
REMARK                         _______ _______ _______ _____ _____    ______ ____
ROOT
ATOM      1  O   UNL     1      25.187  30.812  30.579  0.00  0.00    +0.000 OA
ATOM      2  O   UNL     1      22.284  29.802  25.359  0.00  0.00    +0.000 OA
ATOM      3  O   UNL     1      20.589  31.157  26.713  0.00  0.00    +0.000 OA
ATOM      4  O   UNL     1      21.274  27.712  28.969  0.00  0.00    +0.000 OA
ATOM      5  O   UNL     1      26.648  32.012  31.863  0.00  0.00    +0.000 OA
ATOM      6  O   UNL     1      21.519  32.040  25.988  0.00  0.00    +0.000 OA
ATOM      7  O   UNL     1      18.452  30.036  26.301  0.00  0.00    +0.000 OA
ATOM      8  O   UNL     1      21.457  28.774  31.214  0.00  0.00    +0.000 OA
ATOM      9  C   UNL     1      23.931  29.248  27.211  0.00  0.00    +0.000 C 
ATOM     10  C   UNL     1      26.017  31.386  28.487  0.00  0.00    +0.000 C 
ATOM     11  C   UNL     1      25.077  30.586  29.213  0.00  0.00    +0.000 C 
ATOM     12  C   UNL     1      24.673  29.768  26.026  0.00  0.00    +0.000 C 
ATOM     13  C   UNL     1      24.222  29.690  28.674  0.00  0.00    +0.000 C 
ATOM     14  C   UNL     1      26.120  31.190  27.213  0.00  0.00    +0.000 C 
ATOM     15  C   UNL     1      25.759  30.562  26.002  0.00  0.00    +0.000 C 
ATOM     16  C   UNL     1      23.109  28.068  27.353  0.00  0.00    +0.000 C 
ATOM     17  C   UNL     1      26.789  32.216  29.430  0.00  0.00    +0.000 C 
ATOM     18  C   UNL     1      22.606  28.016  28.669  0.00  0.00    +0.000 C 
ATOM     19  C   UNL     1      23.327  28.837  29.463  0.00  0.00    +0.000 C 
ATOM     20  C   UNL     1      23.298  30.232  26.288  0.00  0.00    +0.000 C 
ATOM     21  C   UNL     1      26.221  31.702  30.755  0.00  0.00    +0.000 C 
ATOM     22  C   UNL     1      22.636  29.043  30.664  0.00  0.00    +0.000 C 
ATOM     23  C   UNL     1      22.561  31.208  25.408  0.00  0.00    +0.000 C 
ATOM     24  C   UNL     1      19.435  30.953  25.949  0.00  0.00    +0.000 C 
ATOM     25  C   UNL     1      20.671  28.411  30.080  0.00  0.00    +0.000 C 
ATOM     26  C   UNL     1      23.133  31.755  24.093  0.00  0.00    +0.000 C 
ATOM     27  C   UNL     1      19.441  28.944  29.928  0.00  0.00    +0.000 C 
ATOM     28  C   UNL     1      18.771  29.725  31.036  0.00  0.00    +0.000 C 
ATOM     29  C   UNL     1      18.903  29.138  28.625  0.00  0.00    +0.000 C 
ATOM     30  C   UNL     1      18.648  29.523  27.514  0.00  0.00    +0.000 C 
ENDROOT
BRANCH  17  31
ATOM     31  O   UNL     1      28.178  31.975  29.292  0.00  0.00    +0.000 OA
ATOM     32  H   UNL     1      28.614  32.606  29.894  0.00  0.00    +0.000 HD
ENDBRANCH  17  31
BRANCH  17  33
ATOM     33  C   UNL     1      26.508  33.647  29.217  0.00  0.00    +0.000 C 
BRANCH  33  34
ATOM     34  O   UNL     1      26.231  34.935  29.020  0.00  0.00    +0.000 OA
ATOM     35  H   UNL     1      26.689  35.497  29.673  0.00  0.00    +0.000 HD
ENDBRANCH  33  34
ENDBRANCH  17  33
BRANCH  24  36
ATOM     36  C   UNL     1      19.303  31.474  24.766  0.00  0.00    +0.000 C 
BRANCH  36  37
ATOM     37  C   UNL     1      19.196  32.077  23.361  0.00  0.00    +0.000 C 
ATOM     38  C   UNL     1      19.122  32.582  22.275  0.00  0.00    +0.000 C 
BRANCH  38  39
ATOM     39  C   UNL     1      19.036  33.250  20.899  0.00  0.00    +0.000 C 
ATOM     40  C   UNL     1      18.965  33.786  19.827  0.00  0.00    +0.000 C 
BRANCH  40  41
ATOM     41  C   UNL     1      18.873  34.478  18.464  0.00  0.00    +0.000 C 
ATOM     42  C   UNL     1      18.795  35.080  17.278  0.00  0.00    +0.000 C 
ENDBRANCH  40  41
ENDBRANCH  38  39
ENDBRANCH  36  37
ENDBRANCH  24  36
BRANCH  15  43
ATOM     43  O   UNL     1      26.643  30.532  24.917  0.00  0.00    +0.000 OA
BRANCH  43  45
ATOM     44  O   UNL     1      28.292  32.131  25.306  0.00  0.00    +0.000 OA
ATOM     45  C   UNL     1      27.312  31.707  24.709  0.00  0.00    +0.000 C 
BRANCH  45  46
ATOM     46  C   UNL     1      26.722  32.471  23.653  0.00  0.00    +0.000 C 
ATOM     47  C   UNL     1      26.232  33.107  22.765  0.00  0.00    +0.000 C 
ATOM     48  C   UNL     1      25.600  33.930  21.640  0.00  0.00    +0.000 C 
ENDBRANCH  45  46
ENDBRANCH  43  45
ENDBRANCH  15  43
TORSDOF 10
ENDMDL
