MODEL 1
REMARK VINA RESULT:      -6.6      0.000      0.000
REMARK  Name = Thioguanosine.pdbqt.pdb
REMARK  5 active torsions:
REMARK  status: ('A' for Active; 'I' for Inactive)
REMARK    1  A    between atoms: N_2  and  C1*_12
REMARK    2  A    between atoms: C4*_14  and  C5*_17
REMARK    3  A    between atoms: C3*_15  and  O3*_20
REMARK    4  A    between atoms: C2*_16  and  O2*_22
REMARK    5  A    between atoms: C5*_17  and  O5*_18
REMARK                            x       y       z     vdW  Elec       q    Type
REMARK                         _______ _______ _______ _____ _____    ______ ____
ROOT
ATOM      1  S   UNL     1      24.600  -1.231  32.874  0.00  0.00    +0.000 S 
ATOM      2  N   UNL     1      27.291  -2.828  29.105  0.00  0.00    +0.000 N 
ATOM      3  N   UNL     1      26.621  -0.463  28.973  0.00  0.00    +0.000 N 
ATOM      4  N   UNL     1      26.313  -3.255  31.102  0.00  0.00    +0.000 NA
ATOM      5  N   UNL     1      25.276   0.352  30.757  0.00  0.00    +0.000 NA
ATOM      6  C   UNL     1      26.682  -1.680  29.544  0.00  0.00    +0.000 A 
ATOM      7  C   UNL     1      27.041  -3.742  30.117  0.00  0.00    +0.000 A 
ATOM      8  C   UNL     1      26.075  -1.951  30.744  0.00  0.00    +0.000 A 
ATOM      9  C   UNL     1      25.323  -0.883  31.407  0.00  0.00    +0.000 A 
ATOM     10  C   UNL     1      25.902   0.500  29.625  0.00  0.00    +0.000 A 
ATOM     11  H   UNL     1      27.033  -0.259  28.066  0.00  0.00    +0.000 HD
ATOM     12  N   UNL     1      25.876   1.690  28.977  0.00  0.00    +0.000 N 
ATOM     13  H   UNL     1      26.780   2.007  28.652  0.00  0.00    +0.000 HD
ATOM     14  H   UNL     1      25.434   2.401  29.556  0.00  0.00    +0.000 HD
ENDROOT
BRANCH   2  15
ATOM     15  C1* UNL     1      27.984  -3.096  27.941  0.00  0.00    +0.000 A 
ATOM     16  O4* UNL     1      29.355  -2.775  27.796  0.00  0.00    +0.000 OA
ATOM     17  C4* UNL     1      29.785  -3.146  26.511  0.00  0.00    +0.000 A 
ATOM     18  C3* UNL     1      28.670  -3.724  25.816  0.00  0.00    +0.000 A 
ATOM     19  C2* UNL     1      27.551  -3.704  26.707  0.00  0.00    +0.000 A 
BRANCH  18  20
ATOM     20  O3* UNL     1      28.480  -3.610  24.465  0.00  0.00    +0.000 OA
ATOM     21  H3* UNL     1      27.927  -4.335  24.119  0.00  0.00    +0.000 HD
ENDBRANCH  18  20
BRANCH  19  22
ATOM     22  O2* UNL     1      26.276  -3.588  26.225  0.00  0.00    +0.000 OA
ATOM     23  H2* UNL     1      25.957  -2.674  26.369  0.00  0.00    +0.000 HD
ENDBRANCH  19  22
BRANCH  17  24
ATOM     24  C5* UNL     1      31.019  -2.737  25.972  0.00  0.00    +0.000 C 
BRANCH  24  25
ATOM     25  O5* UNL     1      32.186  -2.336  25.481  0.00  0.00    +0.000 OA
ATOM     26  H5* UNL     1      32.125  -2.199  24.519  0.00  0.00    +0.000 HD
ENDBRANCH  24  25
ENDBRANCH  17  24
ENDBRANCH   2  15
TORSDOF 5
ENDMDL
MODEL 2
REMARK VINA RESULT:      -6.6     34.267     35.750
REMARK  Name = Thioguanosine.pdbqt.pdb
REMARK  5 active torsions:
REMARK  status: ('A' for Active; 'I' for Inactive)
REMARK    1  A    between atoms: N_2  and  C1*_12
REMARK    2  A    between atoms: C4*_14  and  C5*_17
REMARK    3  A    between atoms: C3*_15  and  O3*_20
REMARK    4  A    between atoms: C2*_16  and  O2*_22
REMARK    5  A    between atoms: C5*_17  and  O5*_18
REMARK                            x       y       z     vdW  Elec       q    Type
REMARK                         _______ _______ _______ _____ _____    ______ ____
ROOT
ATOM      1  S   UNL     1      23.555  26.625   1.681  0.00  0.00    +0.000 S 
ATOM      2  N   UNL     1      21.657  22.130   2.116  0.00  0.00    +0.000 N 
ATOM      3  N   UNL     1      22.685  23.025   4.166  0.00  0.00    +0.000 N 
ATOM      4  N   UNL     1      22.043  23.950   0.827  0.00  0.00    +0.000 NA
ATOM      5  N   UNL     1      23.661  25.187   3.997  0.00  0.00    +0.000 NA
ATOM      6  C   UNL     1      22.305  23.071   2.876  0.00  0.00    +0.000 A 
ATOM      7  C   UNL     1      21.512  22.744   0.882  0.00  0.00    +0.000 A 
ATOM      8  C   UNL     1      22.554  24.162   2.084  0.00  0.00    +0.000 A 
ATOM      9  C   UNL     1      23.272  25.300   2.661  0.00  0.00    +0.000 A 
ATOM     10  C   UNL     1      23.360  24.108   4.660  0.00  0.00    +0.000 A 
ATOM     11  H   UNL     1      22.542  22.208   4.755  0.00  0.00    +0.000 HD
ATOM     12  N   UNL     1      23.720  23.976   5.959  0.00  0.00    +0.000 N 
ATOM     13  H   UNL     1      22.981  23.646   6.566  0.00  0.00    +0.000 HD
ATOM     14  H   UNL     1      24.109  24.848   6.311  0.00  0.00    +0.000 HD
ENDROOT
BRANCH   2  15
ATOM     15  C1* UNL     1      21.237  20.851   2.426  0.00  0.00    +0.000 A 
ATOM     16  O4* UNL     1      20.354  20.593   3.502  0.00  0.00    +0.000 OA
ATOM     17  C4* UNL     1      20.116  19.211   3.586  0.00  0.00    +0.000 A 
ATOM     18  C3* UNL     1      20.854  18.566   2.538  0.00  0.00    +0.000 A 
ATOM     19  C2* UNL     1      21.544  19.584   1.809  0.00  0.00    +0.000 A 
BRANCH  18  20
ATOM     20  O3* UNL     1      21.394  17.314   2.655  0.00  0.00    +0.000 OA
ATOM     21  H3* UNL     1      20.751  16.679   3.021  0.00  0.00    +0.000 HD
ENDBRANCH  18  20
BRANCH  19  22
ATOM     22  O2* UNL     1      22.742  19.321   1.203  0.00  0.00    +0.000 OA
ATOM     23  H2* UNL     1      22.876  18.352   1.156  0.00  0.00    +0.000 HD
ENDBRANCH  19  22
BRANCH  17  24
ATOM     24  C5* UNL     1      19.485  18.612   4.692  0.00  0.00    +0.000 C 
BRANCH  24  25
ATOM     25  O5* UNL     1      18.876  18.036   5.722  0.00  0.00    +0.000 OA
ATOM     26  H5* UNL     1      17.977  18.393   5.832  0.00  0.00    +0.000 HD
ENDBRANCH  24  25
ENDBRANCH  17  24
ENDBRANCH   2  15
TORSDOF 5
ENDMDL
MODEL 3
REMARK VINA RESULT:      -6.5     33.883     35.332
REMARK  Name = Thioguanosine.pdbqt.pdb
REMARK  5 active torsions:
REMARK  status: ('A' for Active; 'I' for Inactive)
REMARK    1  A    between atoms: N_2  and  C1*_12
REMARK    2  A    between atoms: C4*_14  and  C5*_17
REMARK    3  A    between atoms: C3*_15  and  O3*_20
REMARK    4  A    between atoms: C2*_16  and  O2*_22
REMARK    5  A    between atoms: C5*_17  and  O5*_18
REMARK                            x       y       z     vdW  Elec       q    Type
REMARK                         _______ _______ _______ _____ _____    ______ ____
ROOT
ATOM      1  S   UNL     1      25.650  23.039  -0.142  0.00  0.00    +0.000 S 
ATOM      2  N   UNL     1      22.147  20.068   1.560  0.00  0.00    +0.000 N 
ATOM      3  N   UNL     1      22.869  21.825   3.126  0.00  0.00    +0.000 N 
ATOM      4  N   UNL     1      23.515  20.671  -0.141  0.00  0.00    +0.000 NA
ATOM      5  N   UNL     1      24.600  23.268   2.365  0.00  0.00    +0.000 NA
ATOM      6  C   UNL     1      22.883  21.155   1.959  0.00  0.00    +0.000 A 
ATOM      7  C   UNL     1      22.572  19.841   0.260  0.00  0.00    +0.000 A 
ATOM      8  C   UNL     1      23.723  21.502   0.932  0.00  0.00    +0.000 A 
ATOM      9  C   UNL     1      24.643  22.625   1.126  0.00  0.00    +0.000 A 
ATOM     10  C   UNL     1      23.751  22.862   3.264  0.00  0.00    +0.000 A 
ATOM     11  H   UNL     1      22.280  21.555   3.910  0.00  0.00    +0.000 HD
ATOM     12  N   UNL     1      23.685  23.472   4.472  0.00  0.00    +0.000 N 
ATOM     13  H   UNL     1      22.746  23.694   4.776  0.00  0.00    +0.000 HD
ATOM     14  H   UNL     1      24.270  24.305   4.482  0.00  0.00    +0.000 HD
ENDROOT
BRANCH   2  15
ATOM     15  C1* UNL     1      21.209  19.314   2.237  0.00  0.00    +0.000 A 
ATOM     16  O4* UNL     1      19.831  19.375   1.922  0.00  0.00    +0.000 OA
ATOM     17  C4* UNL     1      19.120  18.518   2.778  0.00  0.00    +0.000 A 
ATOM     18  C3* UNL     1      20.060  17.885   3.658  0.00  0.00    +0.000 A 
ATOM     19  C2* UNL     1      21.362  18.370   3.317  0.00  0.00    +0.000 A 
BRANCH  18  20
ATOM     20  O3* UNL     1      19.770  17.534   4.949  0.00  0.00    +0.000 OA
ATOM     21  H3* UNL     1      18.833  17.284   5.050  0.00  0.00    +0.000 HD
ENDBRANCH  18  20
BRANCH  19  22
ATOM     22  O2* UNL     1      22.340  18.476   4.268  0.00  0.00    +0.000 OA
ATOM     23  H2* UNL     1      23.217  18.459   3.833  0.00  0.00    +0.000 HD
ENDBRANCH  19  22
BRANCH  17  24
ATOM     24  C5* UNL     1      17.717  18.539   2.886  0.00  0.00    +0.000 C 
BRANCH  24  25
ATOM     25  O5* UNL     1      16.395  18.563   3.011  0.00  0.00    +0.000 OA
ATOM     26  H5* UNL     1      16.042  19.432   2.751  0.00  0.00    +0.000 HD
ENDBRANCH  24  25
ENDBRANCH  17  24
ENDBRANCH   2  15
TORSDOF 5
ENDMDL
MODEL 4
REMARK VINA RESULT:      -6.3     17.101     18.168
REMARK  Name = Thioguanosine.pdbqt.pdb
REMARK  5 active torsions:
REMARK  status: ('A' for Active; 'I' for Inactive)
REMARK    1  A    between atoms: N_2  and  C1*_12
REMARK    2  A    between atoms: C4*_14  and  C5*_17
REMARK    3  A    between atoms: C3*_15  and  O3*_20
REMARK    4  A    between atoms: C2*_16  and  O2*_22
REMARK    5  A    between atoms: C5*_17  and  O5*_18
REMARK                            x       y       z     vdW  Elec       q    Type
REMARK                         _______ _______ _______ _____ _____    ______ ____
ROOT
ATOM      1  S   UNL     1      41.140  11.420  22.553  0.00  0.00    +0.000 S 
ATOM      2  N   UNL     1      37.481   9.616  19.842  0.00  0.00    +0.000 N 
ATOM      3  N   UNL     1      39.285   8.018  20.345  0.00  0.00    +0.000 N 
ATOM      4  N   UNL     1      38.366  11.360  20.981  0.00  0.00    +0.000 NA
ATOM      5  N   UNL     1      41.108   8.856  21.622  0.00  0.00    +0.000 NA
ATOM      6  C   UNL     1      38.668   9.213  20.399  0.00  0.00    +0.000 A 
ATOM      7  C   UNL     1      37.352  10.932  20.256  0.00  0.00    +0.000 A 
ATOM      8  C   UNL     1      39.209  10.280  21.070  0.00  0.00    +0.000 A 
ATOM      9  C   UNL     1      40.505  10.111  21.730  0.00  0.00    +0.000 A 
ATOM     10  C   UNL     1      40.497   7.909  20.971  0.00  0.00    +0.000 A 
ATOM     11  H   UNL     1      38.915   7.230  19.819  0.00  0.00    +0.000 HD
ATOM     12  N   UNL     1      41.058   6.681  20.856  0.00  0.00    +0.000 N 
ATOM     13  H   UNL     1      40.428   5.915  21.055  0.00  0.00    +0.000 HD
ATOM     14  H   UNL     1      41.893   6.616  21.434  0.00  0.00    +0.000 HD
ENDROOT
BRANCH   2  15
ATOM     15  C1* UNL     1      36.587   8.941  19.034  0.00  0.00    +0.000 A 
ATOM     16  O4* UNL     1      36.989   8.319  17.828  0.00  0.00    +0.000 OA
ATOM     17  C4* UNL     1      35.872   7.727  17.215  0.00  0.00    +0.000 A 
ATOM     18  C3* UNL     1      34.727   7.966  18.047  0.00  0.00    +0.000 A 
ATOM     19  C2* UNL     1      35.171   8.711  19.184  0.00  0.00    +0.000 A 
BRANCH  18  20
ATOM     20  O3* UNL     1      33.461   8.140  17.558  0.00  0.00    +0.000 OA
ATOM     21  H3* UNL     1      32.833   8.376  18.265  0.00  0.00    +0.000 HD
ENDBRANCH  18  20
BRANCH  19  22
ATOM     22  O2* UNL     1      34.334   9.595  19.811  0.00  0.00    +0.000 OA
ATOM     23  H2* UNL     1      33.845   9.130  20.519  0.00  0.00    +0.000 HD
ENDBRANCH  19  22
BRANCH  17  24
ATOM     24  C5* UNL     1      35.892   7.250  15.892  0.00  0.00    +0.000 C 
BRANCH  24  25
ATOM     25  O5* UNL     1      35.915   6.779  14.650  0.00  0.00    +0.000 OA
ATOM     26  H5* UNL     1      35.092   6.300  14.450  0.00  0.00    +0.000 HD
ENDBRANCH  24  25
ENDBRANCH  17  24
ENDBRANCH   2  15
TORSDOF 5
ENDMDL
MODEL 5
REMARK VINA RESULT:      -5.6     16.923     18.654
REMARK  Name = Thioguanosine.pdbqt.pdb
REMARK  5 active torsions:
REMARK  status: ('A' for Active; 'I' for Inactive)
REMARK    1  A    between atoms: N_2  and  C1*_12
REMARK    2  A    between atoms: C4*_14  and  C5*_17
REMARK    3  A    between atoms: C3*_15  and  O3*_20
REMARK    4  A    between atoms: C2*_16  and  O2*_22
REMARK    5  A    between atoms: C5*_17  and  O5*_18
REMARK                            x       y       z     vdW  Elec       q    Type
REMARK                         _______ _______ _______ _____ _____    ______ ____
ROOT
ATOM      1  S   UNL     1      43.115   9.702  20.502  0.00  0.00    +0.000 S 
ATOM      2  N   UNL     1      38.355   9.480  19.367  0.00  0.00    +0.000 N 
ATOM      3  N   UNL     1      39.502   7.304  19.457  0.00  0.00    +0.000 N 
ATOM      4  N   UNL     1      40.152  10.735  19.931  0.00  0.00    +0.000 NA
ATOM      5  N   UNL     1      41.826   7.359  19.961  0.00  0.00    +0.000 NA
ATOM      6  C   UNL     1      39.426   8.643  19.556  0.00  0.00    +0.000 A 
ATOM      7  C   UNL     1      38.868  10.739  19.633  0.00  0.00    +0.000 A 
ATOM      8  C   UNL     1      40.515   9.412  19.878  0.00  0.00    +0.000 A 
ATOM      9  C   UNL     1      41.802   8.748  20.099  0.00  0.00    +0.000 A 
ATOM     10  C   UNL     1      40.726   6.729  19.665  0.00  0.00    +0.000 A 
ATOM     11  H   UNL     1      38.713   6.725  19.182  0.00  0.00    +0.000 HD
ATOM     12  N   UNL     1      40.721   5.380  19.531  0.00  0.00    +0.000 N 
ATOM     13  H   UNL     1      39.966   4.915  20.017  0.00  0.00    +0.000 HD
ATOM     14  H   UNL     1      41.619   4.992  19.811  0.00  0.00    +0.000 HD
ENDROOT
BRANCH   2  15
ATOM     15  C1* UNL     1      37.055   9.211  18.983  0.00  0.00    +0.000 A 
ATOM     16  O4* UNL     1      35.945   9.633  19.753  0.00  0.00    +0.000 OA
ATOM     17  C4* UNL     1      34.760   9.209  19.129  0.00  0.00    +0.000 A 
ATOM     18  C3* UNL     1      35.113   8.507  17.928  0.00  0.00    +0.000 A 
ATOM     19  C2* UNL     1      36.540   8.516  17.829  0.00  0.00    +0.000 A 
BRANCH  18  20
ATOM     20  O3* UNL     1      34.392   7.456  17.428  0.00  0.00    +0.000 OA
ATOM     21  H3* UNL     1      34.271   6.755  18.094  0.00  0.00    +0.000 HD
ENDBRANCH  18  20
BRANCH  19  22
ATOM     22  O2* UNL     1      37.205   7.487  17.219  0.00  0.00    +0.000 OA
ATOM     23  H2* UNL     1      36.568   6.948  16.707  0.00  0.00    +0.000 HD
ENDBRANCH  19  22
BRANCH  17  24
ATOM     24  C5* UNL     1      33.506   9.253  19.765  0.00  0.00    +0.000 C 
BRANCH  24  25
ATOM     25  O5* UNL     1      32.315   9.276  20.354  0.00  0.00    +0.000 OA
ATOM     26  H5* UNL     1      31.610   9.092  19.708  0.00  0.00    +0.000 HD
ENDBRANCH  24  25
ENDBRANCH  17  24
ENDBRANCH   2  15
TORSDOF 5
ENDMDL
MODEL 6
REMARK VINA RESULT:      -5.6     35.759     37.287
REMARK  Name = Thioguanosine.pdbqt.pdb
REMARK  5 active torsions:
REMARK  status: ('A' for Active; 'I' for Inactive)
REMARK    1  A    between atoms: N_2  and  C1*_12
REMARK    2  A    between atoms: C4*_14  and  C5*_17
REMARK    3  A    between atoms: C3*_15  and  O3*_20
REMARK    4  A    between atoms: C2*_16  and  O2*_22
REMARK    5  A    between atoms: C5*_17  and  O5*_18
REMARK                            x       y       z     vdW  Elec       q    Type
REMARK                         _______ _______ _______ _____ _____    ______ ____
ROOT
ATOM      1  S   UNL     1      23.479  21.708  -1.563  0.00  0.00    +0.000 S 
ATOM      2  N   UNL     1      23.323  24.571   2.409  0.00  0.00    +0.000 N 
ATOM      3  N   UNL     1      23.896  22.217   2.848  0.00  0.00    +0.000 N 
ATOM      4  N   UNL     1      23.137  24.369   0.162  0.00  0.00    +0.000 NA
ATOM      5  N   UNL     1      23.943  20.774   0.958  0.00  0.00    +0.000 NA
ATOM      6  C   UNL     1      23.578  23.266   2.068  0.00  0.00    +0.000 A 
ATOM      7  C   UNL     1      23.081  25.189   1.193  0.00  0.00    +0.000 A 
ATOM      8  C   UNL     1      23.444  23.147   0.709  0.00  0.00    +0.000 A 
ATOM      9  C   UNL     1      23.636  21.830   0.097  0.00  0.00    +0.000 A 
ATOM     10  C   UNL     1      24.059  21.006   2.234  0.00  0.00    +0.000 A 
ATOM     11  H   UNL     1      23.961  22.282   3.861  0.00  0.00    +0.000 HD
ATOM     12  N   UNL     1      24.362  20.000   3.090  0.00  0.00    +0.000 N 
ATOM     13  H   UNL     1      25.094  20.222   3.751  0.00  0.00    +0.000 HD
ATOM     14  H   UNL     1      24.590  19.152   2.575  0.00  0.00    +0.000 HD
ENDROOT
BRANCH   2  15
ATOM     15  C1* UNL     1      23.276  25.190   3.643  0.00  0.00    +0.000 A 
ATOM     16  O4* UNL     1      23.548  26.570   3.798  0.00  0.00    +0.000 OA
ATOM     17  C4* UNL     1      23.440  26.915   5.156  0.00  0.00    +0.000 A 
ATOM     18  C3* UNL     1      23.085  25.734   5.890  0.00  0.00    +0.000 A 
ATOM     19  C2* UNL     1      22.972  24.662   4.950  0.00  0.00    +0.000 A 
BRANCH  18  20
ATOM     20  O3* UNL     1      23.497  25.488   7.172  0.00  0.00    +0.000 OA
ATOM     21  H3* UNL     1      24.279  24.906   7.192  0.00  0.00    +0.000 HD
ENDBRANCH  18  20
BRANCH  19  22
ATOM     22  O2* UNL     1      23.256  23.375   5.320  0.00  0.00    +0.000 OA
ATOM     23  H2* UNL     1      22.844  22.757   4.682  0.00  0.00    +0.000 HD
ENDBRANCH  19  22
BRANCH  17  24
ATOM     24  C5* UNL     1      23.890  28.145   5.668  0.00  0.00    +0.000 C 
BRANCH  24  25
ATOM     25  O5* UNL     1      24.296  29.318   6.142  0.00  0.00    +0.000 OA
ATOM     26  H5* UNL     1      25.003  29.687   5.584  0.00  0.00    +0.000 HD
ENDBRANCH  24  25
ENDBRANCH  17  24
ENDBRANCH   2  15
TORSDOF 5
ENDMDL
MODEL 7
REMARK VINA RESULT:      -5.5      2.063      2.323
REMARK  Name = Thioguanosine.pdbqt.pdb
REMARK  5 active torsions:
REMARK  status: ('A' for Active; 'I' for Inactive)
REMARK    1  A    between atoms: N_2  and  C1*_12
REMARK    2  A    between atoms: C4*_14  and  C5*_17
REMARK    3  A    between atoms: C3*_15  and  O3*_20
REMARK    4  A    between atoms: C2*_16  and  O2*_22
REMARK    5  A    between atoms: C5*_17  and  O5*_18
REMARK                            x       y       z     vdW  Elec       q    Type
REMARK                         _______ _______ _______ _____ _____    ______ ____
ROOT
ATOM      1  S   UNL     1      23.957  -3.995  31.981  0.00  0.00    +0.000 S 
ATOM      2  N   UNL     1      26.778  -4.129  27.979  0.00  0.00    +0.000 N 
ATOM      3  N   UNL     1      27.673  -2.782  29.835  0.00  0.00    +0.000 N 
ATOM      4  N   UNL     1      24.895  -4.801  29.042  0.00  0.00    +0.000 NA
ATOM      5  N   UNL     1      26.321  -2.648  31.787  0.00  0.00    +0.000 NA
ATOM      6  C   UNL     1      26.771  -3.582  29.237  0.00  0.00    +0.000 A 
ATOM      7  C   UNL     1      25.612  -4.877  27.938  0.00  0.00    +0.000 A 
ATOM      8  C   UNL     1      25.619  -3.977  29.868  0.00  0.00    +0.000 A 
ATOM      9  C   UNL     1      25.361  -3.493  31.226  0.00  0.00    +0.000 A 
ATOM     10  C   UNL     1      27.386  -2.350  31.101  0.00  0.00    +0.000 A 
ATOM     11  H   UNL     1      28.513  -2.450  29.366  0.00  0.00    +0.000 HD
ATOM     12  N   UNL     1      28.335  -1.537  31.624  0.00  0.00    +0.000 N 
ATOM     13  H   UNL     1      29.282  -1.877  31.516  0.00  0.00    +0.000 HD
ATOM     14  H   UNL     1      28.136  -1.341  32.602  0.00  0.00    +0.000 HD
ENDROOT
BRANCH   2  15
ATOM     15  C1* UNL     1      27.679  -3.996  26.940  0.00  0.00    +0.000 A 
ATOM     16  O4* UNL     1      29.009  -3.561  27.155  0.00  0.00    +0.000 OA
ATOM     17  C4* UNL     1      29.683  -3.509  25.924  0.00  0.00    +0.000 A 
ATOM     18  C3* UNL     1      28.772  -3.925  24.896  0.00  0.00    +0.000 A 
ATOM     19  C2* UNL     1      27.528  -4.239  25.527  0.00  0.00    +0.000 A 
BRANCH  18  20
ATOM     20  O3* UNL     1      28.795  -3.430  23.620  0.00  0.00    +0.000 OA
ATOM     21  H3* UNL     1      28.800  -2.455  23.614  0.00  0.00    +0.000 HD
ENDBRANCH  18  20
BRANCH  19  22
ATOM     22  O2* UNL     1      26.344  -4.067  24.863  0.00  0.00    +0.000 OA
ATOM     23  H2* UNL     1      25.607  -4.076  25.507  0.00  0.00    +0.000 HD
ENDBRANCH  19  22
BRANCH  17  24
ATOM     24  C5* UNL     1      30.933  -2.882  25.766  0.00  0.00    +0.000 C 
BRANCH  24  25
ATOM     25  O5* UNL     1      32.113  -2.284  25.639  0.00  0.00    +0.000 OA
ATOM     26  H5* UNL     1      32.517  -2.134  26.512  0.00  0.00    +0.000 HD
ENDBRANCH  24  25
ENDBRANCH  17  24
ENDBRANCH   2  15
TORSDOF 5
ENDMDL
MODEL 8
REMARK VINA RESULT:      -5.3     16.865     18.851
REMARK  Name = Thioguanosine.pdbqt.pdb
REMARK  5 active torsions:
REMARK  status: ('A' for Active; 'I' for Inactive)
REMARK    1  A    between atoms: N_2  and  C1*_12
REMARK    2  A    between atoms: C4*_14  and  C5*_17
REMARK    3  A    between atoms: C3*_15  and  O3*_20
REMARK    4  A    between atoms: C2*_16  and  O2*_22
REMARK    5  A    between atoms: C5*_17  and  O5*_18
REMARK                            x       y       z     vdW  Elec       q    Type
REMARK                         _______ _______ _______ _____ _____    ______ ____
ROOT
ATOM      1  S   UNL     1      42.094  11.338  25.837  0.00  0.00    +0.000 S 
ATOM      2  N   UNL     1      39.225  10.139  22.052  0.00  0.00    +0.000 N 
ATOM      3  N   UNL     1      39.322  12.546  22.559  0.00  0.00    +0.000 N 
ATOM      4  N   UNL     1      40.656   9.482  23.678  0.00  0.00    +0.000 NA
ATOM      5  N   UNL     1      40.667  13.178  24.416  0.00  0.00    +0.000 NA
ATOM      6  C   UNL     1      39.641  11.251  22.739  0.00  0.00    +0.000 A 
ATOM      7  C   UNL     1      39.902   9.098  22.668  0.00  0.00    +0.000 A 
ATOM      8  C   UNL     1      40.491  10.844  23.735  0.00  0.00    +0.000 A 
ATOM      9  C   UNL     1      41.050  11.853  24.637  0.00  0.00    +0.000 A 
ATOM     10  C   UNL     1      39.862  13.452  23.430  0.00  0.00    +0.000 A 
ATOM     11  H   UNL     1      38.663  12.858  21.850  0.00  0.00    +0.000 HD
ATOM     12  N   UNL     1      39.480  14.729  23.190  0.00  0.00    +0.000 N 
ATOM     13  H   UNL     1      39.545  15.009  22.220  0.00  0.00    +0.000 HD
ATOM     14  H   UNL     1      39.998  15.373  23.783  0.00  0.00    +0.000 HD
ENDROOT
BRANCH   2  15
ATOM     15  C1* UNL     1      38.334  10.004  21.005  0.00  0.00    +0.000 A 
ATOM     16  O4* UNL     1      37.188   9.178  21.099  0.00  0.00    +0.000 OA
ATOM     17  C4* UNL     1      36.482   9.225  19.886  0.00  0.00    +0.000 A 
ATOM     18  C3* UNL     1      37.183  10.105  18.994  0.00  0.00    +0.000 A 
ATOM     19  C2* UNL     1      38.329  10.599  19.691  0.00  0.00    +0.000 A 
BRANCH  18  20
ATOM     20  O3* UNL     1      37.221   9.931  17.636  0.00  0.00    +0.000 OA
ATOM     21  H3* UNL     1      36.765   9.113  17.367  0.00  0.00    +0.000 HD
ENDBRANCH  18  20
BRANCH  19  22
ATOM     22  O2* UNL     1      39.474  10.922  19.014  0.00  0.00    +0.000 OA
ATOM     23  H2* UNL     1      39.937  11.643  19.487  0.00  0.00    +0.000 HD
ENDBRANCH  19  22
BRANCH  17  24
ATOM     24  C5* UNL     1      35.443   8.329  19.573  0.00  0.00    +0.000 C 
BRANCH  24  25
ATOM     25  O5* UNL     1      34.446   7.499  19.284  0.00  0.00    +0.000 OA
ATOM     26  H5* UNL     1      33.802   7.470  20.013  0.00  0.00    +0.000 HD
ENDBRANCH  24  25
ENDBRANCH  17  24
ENDBRANCH   2  15
TORSDOF 5
ENDMDL
MODEL 9
REMARK VINA RESULT:      -5.2     36.325     37.616
REMARK  Name = Thioguanosine.pdbqt.pdb
REMARK  5 active torsions:
REMARK  status: ('A' for Active; 'I' for Inactive)
REMARK    1  A    between atoms: N_2  and  C1*_12
REMARK    2  A    between atoms: C4*_14  and  C5*_17
REMARK    3  A    between atoms: C3*_15  and  O3*_20
REMARK    4  A    between atoms: C2*_16  and  O2*_22
REMARK    5  A    between atoms: C5*_17  and  O5*_18
REMARK                            x       y       z     vdW  Elec       q    Type
REMARK                         _______ _______ _______ _____ _____    ______ ____
ROOT
ATOM      1  S   UNL     1      17.132  20.044  -3.322  0.00  0.00    +0.000 S 
ATOM      2  N   UNL     1      20.713  20.743  -0.054  0.00  0.00    +0.000 N 
ATOM      3  N   UNL     1      21.478  20.246  -2.340  0.00  0.00    +0.000 N 
ATOM      4  N   UNL     1      18.497  20.688  -0.513  0.00  0.00    +0.000 NA
ATOM      5  N   UNL     1      19.778  19.855  -3.957  0.00  0.00    +0.000 NA
ATOM      6  C   UNL     1      20.553  20.462  -1.387  0.00  0.00    +0.000 A 
ATOM      7  C   UNL     1      19.415  20.888   0.412  0.00  0.00    +0.000 A 
ATOM      8  C   UNL     1      19.208  20.410  -1.654  0.00  0.00    +0.000 A 
ATOM      9  C   UNL     1      18.775  20.091  -3.015  0.00  0.00    +0.000 A 
ATOM     10  C   UNL     1      21.026  19.945  -3.596  0.00  0.00    +0.000 A 
ATOM     11  H   UNL     1      22.477  20.244  -2.149  0.00  0.00    +0.000 HD
ATOM     12  N   UNL     1      22.018  19.726  -4.491  0.00  0.00    +0.000 N 
ATOM     13  H   UNL     1      22.751  20.423  -4.480  0.00  0.00    +0.000 HD
ATOM     14  H   UNL     1      21.635  19.625  -5.428  0.00  0.00    +0.000 HD
ENDROOT
BRANCH   2  15
ATOM     15  C1* UNL     1      21.854  20.851   0.717  0.00  0.00    +0.000 A 
ATOM     16  O4* UNL     1      22.878  21.780   0.413  0.00  0.00    +0.000 OA
ATOM     17  C4* UNL     1      23.913  21.654   1.353  0.00  0.00    +0.000 A 
ATOM     18  C3* UNL     1      23.547  20.628   2.287  0.00  0.00    +0.000 A 
ATOM     19  C2* UNL     1      22.262  20.133   1.900  0.00  0.00    +0.000 A 
BRANCH  18  20
ATOM     20  O3* UNL     1      24.452  19.798   2.893  0.00  0.00    +0.000 OA
ATOM     21  H3* UNL     1      24.235  19.657   3.833  0.00  0.00    +0.000 HD
ENDBRANCH  18  20
BRANCH  19  22
ATOM     22  O2* UNL     1      21.910  18.834   2.143  0.00  0.00    +0.000 OA
ATOM     23  H2* UNL     1      21.628  18.744   3.076  0.00  0.00    +0.000 HD
ENDBRANCH  19  22
BRANCH  17  24
ATOM     24  C5* UNL     1      25.174  22.256   1.185  0.00  0.00    +0.000 C 
BRANCH  24  25
ATOM     25  O5* UNL     1      26.356  22.844   1.036  0.00  0.00    +0.000 OA
ATOM     26  H5* UNL     1      26.252  23.728   0.641  0.00  0.00    +0.000 HD
ENDBRANCH  24  25
ENDBRANCH  17  24
ENDBRANCH   2  15
TORSDOF 5
ENDMDL
