MODEL 1
REMARK VINA RESULT:      -6.6      0.000      0.000
REMARK  Name = Trichostatin_A.pdbqt.pdb
REMARK  6 active torsions:
REMARK  status: ('A' for Active; 'I' for Inactive)
REMARK    1  A    between atoms: C_1  and  C_15
REMARK    2  A    between atoms: C_4  and  C_6
REMARK    3  A    between atoms: C_7  and  C_10
REMARK    4  A    between atoms: N_9  and  O_12
REMARK    5  A    between atoms: C_15  and  C_16
REMARK    6  A    between atoms: C_17  and  N_22
REMARK                            x       y       z     vdW  Elec       q    Type
REMARK                         _______ _______ _______ _____ _____    ______ ____
ROOT
ATOM      1  C   UNL     1      47.704  -3.363  15.016  0.00  0.00    +0.000 C 
ATOM      2  C   UNL     1      48.028  -3.459  16.493  0.00  0.00    +0.000 C 
ATOM      3  C   UNL     1      46.985  -2.212  14.614  0.00  0.00    +0.000 C 
ATOM      4  C   UNL     1      46.325  -1.183  14.196  0.00  0.00    +0.000 C 
ATOM      5  C   UNL     1      47.065  -0.020  13.610  0.00  0.00    +0.000 C 
ENDROOT
BRANCH   4   6
ATOM      6  C   UNL     1      44.915  -1.234  14.105  0.00  0.00    +0.000 C 
ATOM      7  C   UNL     1      43.716  -1.276  14.032  0.00  0.00    +0.000 C 
BRANCH   7  10
ATOM      8  O   UNL     1      41.676  -2.344  14.238  0.00  0.00    +0.000 OA
ATOM      9  N   UNL     1      41.669  -0.180  13.499  0.00  0.00    +0.000 N 
ATOM     10  C   UNL     1      42.280  -1.321  13.937  0.00  0.00    +0.000 C 
ATOM     11  H   UNL     1      42.154   0.671  13.239  0.00  0.00    +0.000 HD
BRANCH   9  12
ATOM     12  O   UNL     1      40.263  -0.193  13.385  0.00  0.00    +0.000 OA
ATOM     13  H   UNL     1      39.982   0.442  14.079  0.00  0.00    +0.000 HD
ENDBRANCH   9  12
ENDBRANCH   7  10
ENDBRANCH   4   6
BRANCH   1  15
ATOM     14  O   UNL     1      48.946  -5.061  13.912  0.00  0.00    +0.000 OA
ATOM     15  C   UNL     1      47.859  -4.502  14.061  0.00  0.00    +0.000 C 
BRANCH  15  16
ATOM     16  C   UNL     1      46.699  -4.987  13.285  0.00  0.00    +0.000 A 
ATOM     17  C   UNL     1      44.560  -6.081  11.790  0.00  0.00    +0.000 A 
ATOM     18  C   UNL     1      45.419  -5.034  13.828  0.00  0.00    +0.000 A 
ATOM     19  C   UNL     1      46.927  -5.508  12.014  0.00  0.00    +0.000 A 
ATOM     20  C   UNL     1      44.367  -5.563  13.081  0.00  0.00    +0.000 A 
ATOM     21  C   UNL     1      45.865  -6.033  11.277  0.00  0.00    +0.000 A 
BRANCH  17  22
ATOM     22  N   UNL     1      43.482  -6.600  11.031  0.00  0.00    +0.000 N 
ATOM     23  C   UNL     1      42.446  -7.406  11.656  0.00  0.00    +0.000 C 
ATOM     24  C   UNL     1      43.579  -6.733   9.586  0.00  0.00    +0.000 C 
ENDBRANCH  17  22
ENDBRANCH  15  16
ENDBRANCH   1  15
TORSDOF 6
ENDMDL
MODEL 2
REMARK VINA RESULT:      -6.4     34.020     36.165
REMARK  Name = Trichostatin_A.pdbqt.pdb
REMARK  6 active torsions:
REMARK  status: ('A' for Active; 'I' for Inactive)
REMARK    1  A    between atoms: C_1  and  C_15
REMARK    2  A    between atoms: C_4  and  C_6
REMARK    3  A    between atoms: C_7  and  C_10
REMARK    4  A    between atoms: N_9  and  O_12
REMARK    5  A    between atoms: C_15  and  C_16
REMARK    6  A    between atoms: C_17  and  N_22
REMARK                            x       y       z     vdW  Elec       q    Type
REMARK                         _______ _______ _______ _____ _____    ______ ____
ROOT
ATOM      1  C   UNL     1      23.624  22.840  -0.668  0.00  0.00    +0.000 C 
ATOM      2  C   UNL     1      24.517  23.703  -1.536  0.00  0.00    +0.000 C 
ATOM      3  C   UNL     1      22.762  23.534   0.215  0.00  0.00    +0.000 C 
ATOM      4  C   UNL     1      21.960  24.119   1.043  0.00  0.00    +0.000 C 
ATOM      5  C   UNL     1      20.533  24.348   0.651  0.00  0.00    +0.000 C 
ENDROOT
BRANCH   4   6
ATOM      6  C   UNL     1      22.368  24.358   2.376  0.00  0.00    +0.000 C 
ATOM      7  C   UNL     1      22.712  24.565   3.509  0.00  0.00    +0.000 C 
BRANCH   7  10
ATOM      8  O   UNL     1      22.917  25.894   5.389  0.00  0.00    +0.000 OA
ATOM      9  N   UNL     1      23.736  23.762   5.503  0.00  0.00    +0.000 N 
ATOM     10  C   UNL     1      23.122  24.804   4.867  0.00  0.00    +0.000 C 
ATOM     11  H   UNL     1      23.920  22.858   5.085  0.00  0.00    +0.000 HD
BRANCH   9  12
ATOM     12  O   UNL     1      24.160  23.965   6.833  0.00  0.00    +0.000 OA
ATOM     13  H   UNL     1      25.136  24.028   6.744  0.00  0.00    +0.000 HD
ENDBRANCH   9  12
ENDBRANCH   7  10
ENDBRANCH   4   6
BRANCH   1  15
ATOM     14  O   UNL     1      24.651  20.756  -1.161  0.00  0.00    +0.000 OA
ATOM     15  C   UNL     1      23.800  21.364  -0.512  0.00  0.00    +0.000 C 
BRANCH  15  16
ATOM     16  C   UNL     1      22.959  20.610   0.440  0.00  0.00    +0.000 A 
ATOM     17  C   UNL     1      21.350  19.313   2.373  0.00  0.00    +0.000 A 
ATOM     18  C   UNL     1      21.679  20.179   0.108  0.00  0.00    +0.000 A 
ATOM     19  C   UNL     1      23.433  20.425   1.736  0.00  0.00    +0.000 A 
ATOM     20  C   UNL     1      20.895  19.529   1.062  0.00  0.00    +0.000 A 
ATOM     21  C   UNL     1      22.640  19.773   2.681  0.00  0.00    +0.000 A 
BRANCH  17  22
ATOM     22  N   UNL     1      20.555  18.636   3.331  0.00  0.00    +0.000 N 
ATOM     23  C   UNL     1      19.106  18.747   3.314  0.00  0.00    +0.000 C 
ATOM     24  C   UNL     1      21.124  18.181   4.590  0.00  0.00    +0.000 C 
ENDBRANCH  17  22
ENDBRANCH  15  16
ENDBRANCH   1  15
TORSDOF 6
ENDMDL
MODEL 3
REMARK VINA RESULT:      -6.3      2.177      2.607
REMARK  Name = Trichostatin_A.pdbqt.pdb
REMARK  6 active torsions:
REMARK  status: ('A' for Active; 'I' for Inactive)
REMARK    1  A    between atoms: C_1  and  C_15
REMARK    2  A    between atoms: C_4  and  C_6
REMARK    3  A    between atoms: C_7  and  C_10
REMARK    4  A    between atoms: N_9  and  O_12
REMARK    5  A    between atoms: C_15  and  C_16
REMARK    6  A    between atoms: C_17  and  N_22
REMARK                            x       y       z     vdW  Elec       q    Type
REMARK                         _______ _______ _______ _____ _____    ______ ____
ROOT
ATOM      1  C   UNL     1      48.886  -3.116  12.477  0.00  0.00    +0.000 C 
ATOM      2  C   UNL     1      50.002  -2.320  13.122  0.00  0.00    +0.000 C 
ATOM      3  C   UNL     1      48.008  -2.385  11.641  0.00  0.00    +0.000 C 
ATOM      4  C   UNL     1      47.174  -1.764  10.874  0.00  0.00    +0.000 C 
ATOM      5  C   UNL     1      47.383  -1.781   9.391  0.00  0.00    +0.000 C 
ENDROOT
BRANCH   4   6
ATOM      6  C   UNL     1      45.972  -1.244  11.406  0.00  0.00    +0.000 C 
ATOM      7  C   UNL     1      44.951  -0.799  11.858  0.00  0.00    +0.000 C 
BRANCH   7  10
ATOM      8  O   UNL     1      43.733   0.777  13.031  0.00  0.00    +0.000 OA
ATOM      9  N   UNL     1      42.595  -0.998  12.145  0.00  0.00    +0.000 N 
ATOM     10  C   UNL     1      43.724  -0.269  12.393  0.00  0.00    +0.000 C 
ATOM     11  H   UNL     1      42.571  -1.867  11.626  0.00  0.00    +0.000 HD
BRANCH   9  12
ATOM     12  O   UNL     1      41.376  -0.512  12.663  0.00  0.00    +0.000 OA
ATOM     13  H   UNL     1      41.622   0.374  13.007  0.00  0.00    +0.000 HD
ENDBRANCH   9  12
ENDBRANCH   7  10
ENDBRANCH   4   6
BRANCH   1  15
ATOM     14  O   UNL     1      49.374  -5.278  13.330  0.00  0.00    +0.000 OA
ATOM     15  C   UNL     1      48.525  -4.509  12.881  0.00  0.00    +0.000 C 
BRANCH  15  16
ATOM     16  C   UNL     1      47.131  -4.982  12.758  0.00  0.00    +0.000 A 
ATOM     17  C   UNL     1      44.407  -5.714  12.528  0.00  0.00    +0.000 A 
ATOM     18  C   UNL     1      46.684  -5.669  11.634  0.00  0.00    +0.000 A 
ATOM     19  C   UNL     1      46.225  -4.632  13.756  0.00  0.00    +0.000 A 
ATOM     20  C   UNL     1      45.343  -6.038  11.533  0.00  0.00    +0.000 A 
ATOM     21  C   UNL     1      44.886  -5.007  13.643  0.00  0.00    +0.000 A 
BRANCH  17  22
ATOM     22  N   UNL     1      43.049  -6.108  12.426  0.00  0.00    +0.000 N 
ATOM     23  C   UNL     1      42.029  -5.496  13.262  0.00  0.00    +0.000 C 
ATOM     24  C   UNL     1      42.682  -7.386  11.839  0.00  0.00    +0.000 C 
ENDBRANCH  17  22
ENDBRANCH  15  16
ENDBRANCH   1  15
TORSDOF 6
ENDMDL
MODEL 4
REMARK VINA RESULT:      -5.8     33.084     35.197
REMARK  Name = Trichostatin_A.pdbqt.pdb
REMARK  6 active torsions:
REMARK  status: ('A' for Active; 'I' for Inactive)
REMARK    1  A    between atoms: C_1  and  C_15
REMARK    2  A    between atoms: C_4  and  C_6
REMARK    3  A    between atoms: C_7  and  C_10
REMARK    4  A    between atoms: N_9  and  O_12
REMARK    5  A    between atoms: C_15  and  C_16
REMARK    6  A    between atoms: C_17  and  N_22
REMARK                            x       y       z     vdW  Elec       q    Type
REMARK                         _______ _______ _______ _____ _____    ______ ____
ROOT
ATOM      1  C   UNL     1      14.589   1.904  27.482  0.00  0.00    +0.000 C 
ATOM      2  C   UNL     1      13.446   0.920  27.628  0.00  0.00    +0.000 C 
ATOM      3  C   UNL     1      15.386   2.101  28.635  0.00  0.00    +0.000 C 
ATOM      4  C   UNL     1      16.141   2.322  29.660  0.00  0.00    +0.000 C 
ATOM      5  C   UNL     1      17.438   1.584  29.793  0.00  0.00    +0.000 C 
ENDROOT
BRANCH   4   6
ATOM      6  C   UNL     1      15.848   3.388  30.541  0.00  0.00    +0.000 C 
ATOM      7  C   UNL     1      15.597   4.292  31.292  0.00  0.00    +0.000 C 
BRANCH   7  10
ATOM      8  O   UNL     1      14.147   5.746  32.355  0.00  0.00    +0.000 OA
ATOM      9  N   UNL     1      16.377   5.942  32.823  0.00  0.00    +0.000 N 
ATOM     10  C   UNL     1      15.304   5.377  32.192  0.00  0.00    +0.000 C 
ATOM     11  H   UNL     1      17.340   5.654  32.694  0.00  0.00    +0.000 HD
BRANCH   9  12
ATOM     12  O   UNL     1      16.127   7.014  33.705  0.00  0.00    +0.000 OA
ATOM     13  H   UNL     1      15.849   7.735  33.099  0.00  0.00    +0.000 HD
ENDBRANCH   9  12
ENDBRANCH   7  10
ENDBRANCH   4   6
BRANCH   1  15
ATOM     14  O   UNL     1      14.978   2.405  25.193  0.00  0.00    +0.000 OA
ATOM     15  C   UNL     1      14.735   2.834  26.321  0.00  0.00    +0.000 C 
BRANCH  15  16
ATOM     16  C   UNL     1      14.576   4.290  26.508  0.00  0.00    +0.000 A 
ATOM     17  C   UNL     1      14.274   7.099  26.684  0.00  0.00    +0.000 A 
ATOM     18  C   UNL     1      13.446   4.836  27.109  0.00  0.00    +0.000 A 
ATOM     19  C   UNL     1      15.544   5.134  25.969  0.00  0.00    +0.000 A 
ATOM     20  C   UNL     1      13.309   6.221  27.203  0.00  0.00    +0.000 A 
ATOM     21  C   UNL     1      15.396   6.518  26.070  0.00  0.00    +0.000 A 
BRANCH  17  22
ATOM     22  N   UNL     1      14.137   8.505  26.799  0.00  0.00    +0.000 N 
ATOM     23  C   UNL     1      14.574   9.389  25.731  0.00  0.00    +0.000 C 
ATOM     24  C   UNL     1      13.978   9.138  28.098  0.00  0.00    +0.000 C 
ENDBRANCH  17  22
ENDBRANCH  15  16
ENDBRANCH   1  15
TORSDOF 6
ENDMDL
MODEL 5
REMARK VINA RESULT:      -5.8      3.284      4.130
REMARK  Name = Trichostatin_A.pdbqt.pdb
REMARK  6 active torsions:
REMARK  status: ('A' for Active; 'I' for Inactive)
REMARK    1  A    between atoms: C_1  and  C_15
REMARK    2  A    between atoms: C_4  and  C_6
REMARK    3  A    between atoms: C_7  and  C_10
REMARK    4  A    between atoms: N_9  and  O_12
REMARK    5  A    between atoms: C_15  and  C_16
REMARK    6  A    between atoms: C_17  and  N_22
REMARK                            x       y       z     vdW  Elec       q    Type
REMARK                         _______ _______ _______ _____ _____    ______ ____
ROOT
ATOM      1  C   UNL     1      45.270  -1.445  14.081  0.00  0.00    +0.000 C 
ATOM      2  C   UNL     1      46.491  -2.054  14.738  0.00  0.00    +0.000 C 
ATOM      3  C   UNL     1      45.332  -0.053  13.828  0.00  0.00    +0.000 C 
ATOM      4  C   UNL     1      45.336   1.215  13.582  0.00  0.00    +0.000 C 
ATOM      5  C   UNL     1      45.710   1.700  12.214  0.00  0.00    +0.000 C 
ENDROOT
BRANCH   4   6
ATOM      6  C   UNL     1      44.803   2.123  14.525  0.00  0.00    +0.000 C 
ATOM      7  C   UNL     1      44.351   2.898  15.326  0.00  0.00    +0.000 C 
BRANCH   7  10
ATOM      8  O   UNL     1      43.918   5.031  16.105  0.00  0.00    +0.000 OA
ATOM      9  N   UNL     1      43.171   3.271  17.360  0.00  0.00    +0.000 N 
ATOM     10  C   UNL     1      43.803   3.823  16.282  0.00  0.00    +0.000 C 
ATOM     11  H   UNL     1      43.073   2.276  17.525  0.00  0.00    +0.000 HD
BRANCH   9  12
ATOM     12  O   UNL     1      42.630   4.150  18.322  0.00  0.00    +0.000 OA
ATOM     13  H   UNL     1      43.426   4.600  18.679  0.00  0.00    +0.000 HD
ENDBRANCH   9  12
ENDBRANCH   7  10
ENDBRANCH   4   6
BRANCH   1  15
ATOM     14  O   UNL     1      43.036  -1.931  14.727  0.00  0.00    +0.000 OA
ATOM     15  C   UNL     1      43.962  -2.156  13.948  0.00  0.00    +0.000 C 
BRANCH  15  16
ATOM     16  C   UNL     1      43.755  -3.138  12.864  0.00  0.00    +0.000 A 
ATOM     17  C   UNL     1      43.503  -4.946  10.702  0.00  0.00    +0.000 A 
ATOM     18  C   UNL     1      43.870  -4.507  13.081  0.00  0.00    +0.000 A 
ATOM     19  C   UNL     1      43.545  -2.661  11.573  0.00  0.00    +0.000 A 
ATOM     20  C   UNL     1      43.732  -5.394  12.012  0.00  0.00    +0.000 A 
ATOM     21  C   UNL     1      43.408  -3.558  10.513  0.00  0.00    +0.000 A 
BRANCH  17  22
ATOM     22  N   UNL     1      43.347  -5.853   9.624  0.00  0.00    +0.000 N 
ATOM     23  C   UNL     1      42.059  -6.466   9.343  0.00  0.00    +0.000 C 
ATOM     24  C   UNL     1      44.494  -6.536   9.047  0.00  0.00    +0.000 C 
ENDBRANCH  17  22
ENDBRANCH  15  16
ENDBRANCH   1  15
TORSDOF 6
ENDMDL
MODEL 6
REMARK VINA RESULT:      -5.8     16.888     20.191
REMARK  Name = Trichostatin_A.pdbqt.pdb
REMARK  6 active torsions:
REMARK  status: ('A' for Active; 'I' for Inactive)
REMARK    1  A    between atoms: C_1  and  C_15
REMARK    2  A    between atoms: C_4  and  C_6
REMARK    3  A    between atoms: C_7  and  C_10
REMARK    4  A    between atoms: N_9  and  O_12
REMARK    5  A    between atoms: C_15  and  C_16
REMARK    6  A    between atoms: C_17  and  N_22
REMARK                            x       y       z     vdW  Elec       q    Type
REMARK                         _______ _______ _______ _____ _____    ______ ____
ROOT
ATOM      1  C   UNL     1      40.913  12.977  19.841  0.00  0.00    +0.000 C 
ATOM      2  C   UNL     1      42.193  12.498  19.186  0.00  0.00    +0.000 C 
ATOM      3  C   UNL     1      40.187  12.001  20.566  0.00  0.00    +0.000 C 
ATOM      4  C   UNL     1      39.483  11.148  21.234  0.00  0.00    +0.000 C 
ATOM      5  C   UNL     1      39.639  11.067  22.722  0.00  0.00    +0.000 C 
ENDROOT
BRANCH   4   6
ATOM      6  C   UNL     1      38.436  10.440  20.599  0.00  0.00    +0.000 C 
ATOM      7  C   UNL     1      37.545   9.837  20.063  0.00  0.00    +0.000 C 
BRANCH   7  10
ATOM      8  O   UNL     1      36.290   9.246  18.214  0.00  0.00    +0.000 OA
ATOM      9  N   UNL     1      35.711   8.326  20.226  0.00  0.00    +0.000 N 
ATOM     10  C   UNL     1      36.476   9.122  19.419  0.00  0.00    +0.000 C 
ATOM     11  H   UNL     1      35.846   8.218  21.224  0.00  0.00    +0.000 HD
BRANCH   9  12
ATOM     12  O   UNL     1      34.647   7.618  19.628  0.00  0.00    +0.000 OA
ATOM     13  H   UNL     1      34.019   8.332  19.385  0.00  0.00    +0.000 HD
ENDBRANCH   9  12
ENDBRANCH   7  10
ENDBRANCH   4   6
BRANCH   1  15
ATOM     14  O   UNL     1      39.049  14.420  19.549  0.00  0.00    +0.000 OA
ATOM     15  C   UNL     1      40.274  14.294  19.542  0.00  0.00    +0.000 C 
BRANCH  15  16
ATOM     16  C   UNL     1      41.108  15.476  19.244  0.00  0.00    +0.000 A 
ATOM     17  C   UNL     1      42.842  17.662  18.768  0.00  0.00    +0.000 A 
ATOM     18  C   UNL     1      41.473  15.809  17.943  0.00  0.00    +0.000 A 
ATOM     19  C   UNL     1      41.624  16.206  20.311  0.00  0.00    +0.000 A 
ATOM     20  C   UNL     1      42.318  16.895  17.715  0.00  0.00    +0.000 A 
ATOM     21  C   UNL     1      42.467  17.291  20.070  0.00  0.00    +0.000 A 
BRANCH  17  22
ATOM     22  N   UNL     1      43.685  18.775  18.528  0.00  0.00    +0.000 N 
ATOM     23  C   UNL     1      44.396  19.424  19.617  0.00  0.00    +0.000 C 
ATOM     24  C   UNL     1      43.549  19.571  17.319  0.00  0.00    +0.000 C 
ENDBRANCH  17  22
ENDBRANCH  15  16
ENDBRANCH   1  15
TORSDOF 6
ENDMDL
MODEL 7
REMARK VINA RESULT:      -5.7     33.913     35.379
REMARK  Name = Trichostatin_A.pdbqt.pdb
REMARK  6 active torsions:
REMARK  status: ('A' for Active; 'I' for Inactive)
REMARK    1  A    between atoms: C_1  and  C_15
REMARK    2  A    between atoms: C_4  and  C_6
REMARK    3  A    between atoms: C_7  and  C_10
REMARK    4  A    between atoms: N_9  and  O_12
REMARK    5  A    between atoms: C_15  and  C_16
REMARK    6  A    between atoms: C_17  and  N_22
REMARK                            x       y       z     vdW  Elec       q    Type
REMARK                         _______ _______ _______ _____ _____    ______ ____
ROOT
ATOM      1  C   UNL     1      20.907  14.968  32.048  0.00  0.00    +0.000 C 
ATOM      2  C   UNL     1      19.489  15.163  31.553  0.00  0.00    +0.000 C 
ATOM      3  C   UNL     1      21.592  16.142  32.443  0.00  0.00    +0.000 C 
ATOM      4  C   UNL     1      22.263  17.184  32.809  0.00  0.00    +0.000 C 
ATOM      5  C   UNL     1      22.326  17.548  34.261  0.00  0.00    +0.000 C 
ENDROOT
BRANCH   4   6
ATOM      6  C   UNL     1      23.092  17.856  31.882  0.00  0.00    +0.000 C 
ATOM      7  C   UNL     1      23.797  18.430  31.096  0.00  0.00    +0.000 C 
BRANCH   7  10
ATOM      8  O   UNL     1      25.862  18.960  30.201  0.00  0.00    +0.000 OA
ATOM      9  N   UNL     1      24.016  19.911  29.244  0.00  0.00    +0.000 N 
ATOM     10  C   UNL     1      24.646  19.112  30.155  0.00  0.00    +0.000 C 
ATOM     11  H   UNL     1      23.014  20.054  29.197  0.00  0.00    +0.000 HD
BRANCH   9  12
ATOM     12  O   UNL     1      24.819  20.602  28.312  0.00  0.00    +0.000 OA
ATOM     13  H   UNL     1      24.429  21.503  28.313  0.00  0.00    +0.000 HD
ENDBRANCH   9  12
ENDBRANCH   7  10
ENDBRANCH   4   6
BRANCH   1  15
ATOM     14  O   UNL     1      22.224  13.417  30.822  0.00  0.00    +0.000 OA
ATOM     15  C   UNL     1      21.670  13.693  31.886  0.00  0.00    +0.000 C 
BRANCH  15  16
ATOM     16  C   UNL     1      21.784  12.744  33.012  0.00  0.00    +0.000 A 
ATOM     17  C   UNL     1      21.864  10.828  35.094  0.00  0.00    +0.000 A 
ATOM     18  C   UNL     1      22.938  11.999  33.233  0.00  0.00    +0.000 A 
ATOM     19  C   UNL     1      20.659  12.520  33.803  0.00  0.00    +0.000 A 
ATOM     20  C   UNL     1      22.975  11.066  34.269  0.00  0.00    +0.000 A 
ATOM     21  C   UNL     1      20.710  11.584  34.836  0.00  0.00    +0.000 A 
BRANCH  17  22
ATOM     22  N   UNL     1      21.916   9.891  36.155  0.00  0.00    +0.000 N 
ATOM     23  C   UNL     1      22.563   8.600  35.983  0.00  0.00    +0.000 C 
ATOM     24  C   UNL     1      20.987   9.971  37.271  0.00  0.00    +0.000 C 
ENDBRANCH  17  22
ENDBRANCH  15  16
ENDBRANCH   1  15
TORSDOF 6
ENDMDL
MODEL 8
REMARK VINA RESULT:      -5.7     33.489     36.825
REMARK  Name = Trichostatin_A.pdbqt.pdb
REMARK  6 active torsions:
REMARK  status: ('A' for Active; 'I' for Inactive)
REMARK    1  A    between atoms: C_1  and  C_15
REMARK    2  A    between atoms: C_4  and  C_6
REMARK    3  A    between atoms: C_7  and  C_10
REMARK    4  A    between atoms: N_9  and  O_12
REMARK    5  A    between atoms: C_15  and  C_16
REMARK    6  A    between atoms: C_17  and  N_22
REMARK                            x       y       z     vdW  Elec       q    Type
REMARK                         _______ _______ _______ _____ _____    ______ ____
ROOT
ATOM      1  C   UNL     1      11.279   7.918  30.635  0.00  0.00    +0.000 C 
ATOM      2  C   UNL     1       9.877   8.365  30.272  0.00  0.00    +0.000 C 
ATOM      3  C   UNL     1      12.334   8.593  29.976  0.00  0.00    +0.000 C 
ATOM      4  C   UNL     1      13.333   9.173  29.397  0.00  0.00    +0.000 C 
ATOM      5  C   UNL     1      14.037  10.298  30.093  0.00  0.00    +0.000 C 
ENDROOT
BRANCH   4   6
ATOM      6  C   UNL     1      13.883   8.627  28.215  0.00  0.00    +0.000 C 
ATOM      7  C   UNL     1      14.352   8.159  27.212  0.00  0.00    +0.000 C 
BRANCH   7  10
ATOM      8  O   UNL     1      15.234   8.332  25.082  0.00  0.00    +0.000 OA
ATOM      9  N   UNL     1      15.031   6.238  25.979  0.00  0.00    +0.000 N 
ATOM     10  C   UNL     1      14.906   7.599  26.008  0.00  0.00    +0.000 C 
ATOM     11  H   UNL     1      14.759   5.617  26.732  0.00  0.00    +0.000 HD
BRANCH   9  12
ATOM     12  O   UNL     1      15.563   5.654  24.810  0.00  0.00    +0.000 OA
ATOM     13  H   UNL     1      15.286   4.715  24.890  0.00  0.00    +0.000 HD
ENDBRANCH   9  12
ENDBRANCH   7  10
ENDBRANCH   4   6
BRANCH   1  15
ATOM     14  O   UNL     1      10.958   6.410  32.443  0.00  0.00    +0.000 OA
ATOM     15  C   UNL     1      11.574   6.675  31.410  0.00  0.00    +0.000 C 
BRANCH  15  16
ATOM     16  C   UNL     1      12.609   5.731  30.939  0.00  0.00    +0.000 A 
ATOM     17  C   UNL     1      14.606   4.026  29.885  0.00  0.00    +0.000 A 
ATOM     18  C   UNL     1      13.812   5.561  31.617  0.00  0.00    +0.000 A 
ATOM     19  C   UNL     1      12.405   5.081  29.725  0.00  0.00    +0.000 A 
ATOM     20  C   UNL     1      14.787   4.709  31.098  0.00  0.00    +0.000 A 
ATOM     21  C   UNL     1      13.388   4.232  29.217  0.00  0.00    +0.000 A 
BRANCH  17  22
ATOM     22  N   UNL     1      15.594   3.149  29.373  0.00  0.00    +0.000 N 
ATOM     23  C   UNL     1      16.583   2.543  30.250  0.00  0.00    +0.000 C 
ATOM     24  C   UNL     1      15.942   3.154  27.961  0.00  0.00    +0.000 C 
ENDBRANCH  17  22
ENDBRANCH  15  16
ENDBRANCH   1  15
TORSDOF 6
ENDMDL
MODEL 9
REMARK VINA RESULT:      -5.7     35.067     36.681
REMARK  Name = Trichostatin_A.pdbqt.pdb
REMARK  6 active torsions:
REMARK  status: ('A' for Active; 'I' for Inactive)
REMARK    1  A    between atoms: C_1  and  C_15
REMARK    2  A    between atoms: C_4  and  C_6
REMARK    3  A    between atoms: C_7  and  C_10
REMARK    4  A    between atoms: N_9  and  O_12
REMARK    5  A    between atoms: C_15  and  C_16
REMARK    6  A    between atoms: C_17  and  N_22
REMARK                            x       y       z     vdW  Elec       q    Type
REMARK                         _______ _______ _______ _____ _____    ______ ____
ROOT
ATOM      1  C   UNL     1      22.816  22.339   0.863  0.00  0.00    +0.000 C 
ATOM      2  C   UNL     1      22.156  23.418   0.028  0.00  0.00    +0.000 C 
ATOM      3  C   UNL     1      22.062  21.156   1.052  0.00  0.00    +0.000 C 
ATOM      4  C   UNL     1      21.413  20.059   1.261  0.00  0.00    +0.000 C 
ATOM      5  C   UNL     1      21.681  18.867   0.393  0.00  0.00    +0.000 C 
ENDROOT
BRANCH   4   6
ATOM      6  C   UNL     1      20.608  19.918   2.415  0.00  0.00    +0.000 C 
ATOM      7  C   UNL     1      19.921  19.798   3.394  0.00  0.00    +0.000 C 
BRANCH   7  10
ATOM      8  O   UNL     1      18.606  20.633   5.102  0.00  0.00    +0.000 OA
ATOM      9  N   UNL     1      18.934  18.371   5.025  0.00  0.00    +0.000 N 
ATOM     10  C   UNL     1      19.104  19.648   4.569  0.00  0.00    +0.000 C 
ATOM     11  H   UNL     1      19.344  17.547   4.601  0.00  0.00    +0.000 HD
BRANCH   9  12
ATOM     12  O   UNL     1      18.146  18.188   6.181  0.00  0.00    +0.000 OA
ATOM     13  H   UNL     1      18.704  18.575   6.889  0.00  0.00    +0.000 HD
ENDBRANCH   9  12
ENDBRANCH   7  10
ENDBRANCH   4   6
BRANCH   1  15
ATOM     14  O   UNL     1      25.051  21.875   1.520  0.00  0.00    +0.000 OA
ATOM     15  C   UNL     1      24.044  22.565   1.683  0.00  0.00    +0.000 C 
BRANCH  15  16
ATOM     16  C   UNL     1      24.075  23.636   2.700  0.00  0.00    +0.000 A 
ATOM     17  C   UNL     1      24.115  25.810   4.512  0.00  0.00    +0.000 A 
ATOM     18  C   UNL     1      23.096  23.746   3.682  0.00  0.00    +0.000 A 
ATOM     19  C   UNL     1      25.058  24.617   2.595  0.00  0.00    +0.000 A 
ATOM     20  C   UNL     1      23.128  24.813   4.580  0.00  0.00    +0.000 A 
ATOM     21  C   UNL     1      25.080  25.679   3.500  0.00  0.00    +0.000 A 
BRANCH  17  22
ATOM     22  N   UNL     1      24.152  26.881   5.439  0.00  0.00    +0.000 N 
ATOM     23  C   UNL     1      23.244  26.920   6.573  0.00  0.00    +0.000 C 
ATOM     24  C   UNL     1      24.753  28.157   5.085  0.00  0.00    +0.000 C 
ENDBRANCH  17  22
ENDBRANCH  15  16
ENDBRANCH   1  15
TORSDOF 6
ENDMDL
