REMARK  Name = Trifluridine.pdbqt.pdb
REMARK  5 active torsions:
REMARK  status: ('A' for Active; 'I' for Inactive)
REMARK    1  A    between atoms: N_3  and  C1*_10
REMARK    2  A    between atoms: C_7  and  C_20
REMARK    3  A    between atoms: C4*_12  and  C5*_15
REMARK    4  A    between atoms: C3*_13  and  O3*_18
REMARK    5  A    between atoms: C5*_15  and  O5*_16
REMARK                            x       y       z     vdW  Elec       q    Type
REMARK                         _______ _______ _______ _____ _____    ______ ____
ROOT
ATOM      1  O   UNL     1       0.392  -3.092  -0.295  0.00  0.00    +0.000 OA
ATOM      2  O   UNL     1      -4.007  -1.805  -0.063  0.00  0.00    +0.000 OA
ATOM      3  N   UNL     1      -0.080  -0.794   0.031  0.00  0.00    +0.000 N 
ATOM      4  N   UNL     1      -1.789  -2.388  -0.162  0.00  0.00    +0.000 N 
ATOM      5  C   UNL     1      -1.119   0.054   0.163  0.00  0.00    +0.000 A 
ATOM      6  C   UNL     1      -0.392  -2.161  -0.152  0.00  0.00    +0.000 A 
ATOM      7  C   UNL     1      -2.406  -0.055   0.163  0.00  0.00    +0.000 A 
ATOM      8  C   UNL     1      -2.833  -1.464  -0.026  0.00  0.00    +0.000 A 
ATOM      9  H   UNL     1      -2.065  -3.351  -0.292  0.00  0.00    +0.000 HD
ENDROOT
BRANCH   3  10
ATOM     10  C1* UNL     1       1.192  -0.300   0.073  0.00  0.00    +0.000 A 
ATOM     11  O4* UNL     1       1.454   1.065   0.236  0.00  0.00    +0.000 OA
ATOM     12  C4* UNL     1       2.846   1.219   0.207  0.00  0.00    +0.000 A 
ATOM     13  C3* UNL     1       3.459  -0.073   0.026  0.00  0.00    +0.000 A 
ATOM     14  C2* UNL     1       2.406  -1.001  -0.064  0.00  0.00    +0.000 A 
BRANCH  13  15
ATOM     15  O3* UNL     1       4.651  -0.200  -0.629  0.00  0.00    +0.000 OA
ATOM     16  H3* UNL     1       4.804  -1.122  -0.900  0.00  0.00    +0.000 HD
ENDBRANCH  13  15
BRANCH  12  17
ATOM     17  C5* UNL     1       3.465   2.482   0.134  0.00  0.00    +0.000 C 
BRANCH  17  18
ATOM     18  O5* UNL     1       4.053   3.672   0.062  0.00  0.00    +0.000 OA
ATOM     19  H5* UNL     1       4.950   3.582  -0.301  0.00  0.00    +0.000 HD
ENDBRANCH  17  18
ENDBRANCH  12  17
ENDBRANCH   3  10
BRANCH   7  20
ATOM     20  C   UNL     1      -3.443   0.978   0.292  0.00  0.00    +0.000 C 
ATOM     21  F   UNL     1      -4.250   0.775   1.363  0.00  0.00    +0.000 F 
ATOM     22  F   UNL     1      -2.901   2.216   0.458  0.00  0.00    +0.000 F 
ATOM     23  F   UNL     1      -4.235   1.059  -0.806  0.00  0.00    +0.000 F 
ENDBRANCH   7  20
TORSDOF 5
