MODEL 1
REMARK VINA RESULT:      -6.7      0.000      0.000
REMARK  Name = Trifluridine.pdbqt.pdb
REMARK  5 active torsions:
REMARK  status: ('A' for Active; 'I' for Inactive)
REMARK    1  A    between atoms: N_3  and  C1*_10
REMARK    2  A    between atoms: C_7  and  C_20
REMARK    3  A    between atoms: C4*_12  and  C5*_15
REMARK    4  A    between atoms: C3*_13  and  O3*_18
REMARK    5  A    between atoms: C5*_15  and  O5*_16
REMARK                            x       y       z     vdW  Elec       q    Type
REMARK                         _______ _______ _______ _____ _____    ______ ____
ROOT
ATOM      1  O   UNL     1      45.249  -4.860  13.683  0.00  0.00    +0.000 OA
ATOM      2  O   UNL     1      43.596  -7.719  10.497  0.00  0.00    +0.000 OA
ATOM      3  N   UNL     1      43.636  -4.022  12.164  0.00  0.00    +0.000 N 
ATOM      4  N   UNL     1      44.379  -6.244  12.072  0.00  0.00    +0.000 N 
ATOM      5  C   UNL     1      42.883  -4.409  11.116  0.00  0.00    +0.000 A 
ATOM      6  C   UNL     1      44.485  -4.998  12.735  0.00  0.00    +0.000 A 
ATOM      7  C   UNL     1      42.723  -5.503  10.448  0.00  0.00    +0.000 A 
ATOM      8  C   UNL     1      43.580  -6.594  10.976  0.00  0.00    +0.000 A 
ATOM      9  H   UNL     1      44.968  -6.977  12.442  0.00  0.00    +0.000 HD
ENDROOT
BRANCH   3  10
ATOM     10  C1* UNL     1      43.548  -2.733  12.608  0.00  0.00    +0.000 A 
ATOM     11  O4* UNL     1      42.556  -2.322  13.504  0.00  0.00    +0.000 OA
ATOM     12  C4* UNL     1      42.744  -0.951  13.719  0.00  0.00    +0.000 A 
ATOM     13  C3* UNL     1      43.874  -0.504  12.945  0.00  0.00    +0.000 A 
ATOM     14  C2* UNL     1      44.352  -1.632  12.254  0.00  0.00    +0.000 A 
BRANCH  13  15
ATOM     15  O3* UNL     1      43.935   0.773  12.463  0.00  0.00    +0.000 OA
ATOM     16  H3* UNL     1      43.492   0.842  11.600  0.00  0.00    +0.000 HD
ENDBRANCH  13  15
BRANCH  12  17
ATOM     17  C5* UNL     1      41.803  -0.158  14.404  0.00  0.00    +0.000 C 
BRANCH  17  18
ATOM     18  O5* UNL     1      40.916   0.589  15.056  0.00  0.00    +0.000 OA
ATOM     19  H5* UNL     1      41.163   0.662  15.993  0.00  0.00    +0.000 HD
ENDBRANCH  17  18
ENDBRANCH  12  17
ENDBRANCH   3  10
BRANCH   7  20
ATOM     20  C   UNL     1      41.870  -5.785   9.285  0.00  0.00    +0.000 C 
ATOM     21  F   UNL     1      42.550  -6.380   8.273  0.00  0.00    +0.000 F 
ATOM     22  F   UNL     1      40.851  -6.630   9.602  0.00  0.00    +0.000 F 
ATOM     23  F   UNL     1      41.289  -4.667   8.784  0.00  0.00    +0.000 F 
ENDBRANCH   7  20
TORSDOF 5
ENDMDL
MODEL 2
REMARK VINA RESULT:      -6.7     16.216     18.005
REMARK  Name = Trifluridine.pdbqt.pdb
REMARK  5 active torsions:
REMARK  status: ('A' for Active; 'I' for Inactive)
REMARK    1  A    between atoms: N_3  and  C1*_10
REMARK    2  A    between atoms: C_7  and  C_20
REMARK    3  A    between atoms: C4*_12  and  C5*_15
REMARK    4  A    between atoms: C3*_13  and  O3*_18
REMARK    5  A    between atoms: C5*_15  and  O5*_16
REMARK                            x       y       z     vdW  Elec       q    Type
REMARK                         _______ _______ _______ _____ _____    ______ ____
ROOT
ATOM      1  O   UNL     1      37.926   8.449  18.331  0.00  0.00    +0.000 OA
ATOM      2  O   UNL     1      33.395   7.978  17.778  0.00  0.00    +0.000 OA
ATOM      3  N   UNL     1      36.502   9.942  19.494  0.00  0.00    +0.000 N 
ATOM      4  N   UNL     1      35.650   8.258  18.102  0.00  0.00    +0.000 N 
ATOM      5  C   UNL     1      35.195  10.219  19.672  0.00  0.00    +0.000 A 
ATOM      6  C   UNL     1      36.814   8.865  18.633  0.00  0.00    +0.000 A 
ATOM      7  C   UNL     1      34.080   9.734  19.236  0.00  0.00    +0.000 A 
ATOM      8  C   UNL     1      34.307   8.591  18.316  0.00  0.00    +0.000 A 
ATOM      9  H   UNL     1      35.819   7.482  17.477  0.00  0.00    +0.000 HD
ENDROOT
BRANCH   3  10
ATOM     10  C1* UNL     1      37.437  10.703  20.134  0.00  0.00    +0.000 A 
ATOM     11  O4* UNL     1      37.575  12.074  19.887  0.00  0.00    +0.000 OA
ATOM     12  C4* UNL     1      38.634  12.527  20.685  0.00  0.00    +0.000 A 
ATOM     13  C3* UNL     1      39.160  11.419  21.442  0.00  0.00    +0.000 A 
ATOM     14  C2* UNL     1      38.403  10.293  21.074  0.00  0.00    +0.000 A 
BRANCH  13  15
ATOM     15  O3* UNL     1      40.478  11.374  21.798  0.00  0.00    +0.000 OA
ATOM     16  H3* UNL     1      40.975  10.770  21.220  0.00  0.00    +0.000 HD
ENDBRANCH  13  15
BRANCH  12  17
ATOM     17  C5* UNL     1      39.191  13.813  20.542  0.00  0.00    +0.000 C 
BRANCH  17  18
ATOM     18  O5* UNL     1      39.718  15.026  20.412  0.00  0.00    +0.000 OA
ATOM     19  H5* UNL     1      40.678  14.962  20.272  0.00  0.00    +0.000 HD
ENDBRANCH  17  18
ENDBRANCH  12  17
ENDBRANCH   3  10
BRANCH   7  20
ATOM     20  C   UNL     1      32.698  10.159  19.495  0.00  0.00    +0.000 C 
ATOM     21  F   UNL     1      31.813   9.135  19.405  0.00  0.00    +0.000 F 
ATOM     22  F   UNL     1      32.556  10.669  20.750  0.00  0.00    +0.000 F 
ATOM     23  F   UNL     1      32.285  11.131  18.645  0.00  0.00    +0.000 F 
ENDBRANCH   7  20
TORSDOF 5
ENDMDL
MODEL 3
REMARK VINA RESULT:      -6.4      3.217      6.284
REMARK  Name = Trifluridine.pdbqt.pdb
REMARK  5 active torsions:
REMARK  status: ('A' for Active; 'I' for Inactive)
REMARK    1  A    between atoms: N_3  and  C1*_10
REMARK    2  A    between atoms: C_7  and  C_20
REMARK    3  A    between atoms: C4*_12  and  C5*_15
REMARK    4  A    between atoms: C3*_13  and  O3*_18
REMARK    5  A    between atoms: C5*_15  and  O5*_16
REMARK                            x       y       z     vdW  Elec       q    Type
REMARK                         _______ _______ _______ _____ _____    ______ ____
ROOT
ATOM      1  O   UNL     1      46.104  -4.791  13.552  0.00  0.00    +0.000 OA
ATOM      2  O   UNL     1      45.301  -0.422  14.704  0.00  0.00    +0.000 OA
ATOM      3  N   UNL     1      44.062  -3.813  12.855  0.00  0.00    +0.000 N 
ATOM      4  N   UNL     1      45.649  -2.606  14.091  0.00  0.00    +0.000 N 
ATOM      5  C   UNL     1      43.381  -2.652  12.920  0.00  0.00    +0.000 A 
ATOM      6  C   UNL     1      45.327  -3.845  13.488  0.00  0.00    +0.000 A 
ATOM      7  C   UNL     1      43.585  -1.488  13.441  0.00  0.00    +0.000 A 
ATOM      8  C   UNL     1      44.896  -1.425  14.134  0.00  0.00    +0.000 A 
ATOM      9  H   UNL     1      46.543  -2.578  14.559  0.00  0.00    +0.000 HD
ENDROOT
BRANCH   3  10
ATOM     10  C1* UNL     1      43.507  -4.876  12.203  0.00  0.00    +0.000 A 
ATOM     11  O4* UNL     1      43.809  -5.169  10.869  0.00  0.00    +0.000 OA
ATOM     12  C4* UNL     1      43.051  -6.294  10.518  0.00  0.00    +0.000 A 
ATOM     13  C3* UNL     1      42.268  -6.708  11.655  0.00  0.00    +0.000 A 
ATOM     14  C2* UNL     1      42.563  -5.802  12.689  0.00  0.00    +0.000 A 
BRANCH  13  15
ATOM     15  O3* UNL     1      41.055  -7.315  11.490  0.00  0.00    +0.000 OA
ATOM     16  H3* UNL     1      40.400  -6.962  12.117  0.00  0.00    +0.000 HD
ENDBRANCH  13  15
BRANCH  12  17
ATOM     17  C5* UNL     1      42.943  -6.747   9.189  0.00  0.00    +0.000 C 
BRANCH  17  18
ATOM     18  O5* UNL     1      42.842  -7.180   7.936  0.00  0.00    +0.000 OA
ATOM     19  H5* UNL     1      41.954  -6.994   7.586  0.00  0.00    +0.000 HD
ENDBRANCH  17  18
ENDBRANCH  12  17
ENDBRANCH   3  10
BRANCH   7  20
ATOM     20  C   UNL     1      42.727  -0.296  13.460  0.00  0.00    +0.000 C 
ATOM     21  F   UNL     1      42.456   0.131  14.718  0.00  0.00    +0.000 F 
ATOM     22  F   UNL     1      43.313   0.755  12.823  0.00  0.00    +0.000 F 
ATOM     23  F   UNL     1      41.541  -0.499  12.834  0.00  0.00    +0.000 F 
ENDBRANCH   7  20
TORSDOF 5
ENDMDL
MODEL 4
REMARK VINA RESULT:      -6.2     15.884     18.008
REMARK  Name = Trifluridine.pdbqt.pdb
REMARK  5 active torsions:
REMARK  status: ('A' for Active; 'I' for Inactive)
REMARK    1  A    between atoms: N_3  and  C1*_10
REMARK    2  A    between atoms: C_7  and  C_20
REMARK    3  A    between atoms: C4*_12  and  C5*_15
REMARK    4  A    between atoms: C3*_13  and  O3*_18
REMARK    5  A    between atoms: C5*_15  and  O5*_16
REMARK                            x       y       z     vdW  Elec       q    Type
REMARK                         _______ _______ _______ _____ _____    ______ ____
ROOT
ATOM      1  O   UNL     1      38.372   7.576  21.625  0.00  0.00    +0.000 OA
ATOM      2  O   UNL     1      40.112  11.604  22.970  0.00  0.00    +0.000 OA
ATOM      3  N   UNL     1      37.655   9.531  20.496  0.00  0.00    +0.000 N 
ATOM      4  N   UNL     1      39.213   9.620  22.247  0.00  0.00    +0.000 N 
ATOM      5  C   UNL     1      37.840  10.866  20.492  0.00  0.00    +0.000 A 
ATOM      6  C   UNL     1      38.391   8.789  21.449  0.00  0.00    +0.000 A 
ATOM      7  C   UNL     1      38.552  11.702  21.172  0.00  0.00    +0.000 A 
ATOM      8  C   UNL     1      39.364  11.012  22.205  0.00  0.00    +0.000 A 
ATOM      9  H   UNL     1      39.759   9.137  22.946  0.00  0.00    +0.000 HD
ENDROOT
BRANCH   3  10
ATOM     10  C1* UNL     1      36.782   8.977  19.605  0.00  0.00    +0.000 A 
ATOM     11  O4* UNL     1      37.198   8.497  18.358  0.00  0.00    +0.000 OA
ATOM     12  C4* UNL     1      36.053   8.028  17.700  0.00  0.00    +0.000 A 
ATOM     13  C3* UNL     1      34.908   8.218  18.554  0.00  0.00    +0.000 A 
ATOM     14  C2* UNL     1      35.388   8.819  19.731  0.00  0.00    +0.000 A 
BRANCH  13  15
ATOM     15  O3* UNL     1      33.668   8.445  18.028  0.00  0.00    +0.000 OA
ATOM     16  H3* UNL     1      32.987   7.943  18.509  0.00  0.00    +0.000 HD
ENDBRANCH  13  15
BRANCH  12  17
ATOM     17  C5* UNL     1      36.060   7.664  16.339  0.00  0.00    +0.000 C 
BRANCH  17  18
ATOM     18  O5* UNL     1      36.071   7.322  15.055  0.00  0.00    +0.000 OA
ATOM     19  H5* UNL     1      35.216   6.937  14.802  0.00  0.00    +0.000 HD
ENDBRANCH  17  18
ENDBRANCH  12  17
ENDBRANCH   3  10
BRANCH   7  20
ATOM     20  C   UNL     1      38.638  13.166  21.078  0.00  0.00    +0.000 C 
ATOM     21  F   UNL     1      38.056  13.791  22.132  0.00  0.00    +0.000 F 
ATOM     22  F   UNL     1      39.931  13.593  21.055  0.00  0.00    +0.000 F 
ATOM     23  F   UNL     1      38.064  13.649  19.949  0.00  0.00    +0.000 F 
ENDBRANCH   7  20
TORSDOF 5
ENDMDL
MODEL 5
REMARK VINA RESULT:      -5.8      2.259      3.008
REMARK  Name = Trifluridine.pdbqt.pdb
REMARK  5 active torsions:
REMARK  status: ('A' for Active; 'I' for Inactive)
REMARK    1  A    between atoms: N_3  and  C1*_10
REMARK    2  A    between atoms: C_7  and  C_20
REMARK    3  A    between atoms: C4*_12  and  C5*_15
REMARK    4  A    between atoms: C3*_13  and  O3*_18
REMARK    5  A    between atoms: C5*_15  and  O5*_16
REMARK                            x       y       z     vdW  Elec       q    Type
REMARK                         _______ _______ _______ _____ _____    ______ ____
ROOT
ATOM      1  O   UNL     1      46.058  -2.684  10.451  0.00  0.00    +0.000 OA
ATOM      2  O   UNL     1      44.358  -6.922  10.910  0.00  0.00    +0.000 OA
ATOM      3  N   UNL     1      44.141  -2.973  11.811  0.00  0.00    +0.000 N 
ATOM      4  N   UNL     1      45.166  -4.782  10.726  0.00  0.00    +0.000 N 
ATOM      5  C   UNL     1      43.303  -3.933  12.251  0.00  0.00    +0.000 A 
ATOM      6  C   UNL     1      45.194  -3.386  10.962  0.00  0.00    +0.000 A 
ATOM      7  C   UNL     1      43.195  -5.210  12.091  0.00  0.00    +0.000 A 
ATOM      8  C   UNL     1      44.263  -5.739  11.206  0.00  0.00    +0.000 A 
ATOM      9  H   UNL     1      45.899  -5.128  10.123  0.00  0.00    +0.000 HD
ENDROOT
BRANCH   3  10
ATOM     10  C1* UNL     1      43.932  -1.680  12.194  0.00  0.00    +0.000 A 
ATOM     11  O4* UNL     1      44.738  -0.630  11.738  0.00  0.00    +0.000 OA
ATOM     12  C4* UNL     1      44.263   0.541  12.344  0.00  0.00    +0.000 A 
ATOM     13  C3* UNL     1      43.141   0.213  13.187  0.00  0.00    +0.000 A 
ATOM     14  C2* UNL     1      42.961  -1.178  13.083  0.00  0.00    +0.000 A 
BRANCH  13  15
ATOM     15  O3* UNL     1      42.872   0.939  14.313  0.00  0.00    +0.000 OA
ATOM     16  H3* UNL     1      42.095   0.584  14.780  0.00  0.00    +0.000 HD
ENDBRANCH  13  15
BRANCH  12  17
ATOM     17  C5* UNL     1      44.962   1.761  12.279  0.00  0.00    +0.000 C 
BRANCH  17  18
ATOM     18  O5* UNL     1      45.626   2.912  12.220  0.00  0.00    +0.000 OA
ATOM     19  H5* UNL     1      46.028   3.111  13.082  0.00  0.00    +0.000 HD
ENDBRANCH  17  18
ENDBRANCH  12  17
ENDBRANCH   3  10
BRANCH   7  20
ATOM     20  C   UNL     1      42.195  -6.148  12.618  0.00  0.00    +0.000 C 
ATOM     21  F   UNL     1      41.465  -6.736  11.638  0.00  0.00    +0.000 F 
ATOM     22  F   UNL     1      42.777  -7.164  13.314  0.00  0.00    +0.000 F 
ATOM     23  F   UNL     1      41.327  -5.556  13.474  0.00  0.00    +0.000 F 
ENDBRANCH   7  20
TORSDOF 5
ENDMDL
MODEL 6
REMARK VINA RESULT:      -5.6      4.342      5.975
REMARK  Name = Trifluridine.pdbqt.pdb
REMARK  5 active torsions:
REMARK  status: ('A' for Active; 'I' for Inactive)
REMARK    1  A    between atoms: N_3  and  C1*_10
REMARK    2  A    between atoms: C_7  and  C_20
REMARK    3  A    between atoms: C4*_12  and  C5*_15
REMARK    4  A    between atoms: C3*_13  and  O3*_18
REMARK    5  A    between atoms: C5*_15  and  O5*_16
REMARK                            x       y       z     vdW  Elec       q    Type
REMARK                         _______ _______ _______ _____ _____    ______ ____
ROOT
ATOM      1  O   UNL     1      46.486   0.462  15.224  0.00  0.00    +0.000 OA
ATOM      2  O   UNL     1      49.178   0.980  11.543  0.00  0.00    +0.000 OA
ATOM      3  N   UNL     1      45.849  -0.623  13.217  0.00  0.00    +0.000 N 
ATOM      4  N   UNL     1      47.797   0.676  13.351  0.00  0.00    +0.000 N 
ATOM      5  C   UNL     1      46.252  -0.789  11.942  0.00  0.00    +0.000 A 
ATOM      6  C   UNL     1      46.667   0.181  14.045  0.00  0.00    +0.000 A 
ATOM      7  C   UNL     1      47.248  -0.381  11.228  0.00  0.00    +0.000 A 
ATOM      8  C   UNL     1      48.168   0.477  12.015  0.00  0.00    +0.000 A 
ATOM      9  H   UNL     1      48.413   1.259  13.899  0.00  0.00    +0.000 HD
ENDROOT
BRANCH   3  10
ATOM     10  C1* UNL     1      44.694  -1.220  13.633  0.00  0.00    +0.000 A 
ATOM     11  O4* UNL     1      43.483  -0.522  13.711  0.00  0.00    +0.000 OA
ATOM     12  C4* UNL     1      42.525  -1.422  14.195  0.00  0.00    +0.000 A 
ATOM     13  C3* UNL     1      43.151  -2.701  14.419  0.00  0.00    +0.000 A 
ATOM     14  C2* UNL     1      44.504  -2.545  14.070  0.00  0.00    +0.000 A 
BRANCH  13  15
ATOM     15  O3* UNL     1      42.703  -3.541  15.399  0.00  0.00    +0.000 OA
ATOM     16  H3* UNL     1      42.023  -3.109  15.945  0.00  0.00    +0.000 HD
ENDBRANCH  13  15
BRANCH  12  17
ATOM     17  C5* UNL     1      41.239  -1.012  14.597  0.00  0.00    +0.000 C 
BRANCH  17  18
ATOM     18  O5* UNL     1      40.026  -0.628  14.980  0.00  0.00    +0.000 OA
ATOM     19  H5* UNL     1      40.090  -0.007  15.725  0.00  0.00    +0.000 HD
ENDBRANCH  17  18
ENDBRANCH  12  17
ENDBRANCH   3  10
BRANCH   7  20
ATOM     20  C   UNL     1      47.557  -0.620   9.811  0.00  0.00    +0.000 C 
ATOM     21  F   UNL     1      47.680   0.530   9.103  0.00  0.00    +0.000 F 
ATOM     22  F   UNL     1      48.736  -1.284   9.659  0.00  0.00    +0.000 F 
ATOM     23  F   UNL     1      46.616  -1.379   9.195  0.00  0.00    +0.000 F 
ENDBRANCH   7  20
TORSDOF 5
ENDMDL
MODEL 7
REMARK VINA RESULT:      -5.6     25.866     27.266
REMARK  Name = Trifluridine.pdbqt.pdb
REMARK  5 active torsions:
REMARK  status: ('A' for Active; 'I' for Inactive)
REMARK    1  A    between atoms: N_3  and  C1*_10
REMARK    2  A    between atoms: C_7  and  C_20
REMARK    3  A    between atoms: C4*_12  and  C5*_15
REMARK    4  A    between atoms: C3*_13  and  O3*_18
REMARK    5  A    between atoms: C5*_15  and  O5*_16
REMARK                            x       y       z     vdW  Elec       q    Type
REMARK                         _______ _______ _______ _____ _____    ______ ____
ROOT
ATOM      1  O   UNL     1      31.308  12.132  -8.407  0.00  0.00    +0.000 OA
ATOM      2  O   UNL     1      26.765  12.771  -8.298  0.00  0.00    +0.000 OA
ATOM      3  N   UNL     1      30.011  10.678  -7.060  0.00  0.00    +0.000 N 
ATOM      4  N   UNL     1      29.029  12.396  -8.318  0.00  0.00    +0.000 N 
ATOM      5  C   UNL     1      28.734  10.445  -6.699  0.00  0.00    +0.000 A 
ATOM      6  C   UNL     1      30.235  11.749  -7.957  0.00  0.00    +0.000 A 
ATOM      7  C   UNL     1      27.587  10.974  -6.967  0.00  0.00    +0.000 A 
ATOM      8  C   UNL     1      27.720  12.116  -7.907  0.00  0.00    +0.000 A 
ATOM      9  H   UNL     1      29.135  13.171  -8.958  0.00  0.00    +0.000 HD
ENDROOT
BRANCH   3  10
ATOM     10  C1* UNL     1      31.003   9.891  -6.549  0.00  0.00    +0.000 A 
ATOM     11  O4* UNL     1      32.162  10.432  -5.981  0.00  0.00    +0.000 OA
ATOM     12  C4* UNL     1      32.964   9.353  -5.588  0.00  0.00    +0.000 A 
ATOM     13  C3* UNL     1      32.290   8.121  -5.914  0.00  0.00    +0.000 A 
ATOM     14  C2* UNL     1      31.074   8.485  -6.520  0.00  0.00    +0.000 A 
BRANCH  13  15
ATOM     15  O3* UNL     1      32.996   6.994  -6.228  0.00  0.00    +0.000 OA
ATOM     16  H3* UNL     1      33.611   6.757  -5.512  0.00  0.00    +0.000 HD
ENDBRANCH  13  15
BRANCH  12  17
ATOM     17  C5* UNL     1      34.299   9.517  -5.168  0.00  0.00    +0.000 C 
BRANCH  17  18
ATOM     18  O5* UNL     1      35.559   9.673  -4.776  0.00  0.00    +0.000 OA
ATOM     19  H5* UNL     1      36.159   9.201  -5.378  0.00  0.00    +0.000 HD
ENDBRANCH  17  18
ENDBRANCH  12  17
ENDBRANCH   3  10
BRANCH   7  20
ATOM     20  C   UNL     1      26.247  10.630  -6.472  0.00  0.00    +0.000 C 
ATOM     21  F   UNL     1      25.410  10.238  -7.464  0.00  0.00    +0.000 F 
ATOM     22  F   UNL     1      26.290   9.598  -5.584  0.00  0.00    +0.000 F 
ATOM     23  F   UNL     1      25.653  11.661  -5.821  0.00  0.00    +0.000 F 
ENDBRANCH   7  20
TORSDOF 5
ENDMDL
MODEL 8
REMARK VINA RESULT:      -5.5     11.412     12.740
REMARK  Name = Trifluridine.pdbqt.pdb
REMARK  5 active torsions:
REMARK  status: ('A' for Active; 'I' for Inactive)
REMARK    1  A    between atoms: N_3  and  C1*_10
REMARK    2  A    between atoms: C_7  and  C_20
REMARK    3  A    between atoms: C4*_12  and  C5*_15
REMARK    4  A    between atoms: C3*_13  and  O3*_18
REMARK    5  A    between atoms: C5*_15  and  O5*_16
REMARK                            x       y       z     vdW  Elec       q    Type
REMARK                         _______ _______ _______ _____ _____    ______ ____
ROOT
ATOM      1  O   UNL     1      45.129   0.881  21.073  0.00  0.00    +0.000 OA
ATOM      2  O   UNL     1      43.108  -2.837  22.850  0.00  0.00    +0.000 OA
ATOM      3  N   UNL     1      43.347   1.205  22.599  0.00  0.00    +0.000 N 
ATOM      4  N   UNL     1      44.084  -0.940  22.002  0.00  0.00    +0.000 N 
ATOM      5  C   UNL     1      42.476   0.509  23.357  0.00  0.00    +0.000 A 
ATOM      6  C   UNL     1      44.263   0.453  21.827  0.00  0.00    +0.000 A 
ATOM      7  C   UNL     1      42.237  -0.741  23.576  0.00  0.00    +0.000 A 
ATOM      8  C   UNL     1      43.153  -1.615  22.802  0.00  0.00    +0.000 A 
ATOM      9  H   UNL     1      44.714  -1.522  21.469  0.00  0.00    +0.000 HD
ENDROOT
BRANCH   3  10
ATOM     10  C1* UNL     1      43.298   2.569  22.611  0.00  0.00    +0.000 A 
ATOM     11  O4* UNL     1      43.322   3.303  23.803  0.00  0.00    +0.000 OA
ATOM     12  C4* UNL     1      43.230   4.655  23.450  0.00  0.00    +0.000 A 
ATOM     13  C3* UNL     1      43.150   4.763  22.014  0.00  0.00    +0.000 A 
ATOM     14  C2* UNL     1      43.185   3.448  21.517  0.00  0.00    +0.000 A 
BRANCH  13  15
ATOM     15  O3* UNL     1      42.468   5.789  21.423  0.00  0.00    +0.000 OA
ATOM     16  H3* UNL     1      43.009   6.218  20.737  0.00  0.00    +0.000 HD
ENDBRANCH  13  15
BRANCH  12  17
ATOM     17  C5* UNL     1      43.016   5.672  24.401  0.00  0.00    +0.000 C 
BRANCH  17  18
ATOM     18  O5* UNL     1      42.810   6.633  25.296  0.00  0.00    +0.000 OA
ATOM     19  H5* UNL     1      43.653   6.905  25.696  0.00  0.00    +0.000 HD
ENDBRANCH  17  18
ENDBRANCH  12  17
ENDBRANCH   3  10
BRANCH   7  20
ATOM     20  C   UNL     1      41.217  -1.374  24.423  0.00  0.00    +0.000 C 
ATOM     21  F   UNL     1      41.742  -2.287  25.277  0.00  0.00    +0.000 F 
ATOM     22  F   UNL     1      40.570  -0.461  25.199  0.00  0.00    +0.000 F 
ATOM     23  F   UNL     1      40.255  -2.000  23.699  0.00  0.00    +0.000 F 
ENDBRANCH   7  20
TORSDOF 5
ENDMDL
MODEL 9
REMARK VINA RESULT:      -5.2      5.399      7.183
REMARK  Name = Trifluridine.pdbqt.pdb
REMARK  5 active torsions:
REMARK  status: ('A' for Active; 'I' for Inactive)
REMARK    1  A    between atoms: N_3  and  C1*_10
REMARK    2  A    between atoms: C_7  and  C_20
REMARK    3  A    between atoms: C4*_12  and  C5*_15
REMARK    4  A    between atoms: C3*_13  and  O3*_18
REMARK    5  A    between atoms: C5*_15  and  O5*_16
REMARK                            x       y       z     vdW  Elec       q    Type
REMARK                         _______ _______ _______ _____ _____    ______ ____
ROOT
ATOM      1  O   UNL     1      47.349  -0.487  14.002  0.00  0.00    +0.000 OA
ATOM      2  O   UNL     1      50.409   1.467  11.195  0.00  0.00    +0.000 OA
ATOM      3  N   UNL     1      46.799  -0.311  11.705  0.00  0.00    +0.000 N 
ATOM      4  N   UNL     1      48.843   0.473  12.547  0.00  0.00    +0.000 N 
ATOM      5  C   UNL     1      47.301   0.142  10.539  0.00  0.00    +0.000 A 
ATOM      6  C   UNL     1      47.611  -0.153  12.852  0.00  0.00    +0.000 A 
ATOM      7  C   UNL     1      48.394   0.721  10.167  0.00  0.00    +0.000 A 
ATOM      8  C   UNL     1      49.315   0.932  11.311  0.00  0.00    +0.000 A 
ATOM      9  H   UNL     1      49.459   0.611  13.335  0.00  0.00    +0.000 HD
ENDROOT
BRANCH   3  10
ATOM     10  C1* UNL     1      45.558  -0.879  11.720  0.00  0.00    +0.000 A 
ATOM     11  O4* UNL     1      45.318  -2.155  11.198  0.00  0.00    +0.000 OA
ATOM     12  C4* UNL     1      43.949  -2.407  11.352  0.00  0.00    +0.000 A 
ATOM     13  C3* UNL     1      43.328  -1.270  11.983  0.00  0.00    +0.000 A 
ATOM     14  C2* UNL     1      44.351  -0.328  12.193  0.00  0.00    +0.000 A 
BRANCH  13  15
ATOM     15  O3* UNL     1      42.027  -0.944  11.722  0.00  0.00    +0.000 OA
ATOM     16  H3* UNL     1      41.568  -1.675  11.273  0.00  0.00    +0.000 HD
ENDBRANCH  13  15
BRANCH  12  17
ATOM     17  C5* UNL     1      43.313  -3.511  10.751  0.00  0.00    +0.000 C 
BRANCH  17  18
ATOM     18  O5* UNL     1      42.716  -4.554  10.182  0.00  0.00    +0.000 OA
ATOM     19  H5* UNL     1      42.082  -4.956  10.799  0.00  0.00    +0.000 HD
ENDBRANCH  17  18
ENDBRANCH  12  17
ENDBRANCH   3  10
BRANCH   7  20
ATOM     20  C   UNL     1      48.808   1.195   8.839  0.00  0.00    +0.000 C 
ATOM     21  F   UNL     1      48.948   2.543   8.787  0.00  0.00    +0.000 F 
ATOM     22  F   UNL     1      50.013   0.677   8.474  0.00  0.00    +0.000 F 
ATOM     23  F   UNL     1      47.935   0.838   7.864  0.00  0.00    +0.000 F 
ENDBRANCH   7  20
TORSDOF 5
ENDMDL
