MODEL 1
REMARK VINA RESULT:      -8.0      0.000      0.000
REMARK  Name = Troglitazone.pdbqt.pdb
REMARK  4 active torsions:
REMARK  status: ('A' for Active; 'I' for Inactive)
REMARK    1  A    between atoms: C_1  and  O_2
REMARK    2  A    between atoms: C_1  and  C_18
REMARK    3  A    between atoms: O_2  and  C_3
REMARK    4  A    between atoms: C_26  and  O_32
REMARK                            x       y       z     vdW  Elec       q    Type
REMARK                         _______ _______ _______ _____ _____    ______ ____
ROOT
ATOM      1  C   UNL     1      43.328  -4.327  11.195  0.00  0.00    +0.000 C 
ENDROOT
BRANCH   1   2
ATOM      2  C   UNL     1      44.072  -5.598  11.220  0.00  0.00    +0.000 C 
ATOM      3  O   UNL     1      45.489  -5.266  11.445  0.00  0.00    +0.000 OA
ATOM      4  C   UNL     1      46.551  -6.000  10.902  0.00  0.00    +0.000 A 
ATOM      5  C   UNL     1      46.432  -6.849   9.762  0.00  0.00    +0.000 A 
ATOM      6  C   UNL     1      47.817  -5.825  11.501  0.00  0.00    +0.000 A 
ATOM      7  C   UNL     1      45.119  -6.936   9.232  0.00  0.00    +0.000 C 
ATOM      8  C   UNL     1      47.537  -7.534   9.243  0.00  0.00    +0.000 A 
ATOM      9  C   UNL     1      43.972  -6.312   9.953  0.00  0.00    +0.000 C 
ATOM     10  C   UNL     1      48.787  -7.368   9.858  0.00  0.00    +0.000 A 
ATOM     11  C   UNL     1      47.383  -8.429   8.032  0.00  0.00    +0.000 C 
ATOM     12  C   UNL     1      48.929  -6.520  10.977  0.00  0.00    +0.000 A 
ATOM     13  C   UNL     1      50.341  -6.404  11.553  0.00  0.00    +0.000 C 
ATOM     14  C   UNL     1      47.944  -4.877  12.687  0.00  0.00    +0.000 C 
ATOM     15  C   UNL     1      43.629  -6.495  12.401  0.00  0.00    +0.000 C 
BRANCH  10  16
ATOM     16  O   UNL     1      49.897  -8.033   9.362  0.00  0.00    +0.000 OA
ATOM     17  H   UNL     1      49.867  -7.989   8.382  0.00  0.00    +0.000 HD
ENDBRANCH  10  16
ENDBRANCH   1   2
BRANCH   1  18
ATOM     18  O   UNL     1      42.663  -3.171  11.168  0.00  0.00    +0.000 OA
BRANCH  18  19
ATOM     19  C   UNL     1      43.372  -2.091  11.633  0.00  0.00    +0.000 C 
ATOM     20  C   UNL     1      44.719  -1.851  11.354  0.00  0.00    +0.000 C 
ATOM     21  C   UNL     1      45.352  -0.721  11.867  0.00  0.00    +0.000 C 
ATOM     22  C   UNL     1      44.637   0.172  12.661  0.00  0.00    +0.000 C 
ATOM     23  C   UNL     1      43.293  -0.062  12.943  0.00  0.00    +0.000 C 
ATOM     24  C   UNL     1      42.661  -1.193  12.428  0.00  0.00    +0.000 C 
ATOM     25  C   UNL     1      45.281   1.329  13.185  0.00  0.00    +0.000 C 
ATOM     26  C   UNL     1      45.916   2.474  13.715  0.00  0.00    +0.000 C 
ATOM     27  S   UNL     1      47.058   3.447  12.870  0.00  0.00    +0.000 S 
ATOM     28  C   UNL     1      47.244   4.533  14.233  0.00  0.00    +0.000 C 
ATOM     29  O   UNL     1      47.974   5.509  14.240  0.00  0.00    +0.000 OA
ATOM     30  N   UNL     1      46.455   4.124  15.259  0.00  0.00    +0.000 N 
ATOM     31  C   UNL     1      45.685   3.014  15.072  0.00  0.00    +0.000 C 
ATOM     32  H   UNL     1      46.430   4.635  16.127  0.00  0.00    +0.000 HD
ATOM     33  O   UNL     1      44.922   2.546  15.900  0.00  0.00    +0.000 OA
ENDBRANCH  18  19
ENDBRANCH   1  18
TORSDOF 4
ENDMDL
MODEL 2
REMARK VINA RESULT:      -8.0      1.931      2.197
REMARK  Name = Troglitazone.pdbqt.pdb
REMARK  4 active torsions:
REMARK  status: ('A' for Active; 'I' for Inactive)
REMARK    1  A    between atoms: C_1  and  O_2
REMARK    2  A    between atoms: C_1  and  C_18
REMARK    3  A    between atoms: O_2  and  C_3
REMARK    4  A    between atoms: C_26  and  O_32
REMARK                            x       y       z     vdW  Elec       q    Type
REMARK                         _______ _______ _______ _____ _____    ______ ____
ROOT
ATOM      1  C   UNL     1      43.376  -2.964  12.035  0.00  0.00    +0.000 C 
ENDROOT
BRANCH   1   2
ATOM      2  C   UNL     1      44.204  -4.171  12.194  0.00  0.00    +0.000 C 
ATOM      3  O   UNL     1      45.529  -3.865  11.627  0.00  0.00    +0.000 OA
ATOM      4  C   UNL     1      46.333  -4.813  10.983  0.00  0.00    +0.000 A 
ATOM      5  C   UNL     1      45.837  -6.025  10.418  0.00  0.00    +0.000 A 
ATOM      6  C   UNL     1      47.702  -4.500  10.846  0.00  0.00    +0.000 A 
ATOM      7  C   UNL     1      44.445  -6.229  10.599  0.00  0.00    +0.000 C 
ATOM      8  C   UNL     1      46.684  -6.923   9.756  0.00  0.00    +0.000 A 
ATOM      9  C   UNL     1      43.655  -5.308  11.467  0.00  0.00    +0.000 C 
ATOM     10  C   UNL     1      48.047  -6.610   9.642  0.00  0.00    +0.000 A 
ATOM     11  C   UNL     1      46.131  -8.203   9.165  0.00  0.00    +0.000 C 
ATOM     12  C   UNL     1      48.554  -5.408  10.180  0.00  0.00    +0.000 A 
ATOM     13  C   UNL     1      50.050  -5.166   9.982  0.00  0.00    +0.000 C 
ATOM     14  C   UNL     1      48.212  -3.179  11.409  0.00  0.00    +0.000 C 
ATOM     15  C   UNL     1      44.426  -4.518  13.687  0.00  0.00    +0.000 C 
BRANCH  10  16
ATOM     16  O   UNL     1      48.905  -7.480   8.990  0.00  0.00    +0.000 OA
ATOM     17  H   UNL     1      49.661  -7.670   9.588  0.00  0.00    +0.000 HD
ENDBRANCH  10  16
ENDBRANCH   1   2
BRANCH   1  18
ATOM     18  O   UNL     1      42.633  -1.866  11.886  0.00  0.00    +0.000 OA
BRANCH  18  19
ATOM     19  C   UNL     1      43.046  -0.789  12.631  0.00  0.00    +0.000 C 
ATOM     20  C   UNL     1      44.358  -0.313  12.674  0.00  0.00    +0.000 C 
ATOM     21  C   UNL     1      44.678   0.793  13.456  0.00  0.00    +0.000 C 
ATOM     22  C   UNL     1      43.686   1.426  14.199  0.00  0.00    +0.000 C 
ATOM     23  C   UNL     1      42.374   0.956  14.161  0.00  0.00    +0.000 C 
ATOM     24  C   UNL     1      42.055  -0.150  13.376  0.00  0.00    +0.000 C 
ATOM     25  C   UNL     1      44.011   2.559  14.999  0.00  0.00    +0.000 C 
ATOM     26  C   UNL     1      44.328   3.678  15.801  0.00  0.00    +0.000 C 
ATOM     27  S   UNL     1      45.417   4.934  15.353  0.00  0.00    +0.000 S 
ATOM     28  C   UNL     1      45.158   5.790  16.860  0.00  0.00    +0.000 C 
ATOM     29  O   UNL     1      45.693   6.845  17.152  0.00  0.00    +0.000 OA
ATOM     30  N   UNL     1      44.279   5.104  17.633  0.00  0.00    +0.000 N 
ATOM     31  C   UNL     1      43.762   3.942  17.140  0.00  0.00    +0.000 C 
ATOM     32  H   UNL     1      44.007   5.452  18.539  0.00  0.00    +0.000 HD
ATOM     33  O   UNL     1      42.955   3.236  17.720  0.00  0.00    +0.000 OA
ENDBRANCH  18  19
ENDBRANCH   1  18
TORSDOF 4
ENDMDL
MODEL 3
REMARK VINA RESULT:      -7.8      2.710      4.217
REMARK  Name = Troglitazone.pdbqt.pdb
REMARK  4 active torsions:
REMARK  status: ('A' for Active; 'I' for Inactive)
REMARK    1  A    between atoms: C_1  and  O_2
REMARK    2  A    between atoms: C_1  and  C_18
REMARK    3  A    between atoms: O_2  and  C_3
REMARK    4  A    between atoms: C_26  and  O_32
REMARK                            x       y       z     vdW  Elec       q    Type
REMARK                         _______ _______ _______ _____ _____    ______ ____
ROOT
ATOM      1  C   UNL     1      45.542  -1.480  12.034  0.00  0.00    +0.000 C 
ENDROOT
BRANCH   1   2
ATOM      2  C   UNL     1      44.930  -2.816  12.116  0.00  0.00    +0.000 C 
ATOM      3  O   UNL     1      45.782  -3.732  11.339  0.00  0.00    +0.000 OA
ATOM      4  C   UNL     1      45.287  -4.828  10.621  0.00  0.00    +0.000 A 
ATOM      5  C   UNL     1      43.932  -4.953  10.193  0.00  0.00    +0.000 A 
ATOM      6  C   UNL     1      46.217  -5.825  10.260  0.00  0.00    +0.000 A 
ATOM      7  C   UNL     1      43.090  -3.885  10.596  0.00  0.00    +0.000 C 
ATOM      8  C   UNL     1      43.500  -6.057   9.449  0.00  0.00    +0.000 A 
ATOM      9  C   UNL     1      43.594  -2.840  11.534  0.00  0.00    +0.000 C 
ATOM     10  C   UNL     1      44.430  -7.053   9.112  0.00  0.00    +0.000 A 
ATOM     11  C   UNL     1      42.055  -6.166   9.008  0.00  0.00    +0.000 C 
ATOM     12  C   UNL     1      45.778  -6.940   9.512  0.00  0.00    +0.000 A 
ATOM     13  C   UNL     1      46.703  -8.076   9.074  0.00  0.00    +0.000 C 
ATOM     14  C   UNL     1      47.673  -5.657  10.678  0.00  0.00    +0.000 C 
ATOM     15  C   UNL     1      44.913  -3.348  13.571  0.00  0.00    +0.000 C 
BRANCH  10  16
ATOM     16  O   UNL     1      44.028  -8.155   8.375  0.00  0.00    +0.000 OA
ATOM     17  H   UNL     1      43.348  -7.861   7.730  0.00  0.00    +0.000 HD
ENDBRANCH  10  16
ENDBRANCH   1   2
BRANCH   1  18
ATOM     18  O   UNL     1      46.095  -0.268  11.949  0.00  0.00    +0.000 OA
BRANCH  18  19
ATOM     19  C   UNL     1      45.618   0.644  12.858  0.00  0.00    +0.000 C 
ATOM     20  C   UNL     1      44.373   0.559  13.485  0.00  0.00    +0.000 C 
ATOM     21  C   UNL     1      43.980   1.532  14.400  0.00  0.00    +0.000 C 
ATOM     22  C   UNL     1      44.832   2.594  14.690  0.00  0.00    +0.000 C 
ATOM     23  C   UNL     1      46.075   2.685  14.067  0.00  0.00    +0.000 C 
ATOM     24  C   UNL     1      46.468   1.710  13.153  0.00  0.00    +0.000 C 
ATOM     25  C   UNL     1      44.433   3.590  15.626  0.00  0.00    +0.000 C 
ATOM     26  C   UNL     1      44.040   4.586  16.548  0.00  0.00    +0.000 C 
ATOM     27  S   UNL     1      43.185   4.289  18.014  0.00  0.00    +0.000 S 
ATOM     28  C   UNL     1      43.174   5.991  18.431  0.00  0.00    +0.000 C 
ATOM     29  O   UNL     1      42.677   6.446  19.447  0.00  0.00    +0.000 OA
ATOM     30  N   UNL     1      43.799   6.707  17.463  0.00  0.00    +0.000 N 
ATOM     31  C   UNL     1      44.314   6.030  16.397  0.00  0.00    +0.000 C 
ATOM     32  H   UNL     1      43.891   7.707  17.539  0.00  0.00    +0.000 HD
ATOM     33  O   UNL     1      44.911   6.543  15.466  0.00  0.00    +0.000 OA
ENDBRANCH  18  19
ENDBRANCH   1  18
TORSDOF 4
ENDMDL
MODEL 4
REMARK VINA RESULT:      -7.7     34.727     38.941
REMARK  Name = Troglitazone.pdbqt.pdb
REMARK  4 active torsions:
REMARK  status: ('A' for Active; 'I' for Inactive)
REMARK    1  A    between atoms: C_1  and  O_2
REMARK    2  A    between atoms: C_1  and  C_18
REMARK    3  A    between atoms: O_2  and  C_3
REMARK    4  A    between atoms: C_26  and  O_32
REMARK                            x       y       z     vdW  Elec       q    Type
REMARK                         _______ _______ _______ _____ _____    ______ ____
ROOT
ATOM      1  C   UNL     1      13.623   8.644  28.504  0.00  0.00    +0.000 C 
ENDROOT
BRANCH   1   2
ATOM      2  C   UNL     1      13.430   8.864  29.947  0.00  0.00    +0.000 C 
ATOM      3  O   UNL     1      11.990   8.717  30.219  0.00  0.00    +0.000 OA
ATOM      4  C   UNL     1      11.310   9.448  31.201  0.00  0.00    +0.000 A 
ATOM      5  C   UNL     1      11.778  10.682  31.743  0.00  0.00    +0.000 A 
ATOM      6  C   UNL     1      10.061   8.943  31.620  0.00  0.00    +0.000 A 
ATOM      7  C   UNL     1      13.036  11.103  31.238  0.00  0.00    +0.000 C 
ATOM      8  C   UNL     1      11.040  11.387  32.701  0.00  0.00    +0.000 A 
ATOM      9  C   UNL     1      13.832  10.205  30.352  0.00  0.00    +0.000 C 
ATOM     10  C   UNL     1       9.807  10.865  33.124  0.00  0.00    +0.000 A 
ATOM     11  C   UNL     1      11.560  12.694  33.260  0.00  0.00    +0.000 C 
ATOM     12  C   UNL     1       9.319   9.654  32.589  0.00  0.00    +0.000 A 
ATOM     13  C   UNL     1       7.959   9.193  33.112  0.00  0.00    +0.000 C 
ATOM     14  C   UNL     1       9.546   7.651  30.998  0.00  0.00    +0.000 C 
ATOM     15  C   UNL     1      14.156   7.786  30.790  0.00  0.00    +0.000 C 
BRANCH  10  16
ATOM     16  O   UNL     1       9.056  11.544  34.069  0.00  0.00    +0.000 OA
ATOM     17  H   UNL     1       8.250  11.891  33.628  0.00  0.00    +0.000 HD
ENDBRANCH  10  16
ENDBRANCH   1   2
BRANCH   1  18
ATOM     18  O   UNL     1      13.787   8.443  27.195  0.00  0.00    +0.000 OA
BRANCH  18  19
ATOM     19  C   UNL     1      14.398   7.257  26.870  0.00  0.00    +0.000 C 
ATOM     20  C   UNL     1      13.896   5.994  27.192  0.00  0.00    +0.000 C 
ATOM     21  C   UNL     1      14.587   4.846  26.811  0.00  0.00    +0.000 C 
ATOM     22  C   UNL     1      15.783   4.960  26.108  0.00  0.00    +0.000 C 
ATOM     23  C   UNL     1      16.290   6.216  25.784  0.00  0.00    +0.000 C 
ATOM     24  C   UNL     1      15.596   7.364  26.164  0.00  0.00    +0.000 C 
ATOM     25  C   UNL     1      16.490   3.787  25.717  0.00  0.00    +0.000 C 
ATOM     26  C   UNL     1      17.201   2.628  25.333  0.00  0.00    +0.000 C 
ATOM     27  S   UNL     1      16.479   1.176  24.751  0.00  0.00    +0.000 S 
ATOM     28  C   UNL     1      18.038   0.402  24.549  0.00  0.00    +0.000 C 
ATOM     29  O   UNL     1      18.192  -0.731  24.126  0.00  0.00    +0.000 OA
ATOM     30  N   UNL     1      19.027   1.251  24.927  0.00  0.00    +0.000 N 
ATOM     31  C   UNL     1      18.673   2.493  25.363  0.00  0.00    +0.000 C 
ATOM     32  H   UNL     1      19.994   0.973  24.874  0.00  0.00    +0.000 HD
ATOM     33  O   UNL     1      19.456   3.358  25.718  0.00  0.00    +0.000 OA
ENDBRANCH  18  19
ENDBRANCH   1  18
TORSDOF 4
ENDMDL
MODEL 5
REMARK VINA RESULT:      -7.5     32.862     35.376
REMARK  Name = Troglitazone.pdbqt.pdb
REMARK  4 active torsions:
REMARK  status: ('A' for Active; 'I' for Inactive)
REMARK    1  A    between atoms: C_1  and  O_2
REMARK    2  A    between atoms: C_1  and  C_18
REMARK    3  A    between atoms: O_2  and  C_3
REMARK    4  A    between atoms: C_26  and  O_32
REMARK                            x       y       z     vdW  Elec       q    Type
REMARK                         _______ _______ _______ _____ _____    ______ ____
ROOT
ATOM      1  C   UNL     1      22.809  22.125  -0.517  0.00  0.00    +0.000 C 
ENDROOT
BRANCH   1   2
ATOM      2  C   UNL     1      22.425  20.787  -0.033  0.00  0.00    +0.000 C 
ATOM      3  O   UNL     1      21.047  20.890   0.478  0.00  0.00    +0.000 OA
ATOM      4  C   UNL     1      20.565  20.141   1.558  0.00  0.00    +0.000 A 
ATOM      5  C   UNL     1      21.400  19.538   2.545  0.00  0.00    +0.000 A 
ATOM      6  C   UNL     1      19.164  20.041   1.688  0.00  0.00    +0.000 A 
ATOM      7  C   UNL     1      22.790  19.716   2.324  0.00  0.00    +0.000 C 
ATOM      8  C   UNL     1      20.860  18.826   3.623  0.00  0.00    +0.000 A 
ATOM      9  C   UNL     1      23.279  20.337   1.059  0.00  0.00    +0.000 C 
ATOM     10  C   UNL     1      19.465  18.717   3.732  0.00  0.00    +0.000 A 
ATOM     11  C   UNL     1      21.769  18.196   4.656  0.00  0.00    +0.000 C 
ATOM     12  C   UNL     1      18.622  19.320   2.775  0.00  0.00    +0.000 A 
ATOM     13  C   UNL     1      17.120  19.150   3.006  0.00  0.00    +0.000 C 
ATOM     14  C   UNL     1      18.280  20.732   0.657  0.00  0.00    +0.000 C 
ATOM     15  C   UNL     1      22.399  19.751  -1.184  0.00  0.00    +0.000 C 
BRANCH  10  16
ATOM     16  O   UNL     1      18.906  18.020   4.790  0.00  0.00    +0.000 OA
ATOM     17  H   UNL     1      19.529  18.062   5.548  0.00  0.00    +0.000 HD
ENDBRANCH  10  16
ENDBRANCH   1   2
BRANCH   1  18
ATOM     18  O   UNL     1      23.168  23.333  -0.953  0.00  0.00    +0.000 OA
BRANCH  18  19
ATOM     19  C   UNL     1      24.483  23.439  -1.330  0.00  0.00    +0.000 C 
ATOM     20  C   UNL     1      24.913  23.726  -2.627  0.00  0.00    +0.000 C 
ATOM     21  C   UNL     1      26.273  23.820  -2.912  0.00  0.00    +0.000 C 
ATOM     22  C   UNL     1      27.207  23.627  -1.898  0.00  0.00    +0.000 C 
ATOM     23  C   UNL     1      26.785  23.340  -0.602  0.00  0.00    +0.000 C 
ATOM     24  C   UNL     1      25.424  23.248  -0.319  0.00  0.00    +0.000 C 
ATOM     25  C   UNL     1      28.598  23.724  -2.186  0.00  0.00    +0.000 C 
ATOM     26  C   UNL     1      29.980  23.811  -2.468  0.00  0.00    +0.000 C 
ATOM     27  S   UNL     1      30.701  24.967  -3.521  0.00  0.00    +0.000 S 
ATOM     28  C   UNL     1      32.308  24.331  -3.230  0.00  0.00    +0.000 C 
ATOM     29  O   UNL     1      33.325  24.778  -3.733  0.00  0.00    +0.000 OA
ATOM     30  N   UNL     1      32.240  23.285  -2.369  0.00  0.00    +0.000 N 
ATOM     31  C   UNL     1      31.015  22.928  -1.889  0.00  0.00    +0.000 C 
ATOM     32  H   UNL     1      33.074  22.797  -2.083  0.00  0.00    +0.000 HD
ATOM     33  O   UNL     1      30.812  22.021  -1.100  0.00  0.00    +0.000 OA
ENDBRANCH  18  19
ENDBRANCH   1  18
TORSDOF 4
ENDMDL
MODEL 6
REMARK VINA RESULT:      -7.5     34.507     37.872
REMARK  Name = Troglitazone.pdbqt.pdb
REMARK  4 active torsions:
REMARK  status: ('A' for Active; 'I' for Inactive)
REMARK    1  A    between atoms: C_1  and  O_2
REMARK    2  A    between atoms: C_1  and  C_18
REMARK    3  A    between atoms: O_2  and  C_3
REMARK    4  A    between atoms: C_26  and  O_32
REMARK                            x       y       z     vdW  Elec       q    Type
REMARK                         _______ _______ _______ _____ _____    ______ ____
ROOT
ATOM      1  C   UNL     1      23.443  21.466   2.522  0.00  0.00    +0.000 C 
ENDROOT
BRANCH   1   2
ATOM      2  C   UNL     1      23.694  22.905   2.333  0.00  0.00    +0.000 C 
ATOM      3  O   UNL     1      23.388  23.569   3.612  0.00  0.00    +0.000 OA
ATOM      4  C   UNL     1      22.857  24.862   3.704  0.00  0.00    +0.000 A 
ATOM      5  C   UNL     1      22.158  25.514   2.645  0.00  0.00    +0.000 A 
ATOM      6  C   UNL     1      22.982  25.513   4.949  0.00  0.00    +0.000 A 
ATOM      7  C   UNL     1      22.078  24.760   1.446  0.00  0.00    +0.000 C 
ATOM      8  C   UNL     1      21.620  26.796   2.805  0.00  0.00    +0.000 A 
ATOM      9  C   UNL     1      22.830  23.479   1.309  0.00  0.00    +0.000 C 
ATOM     10  C   UNL     1      21.767  27.443   4.042  0.00  0.00    +0.000 A 
ATOM     11  C   UNL     1      20.884  27.466   1.664  0.00  0.00    +0.000 C 
ATOM     12  C   UNL     1      22.440  26.808   5.108  0.00  0.00    +0.000 A 
ATOM     13  C   UNL     1      22.524  27.601   6.412  0.00  0.00    +0.000 C 
ATOM     14  C   UNL     1      23.685  24.789   6.090  0.00  0.00    +0.000 C 
ATOM     15  C   UNL     1      25.185  23.189   2.027  0.00  0.00    +0.000 C 
BRANCH  10  16
ATOM     16  O   UNL     1      21.242  28.711   4.227  0.00  0.00    +0.000 OA
ATOM     17  H   UNL     1      21.915  29.257   4.689  0.00  0.00    +0.000 HD
ENDBRANCH  10  16
ENDBRANCH   1   2
BRANCH   1  18
ATOM     18  O   UNL     1      23.207  20.165   2.699  0.00  0.00    +0.000 OA
BRANCH  18  19
ATOM     19  C   UNL     1      21.882  19.838   2.844  0.00  0.00    +0.000 C 
ATOM     20  C   UNL     1      21.334  18.595   2.520  0.00  0.00    +0.000 C 
ATOM     21  C   UNL     1      19.975  18.355   2.710  0.00  0.00    +0.000 C 
ATOM     22  C   UNL     1      19.161  19.359   3.225  0.00  0.00    +0.000 C 
ATOM     23  C   UNL     1      19.700  20.602   3.550  0.00  0.00    +0.000 C 
ATOM     24  C   UNL     1      21.060  20.839   3.361  0.00  0.00    +0.000 C 
ATOM     25  C   UNL     1      17.771  19.116   3.422  0.00  0.00    +0.000 C 
ATOM     26  C   UNL     1      16.391  18.883   3.611  0.00  0.00    +0.000 C 
ATOM     27  S   UNL     1      15.710  17.414   4.199  0.00  0.00    +0.000 S 
ATOM     28  C   UNL     1      14.081  18.051   4.103  0.00  0.00    +0.000 C 
ATOM     29  O   UNL     1      13.080  17.430   4.420  0.00  0.00    +0.000 OA
ATOM     30  N   UNL     1      14.111  19.324   3.634  0.00  0.00    +0.000 N 
ATOM     31  C   UNL     1      15.325  19.872   3.344  0.00  0.00    +0.000 C 
ATOM     32  H   UNL     1      13.260  19.852   3.518  0.00  0.00    +0.000 HD
ATOM     33  O   UNL     1      15.499  21.006   2.931  0.00  0.00    +0.000 OA
ENDBRANCH  18  19
ENDBRANCH   1  18
TORSDOF 4
ENDMDL
MODEL 7
REMARK VINA RESULT:      -7.4     34.722     37.506
REMARK  Name = Troglitazone.pdbqt.pdb
REMARK  4 active torsions:
REMARK  status: ('A' for Active; 'I' for Inactive)
REMARK    1  A    between atoms: C_1  and  O_2
REMARK    2  A    between atoms: C_1  and  C_18
REMARK    3  A    between atoms: O_2  and  C_3
REMARK    4  A    between atoms: C_26  and  O_32
REMARK                            x       y       z     vdW  Elec       q    Type
REMARK                         _______ _______ _______ _____ _____    ______ ____
ROOT
ATOM      1  C   UNL     1      24.440  23.371   2.112  0.00  0.00    +0.000 C 
ENDROOT
BRANCH   1   2
ATOM      2  C   UNL     1      23.751  22.242   1.463  0.00  0.00    +0.000 C 
ATOM      3  O   UNL     1      22.310  22.548   1.479  0.00  0.00    +0.000 OA
ATOM      4  C   UNL     1      21.314  21.571   1.601  0.00  0.00    +0.000 A 
ATOM      5  C   UNL     1      21.536  20.270   2.143  0.00  0.00    +0.000 A 
ATOM      6  C   UNL     1      20.009  21.941   1.211  0.00  0.00    +0.000 A 
ATOM      7  C   UNL     1      22.880  20.013   2.516  0.00  0.00    +0.000 C 
ATOM      8  C   UNL     1      20.494  19.344   2.270  0.00  0.00    +0.000 A 
ATOM      9  C   UNL     1      23.955  20.992   2.184  0.00  0.00    +0.000 C 
ATOM     10  C   UNL     1      19.203  19.717   1.862  0.00  0.00    +0.000 A 
ATOM     11  C   UNL     1      20.757  17.970   2.849  0.00  0.00    +0.000 C 
ATOM     12  C   UNL     1      18.960  21.004   1.338  0.00  0.00    +0.000 A 
ATOM     13  C   UNL     1      17.514  21.302   0.944  0.00  0.00    +0.000 C 
ATOM     14  C   UNL     1      19.773  23.349   0.681  0.00  0.00    +0.000 C 
ATOM     15  C   UNL     1      24.162  22.102  -0.024  0.00  0.00    +0.000 C 
BRANCH  10  16
ATOM     16  O   UNL     1      18.154  18.819   1.980  0.00  0.00    +0.000 OA
ATOM     17  H   UNL     1      18.496  17.921   1.780  0.00  0.00    +0.000 HD
ENDBRANCH  10  16
ENDBRANCH   1   2
BRANCH   1  18
ATOM     18  O   UNL     1      25.055  24.394   2.706  0.00  0.00    +0.000 OA
BRANCH  18  19
ATOM     19  C   UNL     1      24.231  25.209   3.442  0.00  0.00    +0.000 C 
ATOM     20  C   UNL     1      22.949  25.600   3.049  0.00  0.00    +0.000 C 
ATOM     21  C   UNL     1      22.184  26.425   3.869  0.00  0.00    +0.000 C 
ATOM     22  C   UNL     1      22.701  26.862   5.086  0.00  0.00    +0.000 C 
ATOM     23  C   UNL     1      23.979  26.476   5.484  0.00  0.00    +0.000 C 
ATOM     24  C   UNL     1      24.742  25.649   4.663  0.00  0.00    +0.000 C 
ATOM     25  C   UNL     1      21.920  27.705   5.927  0.00  0.00    +0.000 C 
ATOM     26  C   UNL     1      21.153  28.548   6.763  0.00  0.00    +0.000 C 
ATOM     27  S   UNL     1      19.458  28.396   7.028  0.00  0.00    +0.000 S 
ATOM     28  C   UNL     1      19.438  29.765   8.122  0.00  0.00    +0.000 C 
ATOM     29  O   UNL     1      18.440  30.177   8.689  0.00  0.00    +0.000 OA
ATOM     30  N   UNL     1      20.688  30.279   8.239  0.00  0.00    +0.000 N 
ATOM     31  C   UNL     1      21.696  29.680   7.542  0.00  0.00    +0.000 C 
ATOM     32  H   UNL     1      20.866  31.073   8.835  0.00  0.00    +0.000 HD
ATOM     33  O   UNL     1      22.864  30.028   7.567  0.00  0.00    +0.000 OA
ENDBRANCH  18  19
ENDBRANCH   1  18
TORSDOF 4
ENDMDL
MODEL 8
REMARK VINA RESULT:      -7.4      6.360      7.646
REMARK  Name = Troglitazone.pdbqt.pdb
REMARK  4 active torsions:
REMARK  status: ('A' for Active; 'I' for Inactive)
REMARK    1  A    between atoms: C_1  and  O_2
REMARK    2  A    between atoms: C_1  and  C_18
REMARK    3  A    between atoms: O_2  and  C_3
REMARK    4  A    between atoms: C_26  and  O_32
REMARK                            x       y       z     vdW  Elec       q    Type
REMARK                         _______ _______ _______ _____ _____    ______ ____
ROOT
ATOM      1  C   UNL     1      48.320  -1.348  10.624  0.00  0.00    +0.000 C 
ENDROOT
BRANCH   1   2
ATOM      2  C   UNL     1      46.976  -1.940  10.520  0.00  0.00    +0.000 C 
ATOM      3  O   UNL     1      46.566  -2.325  11.882  0.00  0.00    +0.000 OA
ATOM      4  C   UNL     1      45.764  -3.438  12.163  0.00  0.00    +0.000 A 
ATOM      5  C   UNL     1      45.605  -4.548  11.282  0.00  0.00    +0.000 A 
ATOM      6  C   UNL     1      45.133  -3.465  13.424  0.00  0.00    +0.000 A 
ATOM      7  C   UNL     1      46.297  -4.422  10.050  0.00  0.00    +0.000 C 
ATOM      8  C   UNL     1      44.814  -5.650  11.629  0.00  0.00    +0.000 A 
ATOM      9  C   UNL     1      46.972  -3.140   9.692  0.00  0.00    +0.000 C 
ATOM     10  C   UNL     1      44.176  -5.658  12.879  0.00  0.00    +0.000 A 
ATOM     11  C   UNL     1      44.662  -6.816  10.675  0.00  0.00    +0.000 C 
ATOM     12  C   UNL     1      44.333  -4.577  13.772  0.00  0.00    +0.000 A 
ATOM     13  C   UNL     1      43.605  -4.703  15.110  0.00  0.00    +0.000 C 
ATOM     14  C   UNL     1      45.349  -2.298  14.379  0.00  0.00    +0.000 C 
ATOM     15  C   UNL     1      45.936  -0.910  10.015  0.00  0.00    +0.000 C 
BRANCH  10  16
ATOM     16  O   UNL     1      43.390  -6.737  13.248  0.00  0.00    +0.000 OA
ATOM     17  H   UNL     1      43.979  -7.507  13.403  0.00  0.00    +0.000 HD
ENDBRANCH  10  16
ENDBRANCH   1   2
BRANCH   1  18
ATOM     18  O   UNL     1      49.533  -0.801  10.720  0.00  0.00    +0.000 OA
BRANCH  18  19
ATOM     19  C   UNL     1      49.818   0.134   9.756  0.00  0.00    +0.000 C 
ATOM     20  C   UNL     1      48.927   1.117   9.320  0.00  0.00    +0.000 C 
ATOM     21  C   UNL     1      49.312   2.028   8.339  0.00  0.00    +0.000 C 
ATOM     22  C   UNL     1      50.590   1.957   7.792  0.00  0.00    +0.000 C 
ATOM     23  C   UNL     1      51.483   0.978   8.221  0.00  0.00    +0.000 C 
ATOM     24  C   UNL     1      51.097   0.068   9.204  0.00  0.00    +0.000 C 
ATOM     25  C   UNL     1      50.986   2.888   6.790  0.00  0.00    +0.000 C 
ATOM     26  C   UNL     1      51.382   3.804   5.789  0.00  0.00    +0.000 C 
ATOM     27  S   UNL     1      50.985   5.480   5.774  0.00  0.00    +0.000 S 
ATOM     28  C   UNL     1      51.860   5.743   4.279  0.00  0.00    +0.000 C 
ATOM     29  O   UNL     1      51.959   6.823   3.722  0.00  0.00    +0.000 OA
ATOM     30  N   UNL     1      52.405   4.576   3.852  0.00  0.00    +0.000 N 
ATOM     31  C   UNL     1      52.207   3.461   4.612  0.00  0.00    +0.000 C 
ATOM     32  H   UNL     1      52.950   4.540   3.006  0.00  0.00    +0.000 HD
ATOM     33  O   UNL     1      52.650   2.354   4.356  0.00  0.00    +0.000 OA
ENDBRANCH  18  19
ENDBRANCH   1  18
TORSDOF 4
ENDMDL
MODEL 9
REMARK VINA RESULT:      -7.2     34.030     37.961
REMARK  Name = Troglitazone.pdbqt.pdb
REMARK  4 active torsions:
REMARK  status: ('A' for Active; 'I' for Inactive)
REMARK    1  A    between atoms: C_1  and  O_2
REMARK    2  A    between atoms: C_1  and  C_18
REMARK    3  A    between atoms: O_2  and  C_3
REMARK    4  A    between atoms: C_26  and  O_32
REMARK                            x       y       z     vdW  Elec       q    Type
REMARK                         _______ _______ _______ _____ _____    ______ ____
ROOT
ATOM      1  C   UNL     1      13.431   8.661  28.564  0.00  0.00    +0.000 C 
ENDROOT
BRANCH   1   2
ATOM      2  C   UNL     1      12.990   8.777  29.964  0.00  0.00    +0.000 C 
ATOM      3  O   UNL     1      13.581   7.647  30.701  0.00  0.00    +0.000 OA
ATOM      4  C   UNL     1      12.950   7.009  31.775  0.00  0.00    +0.000 A 
ATOM      5  C   UNL     1      11.545   7.056  32.016  0.00  0.00    +0.000 A 
ATOM      6  C   UNL     1      13.767   6.231  32.622  0.00  0.00    +0.000 A 
ATOM      7  C   UNL     1      10.819   7.854  31.093  0.00  0.00    +0.000 C 
ATOM      8  C   UNL     1      10.963   6.371  33.089  0.00  0.00    +0.000 A 
ATOM      9  C   UNL     1      11.540   8.687  30.087  0.00  0.00    +0.000 C 
ATOM     10  C   UNL     1      11.788   5.615  33.937  0.00  0.00    +0.000 A 
ATOM     11  C   UNL     1       9.469   6.439  33.322  0.00  0.00    +0.000 C 
ATOM     12  C   UNL     1      13.178   5.543  33.707  0.00  0.00    +0.000 A 
ATOM     13  C   UNL     1      13.973   4.676  34.684  0.00  0.00    +0.000 C 
ATOM     14  C   UNL     1      15.259   6.146  32.328  0.00  0.00    +0.000 C 
ATOM     15  C   UNL     1      13.525  10.071  30.625  0.00  0.00    +0.000 C 
BRANCH  10  16
ATOM     16  O   UNL     1      11.238   4.926  35.005  0.00  0.00    +0.000 OA
ATOM     17  H   UNL     1      11.962   4.454  35.471  0.00  0.00    +0.000 HD
ENDBRANCH  10  16
ENDBRANCH   1   2
BRANCH   1  18
ATOM     18  O   UNL     1      13.822   8.550  27.293  0.00  0.00    +0.000 OA
BRANCH  18  19
ATOM     19  C   UNL     1      14.393   7.343  26.973  0.00  0.00    +0.000 C 
ATOM     20  C   UNL     1      13.890   6.101  27.367  0.00  0.00    +0.000 C 
ATOM     21  C   UNL     1      14.538   4.928  26.985  0.00  0.00    +0.000 C 
ATOM     22  C   UNL     1      15.691   4.996  26.208  0.00  0.00    +0.000 C 
ATOM     23  C   UNL     1      16.198   6.232  25.812  0.00  0.00    +0.000 C 
ATOM     24  C   UNL     1      15.548   7.404  26.194  0.00  0.00    +0.000 C 
ATOM     25  C   UNL     1      16.354   3.799  25.816  0.00  0.00    +0.000 C 
ATOM     26  C   UNL     1      17.021   2.614  25.430  0.00  0.00    +0.000 C 
ATOM     27  S   UNL     1      16.242   1.158  24.942  0.00  0.00    +0.000 S 
ATOM     28  C   UNL     1      17.772   0.349  24.674  0.00  0.00    +0.000 C 
ATOM     29  O   UNL     1      17.882  -0.800  24.281  0.00  0.00    +0.000 OA
ATOM     30  N   UNL     1      18.796   1.191  24.963  0.00  0.00    +0.000 N 
ATOM     31  C   UNL     1      18.489   2.454  25.376  0.00  0.00    +0.000 C 
ATOM     32  H   UNL     1      19.753   0.894  24.861  0.00  0.00    +0.000 HD
ATOM     33  O   UNL     1      19.307   3.315  25.654  0.00  0.00    +0.000 OA
ENDBRANCH  18  19
ENDBRANCH   1  18
TORSDOF 4
ENDMDL
