MODEL 1
REMARK VINA RESULT:      -7.4      0.000      0.000
REMARK  Name = 
REMARK  19 active torsions:
REMARK  status: ('A' for Active; 'I' for Inactive)
REMARK    1  A    between atoms: O_1  and  C_20
REMARK    2  A    between atoms: O_1  and  C_36
REMARK    3  A    between atoms: O_2  and  C_18
REMARK    4  A    between atoms: O_3  and  C_28
REMARK    5  A    between atoms: O_3  and  C_42
REMARK    6  A    between atoms: O_5  and  C_34
REMARK    7  A    between atoms: O_5  and  C_50
REMARK    8  A    between atoms: O_7  and  C_40
REMARK    9  A    between atoms: O_7  and  C_56
REMARK   10  A    between atoms: O_9  and  C_46
REMARK   11  A    between atoms: N_11  and  C_30
REMARK   12  A    between atoms: C_17  and  C_23
REMARK   13  A    between atoms: C_18  and  C_28
REMARK   14  A    between atoms: C_23  and  C_32
REMARK   15  A    between atoms: C_33  and  C_35
REMARK   16  A    between atoms: C_35  and  C_40
REMARK   17  A    between atoms: C_36  and  C_41
REMARK   18  A    between atoms: C_46  and  C_53
REMARK   19  A    between atoms: C_53  and  C_57
REMARK                            x       y       z     vdW  Elec       q    Type
REMARK                         _______ _______ _______ _____ _____    ______ ____
ROOT
ATOM      1  N   UNL     1      46.824  -4.468  10.551  0.00  0.00    +0.000 NA
ATOM      2  N   UNL     1      46.030  -0.446  12.994  0.00  0.00    +0.000 N 
ATOM      3  C   UNL     1      46.420  -2.524  11.773  0.00  0.00    +0.000 C 
ATOM      4  C   UNL     1      46.577  -4.045  11.942  0.00  0.00    +0.000 C 
ATOM      5  C   UNL     1      45.741  -1.910  13.013  0.00  0.00    +0.000 C 
ATOM      6  C   UNL     1      45.359  -4.736  12.712  0.00  0.00    +0.000 C 
ATOM      7  C   UNL     1      44.300  -2.372  13.288  0.00  0.00    +0.000 C 
ATOM      8  C   UNL     1      45.793  -2.340  10.377  0.00  0.00    +0.000 C 
ATOM      9  C   UNL     1      44.053  -3.826  12.765  0.00  0.00    +0.000 C 
ATOM     10  C   UNL     1      47.662  -1.656  11.807  0.00  0.00    +0.000 A 
ATOM     11  C   UNL     1      45.957  -3.687   9.677  0.00  0.00    +0.000 C 
ATOM     12  C   UNL     1      47.358  -0.457  12.466  0.00  0.00    +0.000 A 
ATOM     13  C   UNL     1      44.969  -6.068  12.067  0.00  0.00    +0.000 C 
ATOM     14  C   UNL     1      46.755  -5.904  10.328  0.00  0.00    +0.000 C 
ATOM     15  C   UNL     1      45.611  -6.584  11.009  0.00  0.00    +0.000 C 
ATOM     16  C   UNL     1      48.915  -1.894  11.252  0.00  0.00    +0.000 A 
ATOM     17  C   UNL     1      45.881   0.289  14.249  0.00  0.00    +0.000 C 
ATOM     18  C   UNL     1      48.310   0.541  12.540  0.00  0.00    +0.000 A 
ATOM     19  C   UNL     1      49.910  -0.898  11.315  0.00  0.00    +0.000 A 
ATOM     20  C   UNL     1      49.572   0.327  11.962  0.00  0.00    +0.000 A 
ENDROOT
BRANCH  19  23
ATOM     21  N   UNL     1      55.013  -2.270   8.737  0.00  0.00    +0.000 NA
ATOM     22  N   UNL     1      50.505   0.460   8.865  0.00  0.00    +0.000 N 
ATOM     23  C   UNL     1      51.342  -1.104  10.678  0.00  0.00    +0.000 C 
ATOM     24  C   UNL     1      51.486  -2.556  10.030  0.00  0.00    +0.000 C 
ATOM     25  C   UNL     1      51.598  -0.064   9.535  0.00  0.00    +0.000 A 
ATOM     26  C   UNL     1      52.675  -2.780   9.081  0.00  0.00    +0.000 C 
ATOM     27  C   UNL     1      52.682  -4.130   8.365  0.00  0.00    +0.000 C 
ATOM     28  C   UNL     1      54.037  -2.643   9.746  0.00  0.00    +0.000 C 
ATOM     29  C   UNL     1      52.735   0.456   8.891  0.00  0.00    +0.000 A 
ATOM     30  C   UNL     1      53.896  -4.260   7.397  0.00  0.00    +0.000 C 
ATOM     31  C   UNL     1      55.129  -3.312   7.694  0.00  0.00    +0.000 C 
ATOM     32  C   UNL     1      54.218   0.194   9.104  0.00  0.00    +0.000 C 
ATOM     33  C   UNL     1      54.809  -0.909   8.175  0.00  0.00    +0.000 C 
ATOM     34  C   UNL     1      52.262   1.344   7.855  0.00  0.00    +0.000 A 
ATOM     35  C   UNL     1      50.875   1.322   7.871  0.00  0.00    +0.000 A 
ATOM     36  C   UNL     1      52.901   2.155   6.889  0.00  0.00    +0.000 A 
ATOM     37  C   UNL     1      50.085   2.067   6.987  0.00  0.00    +0.000 A 
ATOM     38  C   UNL     1      52.131   2.910   5.997  0.00  0.00    +0.000 A 
ATOM     39  C   UNL     1      50.742   2.865   6.047  0.00  0.00    +0.000 A 
ATOM     40  H   UNL     1      49.541   0.253   9.091  0.00  0.00    +0.000 HD
BRANCH  23  42
ATOM     41  O   UNL     1      53.179  -0.052  12.018  0.00  0.00    +0.000 OA
ATOM     42  C   UNL     1      52.344  -0.936  11.868  0.00  0.00    +0.000 C 
BRANCH  42  43
ATOM     43  O   UNL     1      52.146  -1.936  12.791  0.00  0.00    +0.000 OA
ATOM     44  C   UNL     1      52.265  -1.504  14.147  0.00  0.00    +0.000 C 
ENDBRANCH  42  43
ENDBRANCH  23  42
BRANCH  30  45
ATOM     45  O   UNL     1      54.360  -5.626   7.549  0.00  0.00    +0.000 OA
ATOM     46  H   UNL     1      55.215  -5.592   8.013  0.00  0.00    +0.000 HD
ENDBRANCH  30  45
BRANCH  30  47
ATOM     47  C   UNL     1      53.453  -4.183   5.917  0.00  0.00    +0.000 C 
ATOM     48  C   UNL     1      54.441  -3.563   4.944  0.00  0.00    +0.000 C 
ENDBRANCH  30  47
ENDBRANCH  19  23
BRANCH   7  49
ATOM     49  O   UNL     1      44.185  -2.444  14.746  0.00  0.00    +0.000 OA
ATOM     50  H   UNL     1      45.094  -2.335  15.094  0.00  0.00    +0.000 HD
ENDBRANCH   7  49
BRANCH   7  52
ATOM     51  O   UNL     1      43.350  -0.640  11.784  0.00  0.00    +0.000 OA
ATOM     52  C   UNL     1      43.246  -1.366  12.763  0.00  0.00    +0.000 C 
BRANCH  52  53
ATOM     53  O   UNL     1      42.104  -1.456  13.523  0.00  0.00    +0.000 OA
ATOM     54  C   UNL     1      41.651  -0.204  14.039  0.00  0.00    +0.000 C 
ENDBRANCH  52  53
ENDBRANCH   7  52
BRANCH  20  55
ATOM     55  O   UNL     1      50.556   1.279  12.057  0.00  0.00    +0.000 OA
ATOM     56  C   UNL     1      50.604   1.980  13.296  0.00  0.00    +0.000 C 
ENDBRANCH  20  55
BRANCH   6  57
ATOM     57  C   UNL     1      45.790  -5.076  14.187  0.00  0.00    +0.000 C 
ATOM     58  C   UNL     1      47.241  -4.769  14.562  0.00  0.00    +0.000 C 
ENDBRANCH   6  57
BRANCH   9  59
ATOM     59  O   UNL     1      43.442  -3.836  11.453  0.00  0.00    +0.000 OA
BRANCH  59  61
ATOM     60  O   UNL     1      41.722  -5.166  12.172  0.00  0.00    +0.000 OA
ATOM     61  C   UNL     1      42.371  -4.654  11.271  0.00  0.00    +0.000 C 
ATOM     62  C   UNL     1      42.080  -4.808   9.811  0.00  0.00    +0.000 C 
ENDBRANCH  59  61
ENDBRANCH   9  59
TORSDOF 12
ENDMDL
MODEL 2
REMARK VINA RESULT:      -7.3     21.311     25.791
REMARK  Name = 
REMARK  19 active torsions:
REMARK  status: ('A' for Active; 'I' for Inactive)
REMARK    1  A    between atoms: O_1  and  C_20
REMARK    2  A    between atoms: O_1  and  C_36
REMARK    3  A    between atoms: O_2  and  C_18
REMARK    4  A    between atoms: O_3  and  C_28
REMARK    5  A    between atoms: O_3  and  C_42
REMARK    6  A    between atoms: O_5  and  C_34
REMARK    7  A    between atoms: O_5  and  C_50
REMARK    8  A    between atoms: O_7  and  C_40
REMARK    9  A    between atoms: O_7  and  C_56
REMARK   10  A    between atoms: O_9  and  C_46
REMARK   11  A    between atoms: N_11  and  C_30
REMARK   12  A    between atoms: C_17  and  C_23
REMARK   13  A    between atoms: C_18  and  C_28
REMARK   14  A    between atoms: C_23  and  C_32
REMARK   15  A    between atoms: C_33  and  C_35
REMARK   16  A    between atoms: C_35  and  C_40
REMARK   17  A    between atoms: C_36  and  C_41
REMARK   18  A    between atoms: C_46  and  C_53
REMARK   19  A    between atoms: C_53  and  C_57
REMARK                            x       y       z     vdW  Elec       q    Type
REMARK                         _______ _______ _______ _____ _____    ______ ____
ROOT
ATOM      1  N   UNL     1      23.376  -5.194  17.223  0.00  0.00    +0.000 NA
ATOM      2  N   UNL     1      28.000  -4.953  16.063  0.00  0.00    +0.000 N 
ATOM      3  C   UNL     1      25.631  -5.038  16.651  0.00  0.00    +0.000 C 
ATOM      4  C   UNL     1      24.458  -4.193  17.179  0.00  0.00    +0.000 C 
ATOM      5  C   UNL     1      26.756  -4.127  16.121  0.00  0.00    +0.000 C 
ATOM      6  C   UNL     1      24.191  -2.864  16.331  0.00  0.00    +0.000 C 
ATOM      7  C   UNL     1      26.397  -3.252  14.909  0.00  0.00    +0.000 C 
ATOM      8  C   UNL     1      24.984  -6.087  15.727  0.00  0.00    +0.000 C 
ATOM      9  C   UNL     1      24.876  -2.889  14.894  0.00  0.00    +0.000 C 
ATOM     10  C   UNL     1      26.481  -5.803  17.647  0.00  0.00    +0.000 A 
ATOM     11  C   UNL     1      23.491  -6.041  16.043  0.00  0.00    +0.000 C 
ATOM     12  C   UNL     1      27.816  -5.767  17.223  0.00  0.00    +0.000 A 
ATOM     13  C   UNL     1      22.694  -2.620  16.127  0.00  0.00    +0.000 C 
ATOM     14  C   UNL     1      22.045  -4.646  17.435  0.00  0.00    +0.000 C 
ATOM     15  C   UNL     1      21.746  -3.418  16.638  0.00  0.00    +0.000 C 
ATOM     16  C   UNL     1      26.087  -6.507  18.780  0.00  0.00    +0.000 A 
ATOM     17  C   UNL     1      29.278  -4.245  16.013  0.00  0.00    +0.000 C 
ATOM     18  C   UNL     1      28.773  -6.480  17.920  0.00  0.00    +0.000 A 
ATOM     19  C   UNL     1      27.039  -7.239  19.516  0.00  0.00    +0.000 A 
ATOM     20  C   UNL     1      28.387  -7.216  19.052  0.00  0.00    +0.000 A 
ENDROOT
BRANCH  19  23
ATOM     21  N   UNL     1      26.080 -10.767  24.121  0.00  0.00    +0.000 NA
ATOM     22  N   UNL     1      27.788  -6.216  22.083  0.00  0.00    +0.000 N 
ATOM     23  C   UNL     1      26.642  -8.077  20.797  0.00  0.00    +0.000 C 
ATOM     24  C   UNL     1      27.548  -9.385  20.938  0.00  0.00    +0.000 C 
ATOM     25  C   UNL     1      26.850  -7.234  22.101  0.00  0.00    +0.000 A 
ATOM     26  C   UNL     1      27.522 -10.106  22.297  0.00  0.00    +0.000 C 
ATOM     27  C   UNL     1      28.519 -11.255  22.434  0.00  0.00    +0.000 C 
ATOM     28  C   UNL     1      26.162 -10.674  22.674  0.00  0.00    +0.000 C 
ATOM     29  C   UNL     1      26.365  -7.294  23.420  0.00  0.00    +0.000 A 
ATOM     30  C   UNL     1      28.455 -11.905  23.848  0.00  0.00    +0.000 C 
ATOM     31  C   UNL     1      27.111 -11.683  24.656  0.00  0.00    +0.000 C 
ATOM     32  C   UNL     1      25.386  -8.246  24.087  0.00  0.00    +0.000 C 
ATOM     33  C   UNL     1      26.063  -9.450  24.809  0.00  0.00    +0.000 C 
ATOM     34  C   UNL     1      27.019  -6.237  24.156  0.00  0.00    +0.000 A 
ATOM     35  C   UNL     1      27.892  -5.590  23.294  0.00  0.00    +0.000 A 
ATOM     36  C   UNL     1      26.953  -5.786  25.494  0.00  0.00    +0.000 A 
ATOM     37  C   UNL     1      28.699  -4.513  23.684  0.00  0.00    +0.000 A 
ATOM     38  C   UNL     1      27.749  -4.711  25.905  0.00  0.00    +0.000 A 
ATOM     39  C   UNL     1      28.609  -4.084  25.010  0.00  0.00    +0.000 A 
ATOM     40  H   UNL     1      28.325  -5.944  21.269  0.00  0.00    +0.000 HD
BRANCH  23  42
ATOM     41  O   UNL     1      24.154  -7.911  21.030  0.00  0.00    +0.000 OA
ATOM     42  C   UNL     1      25.144  -8.471  20.578  0.00  0.00    +0.000 C 
BRANCH  42  43
ATOM     43  O   UNL     1      25.065  -9.564  19.746  0.00  0.00    +0.000 OA
ATOM     44  C   UNL     1      23.905  -9.575  18.914  0.00  0.00    +0.000 C 
ENDBRANCH  42  43
ENDBRANCH  23  42
BRANCH  30  45
ATOM     45  O   UNL     1      28.586 -13.331  23.619  0.00  0.00    +0.000 OA
ATOM     46  H   UNL     1      28.335 -13.500  22.693  0.00  0.00    +0.000 HD
ENDBRANCH  30  45
BRANCH  30  47
ATOM     47  C   UNL     1      29.701 -11.551  24.693  0.00  0.00    +0.000 C 
ATOM     48  C   UNL     1      29.518 -11.541  26.201  0.00  0.00    +0.000 C 
ENDBRANCH  30  47
ENDBRANCH  19  23
BRANCH   7  49
ATOM     49  O   UNL     1      27.111  -1.990  15.114  0.00  0.00    +0.000 OA
ATOM     50  H   UNL     1      27.532  -1.776  14.256  0.00  0.00    +0.000 HD
ENDBRANCH   7  49
BRANCH   7  52
ATOM     51  O   UNL     1      26.493  -4.922  13.074  0.00  0.00    +0.000 OA
ATOM     52  C   UNL     1      26.873  -3.870  13.571  0.00  0.00    +0.000 C 
BRANCH  52  53
ATOM     53  O   UNL     1      27.751  -3.013  12.953  0.00  0.00    +0.000 OA
ATOM     54  C   UNL     1      27.130  -2.103  12.044  0.00  0.00    +0.000 C 
ENDBRANCH  52  53
ENDBRANCH   7  52
BRANCH  20  55
ATOM     55  O   UNL     1      29.318  -7.898  19.794  0.00  0.00    +0.000 OA
ATOM     56  C   UNL     1      30.590  -7.265  19.900  0.00  0.00    +0.000 C 
ENDBRANCH  20  55
BRANCH   6  57
ATOM     57  C   UNL     1      24.733  -1.616  17.120  0.00  0.00    +0.000 C 
ATOM     58  C   UNL     1      24.363  -0.241  16.560  0.00  0.00    +0.000 C 
ENDBRANCH   6  57
BRANCH   9  59
ATOM     59  O   UNL     1      24.112  -3.779  14.045  0.00  0.00    +0.000 OA
BRANCH  59  61
ATOM     60  O   UNL     1      23.425  -2.042  12.718  0.00  0.00    +0.000 OA
ATOM     61  C   UNL     1      23.348  -3.210  13.074  0.00  0.00    +0.000 C 
ATOM     62  C   UNL     1      22.424  -4.228  12.481  0.00  0.00    +0.000 C 
ENDBRANCH  59  61
ENDBRANCH   9  59
TORSDOF 12
ENDMDL
MODEL 3
REMARK VINA RESULT:      -7.2     35.300     39.677
REMARK  Name = 
REMARK  19 active torsions:
REMARK  status: ('A' for Active; 'I' for Inactive)
REMARK    1  A    between atoms: O_1  and  C_20
REMARK    2  A    between atoms: O_1  and  C_36
REMARK    3  A    between atoms: O_2  and  C_18
REMARK    4  A    between atoms: O_3  and  C_28
REMARK    5  A    between atoms: O_3  and  C_42
REMARK    6  A    between atoms: O_5  and  C_34
REMARK    7  A    between atoms: O_5  and  C_50
REMARK    8  A    between atoms: O_7  and  C_40
REMARK    9  A    between atoms: O_7  and  C_56
REMARK   10  A    between atoms: O_9  and  C_46
REMARK   11  A    between atoms: N_11  and  C_30
REMARK   12  A    between atoms: C_17  and  C_23
REMARK   13  A    between atoms: C_18  and  C_28
REMARK   14  A    between atoms: C_23  and  C_32
REMARK   15  A    between atoms: C_33  and  C_35
REMARK   16  A    between atoms: C_35  and  C_40
REMARK   17  A    between atoms: C_36  and  C_41
REMARK   18  A    between atoms: C_46  and  C_53
REMARK   19  A    between atoms: C_53  and  C_57
REMARK                            x       y       z     vdW  Elec       q    Type
REMARK                         _______ _______ _______ _____ _____    ______ ____
ROOT
ATOM      1  N   UNL     1      21.597  24.597  -1.189  0.00  0.00    +0.000 NA
ATOM      2  N   UNL     1      22.696  21.681   2.426  0.00  0.00    +0.000 N 
ATOM      3  C   UNL     1      22.150  23.148   0.552  0.00  0.00    +0.000 C 
ATOM      4  C   UNL     1      22.550  23.512  -0.889  0.00  0.00    +0.000 C 
ATOM      5  C   UNL     1      22.715  21.766   0.936  0.00  0.00    +0.000 C 
ATOM      6  C   UNL     1      22.572  22.262  -1.885  0.00  0.00    +0.000 C 
ATOM      7  C   UNL     1      22.181  20.574   0.124  0.00  0.00    +0.000 C 
ATOM      8  C   UNL     1      20.634  23.413   0.626  0.00  0.00    +0.000 C 
ATOM      9  C   UNL     1      21.778  21.000  -1.326  0.00  0.00    +0.000 C 
ATOM     10  C   UNL     1      22.780  23.917   1.697  0.00  0.00    +0.000 A 
ATOM     11  C   UNL     1      20.305  24.241  -0.614  0.00  0.00    +0.000 C 
ATOM     12  C   UNL     1      23.014  23.034   2.760  0.00  0.00    +0.000 A 
ATOM     13  C   UNL     1      21.974  22.619  -3.248  0.00  0.00    +0.000 C 
ATOM     14  C   UNL     1      21.537  24.988  -2.589  0.00  0.00    +0.000 C 
ATOM     15  C   UNL     1      21.528  23.846  -3.552  0.00  0.00    +0.000 C 
ATOM     16  C   UNL     1      23.058  25.277   1.794  0.00  0.00    +0.000 A 
ATOM     17  C   UNL     1      23.558  20.682   3.057  0.00  0.00    +0.000 C 
ATOM     18  C   UNL     1      23.497  23.522   3.959  0.00  0.00    +0.000 A 
ATOM     19  C   UNL     1      23.557  25.805   3.001  0.00  0.00    +0.000 A 
ATOM     20  C   UNL     1      23.758  24.897   4.082  0.00  0.00    +0.000 A 
ENDROOT
BRANCH  19  23
ATOM     21  N   UNL     1      24.446  31.617   3.029  0.00  0.00    +0.000 NA
ATOM     22  N   UNL     1      21.795  27.355   4.642  0.00  0.00    +0.000 N 
ATOM     23  C   UNL     1      23.865  27.346   3.176  0.00  0.00    +0.000 C 
ATOM     24  C   UNL     1      23.516  28.162   1.848  0.00  0.00    +0.000 C 
ATOM     25  C   UNL     1      23.002  27.959   4.331  0.00  0.00    +0.000 A 
ATOM     26  C   UNL     1      23.431  29.692   1.975  0.00  0.00    +0.000 C 
ATOM     27  C   UNL     1      22.943  30.415   0.721  0.00  0.00    +0.000 C 
ATOM     28  C   UNL     1      24.742  30.359   2.368  0.00  0.00    +0.000 C 
ATOM     29  C   UNL     1      23.086  29.103   5.144  0.00  0.00    +0.000 A 
ATOM     30  C   UNL     1      22.850  31.954   0.945  0.00  0.00    +0.000 C 
ATOM     31  C   UNL     1      23.729  32.541   2.124  0.00  0.00    +0.000 C 
ATOM     32  C   UNL     1      24.123  30.213   5.212  0.00  0.00    +0.000 C 
ATOM     33  C   UNL     1      23.775  31.462   4.346  0.00  0.00    +0.000 C 
ATOM     34  C   UNL     1      21.907  29.114   5.978  0.00  0.00    +0.000 A 
ATOM     35  C   UNL     1      21.132  28.015   5.639  0.00  0.00    +0.000 A 
ATOM     36  C   UNL     1      21.423  29.980   6.984  0.00  0.00    +0.000 A 
ATOM     37  C   UNL     1      19.906  27.721   6.250  0.00  0.00    +0.000 A 
ATOM     38  C   UNL     1      20.202  29.706   7.610  0.00  0.00    +0.000 A 
ATOM     39  C   UNL     1      19.455  28.590   7.246  0.00  0.00    +0.000 A 
ATOM     40  H   UNL     1      21.446  26.513   4.204  0.00  0.00    +0.000 HD
BRANCH  23  42
ATOM     41  O   UNL     1      25.935  27.708   4.540  0.00  0.00    +0.000 OA
ATOM     42  C   UNL     1      25.399  27.422   3.476  0.00  0.00    +0.000 C 
BRANCH  42  43
ATOM     43  O   UNL     1      26.114  27.084   2.351  0.00  0.00    +0.000 OA
ATOM     44  C   UNL     1      27.396  27.705   2.271  0.00  0.00    +0.000 C 
ENDBRANCH  42  43
ENDBRANCH  23  42
BRANCH  30  45
ATOM     45  O   UNL     1      23.333  32.549  -0.287  0.00  0.00    +0.000 OA
ATOM     46  H   UNL     1      23.044  33.479  -0.292  0.00  0.00    +0.000 HD
ENDBRANCH  30  45
BRANCH  30  47
ATOM     47  C   UNL     1      21.380  32.428   1.032  0.00  0.00    +0.000 C 
ATOM     48  C   UNL     1      20.660  32.168   2.344  0.00  0.00    +0.000 C 
ENDBRANCH  30  47
ENDBRANCH  19  23
BRANCH   7  49
ATOM     49  O   UNL     1      23.318  19.663  -0.025  0.00  0.00    +0.000 OA
ATOM     50  H   UNL     1      22.944  18.758   0.004  0.00  0.00    +0.000 HD
ENDBRANCH   7  49
BRANCH   7  52
ATOM     51  O   UNL     1      19.944  20.264   1.157  0.00  0.00    +0.000 OA
ATOM     52  C   UNL     1      21.044  19.820   0.859  0.00  0.00    +0.000 C 
BRANCH  52  53
ATOM     53  O   UNL     1      21.418  18.514   1.069  0.00  0.00    +0.000 OA
ATOM     54  C   UNL     1      20.996  17.986   2.327  0.00  0.00    +0.000 C 
ENDBRANCH  52  53
ENDBRANCH   7  52
BRANCH  20  55
ATOM     55  O   UNL     1      24.283  25.408   5.242  0.00  0.00    +0.000 OA
ATOM     56  C   UNL     1      23.685  24.926   6.442  0.00  0.00    +0.000 C 
ENDBRANCH  20  55
BRANCH   6  57
ATOM     57  C   UNL     1      24.060  21.832  -2.161  0.00  0.00    +0.000 C 
ATOM     58  C   UNL     1      25.148  22.807  -1.706  0.00  0.00    +0.000 C 
ENDBRANCH   6  57
BRANCH   9  59
ATOM     59  O   UNL     1      20.360  21.272  -1.439  0.00  0.00    +0.000 OA
BRANCH  59  61
ATOM     60  O   UNL     1      20.006  19.399  -2.709  0.00  0.00    +0.000 OA
ATOM     61  C   UNL     1      19.642  20.487  -2.286  0.00  0.00    +0.000 C 
ATOM     62  C   UNL     1      18.327  21.131  -2.596  0.00  0.00    +0.000 C 
ENDBRANCH  59  61
ENDBRANCH   9  59
TORSDOF 12
ENDMDL
MODEL 4
REMARK VINA RESULT:      -6.9     37.042     39.719
REMARK  Name = 
REMARK  19 active torsions:
REMARK  status: ('A' for Active; 'I' for Inactive)
REMARK    1  A    between atoms: O_1  and  C_20
REMARK    2  A    between atoms: O_1  and  C_36
REMARK    3  A    between atoms: O_2  and  C_18
REMARK    4  A    between atoms: O_3  and  C_28
REMARK    5  A    between atoms: O_3  and  C_42
REMARK    6  A    between atoms: O_5  and  C_34
REMARK    7  A    between atoms: O_5  and  C_50
REMARK    8  A    between atoms: O_7  and  C_40
REMARK    9  A    between atoms: O_7  and  C_56
REMARK   10  A    between atoms: O_9  and  C_46
REMARK   11  A    between atoms: N_11  and  C_30
REMARK   12  A    between atoms: C_17  and  C_23
REMARK   13  A    between atoms: C_18  and  C_28
REMARK   14  A    between atoms: C_23  and  C_32
REMARK   15  A    between atoms: C_33  and  C_35
REMARK   16  A    between atoms: C_35  and  C_40
REMARK   17  A    between atoms: C_36  and  C_41
REMARK   18  A    between atoms: C_46  and  C_53
REMARK   19  A    between atoms: C_53  and  C_57
REMARK                            x       y       z     vdW  Elec       q    Type
REMARK                         _______ _______ _______ _____ _____    ______ ____
ROOT
ATOM      1  N   UNL     1      23.893  12.718  34.554  0.00  0.00    +0.000 NA
ATOM      2  N   UNL     1      19.376  14.052  35.327  0.00  0.00    +0.000 N 
ATOM      3  C   UNL     1      21.690  13.360  34.969  0.00  0.00    +0.000 C 
ATOM      4  C   UNL     1      23.034  13.127  35.681  0.00  0.00    +0.000 C 
ATOM      5  C   UNL     1      20.536  13.384  35.990  0.00  0.00    +0.000 C 
ATOM      6  C   UNL     1      22.937  12.129  36.926  0.00  0.00    +0.000 C 
ATOM      7  C   UNL     1      20.290  12.075  36.758  0.00  0.00    +0.000 C 
ATOM      8  C   UNL     1      21.674  12.349  33.806  0.00  0.00    +0.000 C 
ATOM      9  C   UNL     1      21.609  11.251  36.925  0.00  0.00    +0.000 C 
ATOM     10  C   UNL     1      21.416  14.722  34.362  0.00  0.00    +0.000 A 
ATOM     11  C   UNL     1      23.112  11.855  33.677  0.00  0.00    +0.000 C 
ATOM     12  C   UNL     1      20.062  15.035  34.548  0.00  0.00    +0.000 A 
ATOM     13  C   UNL     1      24.128  11.168  36.970  0.00  0.00    +0.000 C 
ATOM     14  C   UNL     1      25.183  12.165  34.938  0.00  0.00    +0.000 C 
ATOM     15  C   UNL     1      25.131  11.205  36.082  0.00  0.00    +0.000 C 
ATOM     16  C   UNL     1      22.278  15.563  33.666  0.00  0.00    +0.000 A 
ATOM     17  C   UNL     1      18.322  14.587  36.187  0.00  0.00    +0.000 C 
ATOM     18  C   UNL     1      19.547  16.191  33.994  0.00  0.00    +0.000 A 
ATOM     19  C   UNL     1      21.784  16.752  33.094  0.00  0.00    +0.000 A 
ATOM     20  C   UNL     1      20.398  17.038  33.266  0.00  0.00    +0.000 A 
ENDROOT
BRANCH  19  23
ATOM     21  N   UNL     1      24.822  20.893  30.230  0.00  0.00    +0.000 NA
ATOM     22  N   UNL     1      24.300  17.505  34.235  0.00  0.00    +0.000 N 
ATOM     23  C   UNL     1      22.713  17.732  32.270  0.00  0.00    +0.000 C 
ATOM     24  C   UNL     1      22.141  19.223  32.285  0.00  0.00    +0.000 C 
ATOM     25  C   UNL     1      24.152  17.786  32.887  0.00  0.00    +0.000 A 
ATOM     26  C   UNL     1      23.098  20.339  31.833  0.00  0.00    +0.000 C 
ATOM     27  C   UNL     1      22.561  21.758  32.012  0.00  0.00    +0.000 C 
ATOM     28  C   UNL     1      23.538  20.231  30.380  0.00  0.00    +0.000 C 
ATOM     29  C   UNL     1      25.426  18.162  32.425  0.00  0.00    +0.000 A 
ATOM     30  C   UNL     1      23.603  22.827  31.566  0.00  0.00    +0.000 C 
ATOM     31  C   UNL     1      24.722  22.332  30.561  0.00  0.00    +0.000 C 
ATOM     32  C   UNL     1      25.895  18.660  31.067  0.00  0.00    +0.000 C 
ATOM     33  C   UNL     1      25.937  20.213  30.940  0.00  0.00    +0.000 C 
ATOM     34  C   UNL     1      26.332  18.037  33.543  0.00  0.00    +0.000 A 
ATOM     35  C   UNL     1      25.598  17.627  34.646  0.00  0.00    +0.000 A 
ATOM     36  C   UNL     1      27.717  18.258  33.713  0.00  0.00    +0.000 A 
ATOM     37  C   UNL     1      26.165  17.413  35.909  0.00  0.00    +0.000 A 
ATOM     38  C   UNL     1      28.306  18.049  34.966  0.00  0.00    +0.000 A 
ATOM     39  C   UNL     1      27.537  17.632  36.048  0.00  0.00    +0.000 A 
ATOM     40  H   UNL     1      23.547  17.220  34.848  0.00  0.00    +0.000 HD
BRANCH  23  42
ATOM     41  O   UNL     1      23.682  16.796  30.158  0.00  0.00    +0.000 OA
ATOM     42  C   UNL     1      22.714  17.162  30.813  0.00  0.00    +0.000 C 
BRANCH  42  43
ATOM     43  O   UNL     1      21.425  17.089  30.338  0.00  0.00    +0.000 OA
ATOM     44  C   UNL     1      21.110  15.849  29.705  0.00  0.00    +0.000 C 
ENDBRANCH  42  43
ENDBRANCH  23  42
BRANCH  30  45
ATOM     45  O   UNL     1      22.834  23.847  30.882  0.00  0.00    +0.000 OA
ATOM     46  H   UNL     1      23.341  24.114  30.095  0.00  0.00    +0.000 HD
ENDBRANCH  30  45
BRANCH  30  47
ATOM     47  C   UNL     1      24.208  23.572  32.780  0.00  0.00    +0.000 C 
ATOM     48  C   UNL     1      25.405  22.919  33.449  0.00  0.00    +0.000 C 
ENDBRANCH  30  47
ENDBRANCH  19  23
BRANCH   7  49
ATOM     49  O   UNL     1      19.896  12.483  38.108  0.00  0.00    +0.000 OA
ATOM     50  H   UNL     1      19.332  11.760  38.454  0.00  0.00    +0.000 HD
ENDBRANCH   7  49
BRANCH   7  52
ATOM     51  O   UNL     1      18.933  11.035  34.957  0.00  0.00    +0.000 OA
ATOM     52  C   UNL     1      19.140  11.237  36.146  0.00  0.00    +0.000 C 
BRANCH  52  53
ATOM     53  O   UNL     1      18.402  10.663  37.152  0.00  0.00    +0.000 OA
ATOM     54  C   UNL     1      17.012  10.528  36.848  0.00  0.00    +0.000 C 
ENDBRANCH  52  53
ENDBRANCH   7  52
BRANCH  20  55
ATOM     55  O   UNL     1      19.931  18.217  32.742  0.00  0.00    +0.000 OA
ATOM     56  C   UNL     1      18.512  18.336  32.685  0.00  0.00    +0.000 C 
ENDBRANCH  20  55
BRANCH   6  57
ATOM     57  C   UNL     1      22.991  12.950  38.268  0.00  0.00    +0.000 C 
ATOM     58  C   UNL     1      23.916  14.168  38.286  0.00  0.00    +0.000 C 
ENDBRANCH   6  57
BRANCH   9  59
ATOM     59  O   UNL     1      21.744  10.229  35.908  0.00  0.00    +0.000 OA
BRANCH  59  61
ATOM     60  O   UNL     1      22.565   8.100  35.699  0.00  0.00    +0.000 OA
ATOM     61  C   UNL     1      21.961   8.955  36.332  0.00  0.00    +0.000 C 
ATOM     62  C   UNL     1      21.385   8.761  37.700  0.00  0.00    +0.000 C 
ENDBRANCH  59  61
ENDBRANCH   9  59
TORSDOF 12
ENDMDL
MODEL 5
REMARK VINA RESULT:      -6.9      3.005      5.728
REMARK  Name = 
REMARK  19 active torsions:
REMARK  status: ('A' for Active; 'I' for Inactive)
REMARK    1  A    between atoms: O_1  and  C_20
REMARK    2  A    between atoms: O_1  and  C_36
REMARK    3  A    between atoms: O_2  and  C_18
REMARK    4  A    between atoms: O_3  and  C_28
REMARK    5  A    between atoms: O_3  and  C_42
REMARK    6  A    between atoms: O_5  and  C_34
REMARK    7  A    between atoms: O_5  and  C_50
REMARK    8  A    between atoms: O_7  and  C_40
REMARK    9  A    between atoms: O_7  and  C_56
REMARK   10  A    between atoms: O_9  and  C_46
REMARK   11  A    between atoms: N_11  and  C_30
REMARK   12  A    between atoms: C_17  and  C_23
REMARK   13  A    between atoms: C_18  and  C_28
REMARK   14  A    between atoms: C_23  and  C_32
REMARK   15  A    between atoms: C_33  and  C_35
REMARK   16  A    between atoms: C_35  and  C_40
REMARK   17  A    between atoms: C_36  and  C_41
REMARK   18  A    between atoms: C_46  and  C_53
REMARK   19  A    between atoms: C_53  and  C_57
REMARK                            x       y       z     vdW  Elec       q    Type
REMARK                         _______ _______ _______ _____ _____    ______ ____
ROOT
ATOM      1  N   UNL     1      47.794  -3.518  12.854  0.00  0.00    +0.000 NA
ATOM      2  N   UNL     1      45.007  -6.448  10.319  0.00  0.00    +0.000 N 
ATOM      3  C   UNL     1      46.411  -4.919  11.605  0.00  0.00    +0.000 C 
ATOM      4  C   UNL     1      46.854  -3.449  11.719  0.00  0.00    +0.000 C 
ATOM      5  C   UNL     1      45.119  -5.029  10.771  0.00  0.00    +0.000 C 
ATOM      6  C   UNL     1      45.639  -2.418  11.837  0.00  0.00    +0.000 C 
ATOM      7  C   UNL     1      43.876  -4.345  11.364  0.00  0.00    +0.000 C 
ATOM      8  C   UNL     1      46.450  -5.462  13.046  0.00  0.00    +0.000 C 
ATOM      9  C   UNL     1      44.265  -3.113  12.246  0.00  0.00    +0.000 C 
ATOM     10  C   UNL     1      47.244  -5.865  10.763  0.00  0.00    +0.000 A 
ATOM     11  C   UNL     1      47.243  -4.432  13.847  0.00  0.00    +0.000 C 
ATOM     12  C   UNL     1      46.386  -6.752  10.098  0.00  0.00    +0.000 A 
ATOM     13  C   UNL     1      45.928  -1.323  12.867  0.00  0.00    +0.000 C 
ATOM     14  C   UNL     1      48.197  -2.227  13.392  0.00  0.00    +0.000 C 
ATOM     15  C   UNL     1      47.082  -1.243  13.545  0.00  0.00    +0.000 C 
ATOM     16  C   UNL     1      48.627  -5.957  10.653  0.00  0.00    +0.000 A 
ATOM     17  C   UNL     1      44.133  -6.727   9.181  0.00  0.00    +0.000 C 
ATOM     18  C   UNL     1      46.918  -7.777   9.340  0.00  0.00    +0.000 A 
ATOM     19  C   UNL     1      49.202  -6.988   9.882  0.00  0.00    +0.000 A 
ATOM     20  C   UNL     1      48.313  -7.900   9.239  0.00  0.00    +0.000 A 
ENDROOT
BRANCH  19  23
ATOM     21  N   UNL     1      54.905  -7.858   8.746  0.00  0.00    +0.000 NA
ATOM     22  N   UNL     1      50.766  -4.649   9.354  0.00  0.00    +0.000 N 
ATOM     23  C   UNL     1      50.768  -7.155   9.744  0.00  0.00    +0.000 C 
ATOM     24  C   UNL     1      51.157  -7.855   8.362  0.00  0.00    +0.000 C 
ATOM     25  C   UNL     1      51.481  -5.761   9.768  0.00  0.00    +0.000 A 
ATOM     26  C   UNL     1      52.630  -7.771   7.930  0.00  0.00    +0.000 C 
ATOM     27  C   UNL     1      52.923  -8.316   6.533  0.00  0.00    +0.000 C 
ATOM     28  C   UNL     1      53.596  -8.475   8.873  0.00  0.00    +0.000 C 
ATOM     29  C   UNL     1      52.786  -5.308  10.032  0.00  0.00    +0.000 A 
ATOM     30  C   UNL     1      54.428  -8.160   6.160  0.00  0.00    +0.000 C 
ATOM     31  C   UNL     1      55.434  -8.005   7.373  0.00  0.00    +0.000 C 
ATOM     32  C   UNL     1      54.046  -6.057  10.437  0.00  0.00    +0.000 C 
ATOM     33  C   UNL     1      54.960  -6.457   9.240  0.00  0.00    +0.000 C 
ATOM     34  C   UNL     1      52.790  -3.881   9.807  0.00  0.00    +0.000 A 
ATOM     35  C   UNL     1      51.521  -3.510   9.389  0.00  0.00    +0.000 A 
ATOM     36  C   UNL     1      53.776  -2.874   9.907  0.00  0.00    +0.000 A 
ATOM     37  C   UNL     1      51.172  -2.190   9.074  0.00  0.00    +0.000 A 
ATOM     38  C   UNL     1      53.450  -1.548   9.599  0.00  0.00    +0.000 A 
ATOM     39  C   UNL     1      52.164  -1.214   9.188  0.00  0.00    +0.000 A 
ATOM     40  H   UNL     1      49.794  -4.663   9.076  0.00  0.00    +0.000 HD
BRANCH  23  42
ATOM     41  O   UNL     1      51.418  -9.261  10.935  0.00  0.00    +0.000 OA
ATOM     42  C   UNL     1      51.189  -8.058  10.950  0.00  0.00    +0.000 C 
BRANCH  42  43
ATOM     43  O   UNL     1      51.307  -7.293  12.087  0.00  0.00    +0.000 OA
ATOM     44  C   UNL     1      52.185  -7.846  13.068  0.00  0.00    +0.000 C 
ENDBRANCH  42  43
ENDBRANCH  23  42
BRANCH  30  45
ATOM     45  O   UNL     1      54.778  -9.384   5.467  0.00  0.00    +0.000 OA
ATOM     46  H   UNL     1      55.366  -9.142   4.729  0.00  0.00    +0.000 HD
ENDBRANCH  30  45
BRANCH  30  47
ATOM     47  C   UNL     1      54.637  -7.059   5.094  0.00  0.00    +0.000 C 
ATOM     48  C   UNL     1      54.551  -5.621   5.577  0.00  0.00    +0.000 C 
ENDBRANCH  30  47
ENDBRANCH  19  23
BRANCH   7  49
ATOM     49  O   UNL     1      43.144  -3.804  10.216  0.00  0.00    +0.000 OA
ATOM     50  H   UNL     1      42.195  -3.851  10.456  0.00  0.00    +0.000 HD
ENDBRANCH   7  49
BRANCH   7  52
ATOM     51  O   UNL     1      43.248  -6.034  13.071  0.00  0.00    +0.000 OA
ATOM     52  C   UNL     1      42.952  -5.340  12.109  0.00  0.00    +0.000 C 
BRANCH  52  53
ATOM     53  O   UNL     1      41.687  -5.280  11.577  0.00  0.00    +0.000 OA
ATOM     54  C   UNL     1      41.176  -6.545  11.152  0.00  0.00    +0.000 C 
ENDBRANCH  52  53
ENDBRANCH   7  52
BRANCH  20  55
ATOM     55  O   UNL     1      48.876  -8.877   8.457  0.00  0.00    +0.000 OA
ATOM     56  C   UNL     1      48.323 -10.180   8.624  0.00  0.00    +0.000 C 
ENDBRANCH  20  55
BRANCH   6  57
ATOM     57  C   UNL     1      45.435  -1.681  10.463  0.00  0.00    +0.000 C 
ATOM     58  C   UNL     1      46.702  -1.203   9.750  0.00  0.00    +0.000 C 
ENDBRANCH   6  57
BRANCH   9  59
ATOM     59  O   UNL     1      44.329  -3.449  13.652  0.00  0.00    +0.000 OA
BRANCH  59  61
ATOM     60  O   UNL     1      42.871  -3.688  15.403  0.00  0.00    +0.000 OA
ATOM     61  C   UNL     1      43.281  -3.069  14.431  0.00  0.00    +0.000 C 
ATOM     62  C   UNL     1      42.725  -1.766  13.948  0.00  0.00    +0.000 C 
ENDBRANCH  59  61
ENDBRANCH   9  59
TORSDOF 12
ENDMDL
MODEL 6
REMARK VINA RESULT:      -6.8     35.500     39.622
REMARK  Name = 
REMARK  19 active torsions:
REMARK  status: ('A' for Active; 'I' for Inactive)
REMARK    1  A    between atoms: O_1  and  C_20
REMARK    2  A    between atoms: O_1  and  C_36
REMARK    3  A    between atoms: O_2  and  C_18
REMARK    4  A    between atoms: O_3  and  C_28
REMARK    5  A    between atoms: O_3  and  C_42
REMARK    6  A    between atoms: O_5  and  C_34
REMARK    7  A    between atoms: O_5  and  C_50
REMARK    8  A    between atoms: O_7  and  C_40
REMARK    9  A    between atoms: O_7  and  C_56
REMARK   10  A    between atoms: O_9  and  C_46
REMARK   11  A    between atoms: N_11  and  C_30
REMARK   12  A    between atoms: C_17  and  C_23
REMARK   13  A    between atoms: C_18  and  C_28
REMARK   14  A    between atoms: C_23  and  C_32
REMARK   15  A    between atoms: C_33  and  C_35
REMARK   16  A    between atoms: C_35  and  C_40
REMARK   17  A    between atoms: C_36  and  C_41
REMARK   18  A    between atoms: C_46  and  C_53
REMARK   19  A    between atoms: C_53  and  C_57
REMARK                            x       y       z     vdW  Elec       q    Type
REMARK                         _______ _______ _______ _____ _____    ______ ____
ROOT
ATOM      1  N   UNL     1      20.805  24.564  -1.184  0.00  0.00    +0.000 NA
ATOM      2  N   UNL     1      22.360  21.830   2.407  0.00  0.00    +0.000 N 
ATOM      3  C   UNL     1      21.584  23.207   0.545  0.00  0.00    +0.000 C 
ATOM      4  C   UNL     1      21.916  23.638  -0.895  0.00  0.00    +0.000 C 
ATOM      5  C   UNL     1      22.358  21.927   0.917  0.00  0.00    +0.000 C 
ATOM      6  C   UNL     1      22.128  22.413  -1.899  0.00  0.00    +0.000 C 
ATOM      7  C   UNL     1      22.012  20.671   0.099  0.00  0.00    +0.000 C 
ATOM      8  C   UNL     1      20.046  23.232   0.626  0.00  0.00    +0.000 C 
ATOM      9  C   UNL     1      21.541  21.039  -1.347  0.00  0.00    +0.000 C 
ATOM     10  C   UNL     1      22.092  24.057   1.693  0.00  0.00    +0.000 A 
ATOM     11  C   UNL     1      19.587  24.007  -0.607  0.00  0.00    +0.000 C 
ATOM     12  C   UNL     1      22.465  23.214   2.749  0.00  0.00    +0.000 A 
ATOM     13  C   UNL     1      21.476  22.681  -3.258  0.00  0.00    +0.000 C 
ATOM     14  C   UNL     1      20.679  24.949  -2.581  0.00  0.00    +0.000 C 
ATOM     15  C   UNL     1      20.843  23.826  -3.552  0.00  0.00    +0.000 C 
ATOM     16  C   UNL     1      22.156  25.443   1.799  0.00  0.00    +0.000 A 
ATOM     17  C   UNL     1      23.368  20.973   3.028  0.00  0.00    +0.000 C 
ATOM     18  C   UNL     1      22.872  23.763   3.950  0.00  0.00    +0.000 A 
ATOM     19  C   UNL     1      22.572  26.034   3.008  0.00  0.00    +0.000 A 
ATOM     20  C   UNL     1      22.917  25.161   4.082  0.00  0.00    +0.000 A 
ENDROOT
BRANCH  19  23
ATOM     21  N   UNL     1      22.703  31.757   4.353  0.00  0.00    +0.000 NA
ATOM     22  N   UNL     1      25.148  27.284   3.009  0.00  0.00    +0.000 N 
ATOM     23  C   UNL     1      22.638  27.603   3.192  0.00  0.00    +0.000 C 
ATOM     24  C   UNL     1      22.318  28.025   4.699  0.00  0.00    +0.000 C 
ATOM     25  C   UNL     1      24.072  28.142   2.861  0.00  0.00    +0.000 A 
ATOM     26  C   UNL     1      22.680  29.461   5.111  0.00  0.00    +0.000 C 
ATOM     27  C   UNL     1      22.501  29.768   6.597  0.00  0.00    +0.000 C 
ATOM     28  C   UNL     1      21.913  30.538   4.358  0.00  0.00    +0.000 C 
ATOM     29  C   UNL     1      24.615  29.391   2.512  0.00  0.00    +0.000 A 
ATOM     30  C   UNL     1      22.925  31.228   6.937  0.00  0.00    +0.000 C 
ATOM     31  C   UNL     1      22.932  32.251   5.728  0.00  0.00    +0.000 C 
ATOM     32  C   UNL     1      23.960  30.746   2.294  0.00  0.00    +0.000 C 
ATOM     33  C   UNL     1      23.955  31.659   3.558  0.00  0.00    +0.000 C 
ATOM     34  C   UNL     1      26.045  29.214   2.410  0.00  0.00    +0.000 A 
ATOM     35  C   UNL     1      26.337  27.895   2.724  0.00  0.00    +0.000 A 
ATOM     36  C   UNL     1      27.121  30.074   2.093  0.00  0.00    +0.000 A 
ATOM     37  C   UNL     1      27.639  27.378   2.733  0.00  0.00    +0.000 A 
ATOM     38  C   UNL     1      28.430  29.578   2.094  0.00  0.00    +0.000 A 
ATOM     39  C   UNL     1      28.683  28.247   2.410  0.00  0.00    +0.000 A 
ATOM     40  H   UNL     1      25.073  26.311   3.276  0.00  0.00    +0.000 HD
BRANCH  23  42
ATOM     41  O   UNL     1      21.728  28.670   1.117  0.00  0.00    +0.000 OA
ATOM     42  C   UNL     1      21.551  28.173   2.223  0.00  0.00    +0.000 C 
BRANCH  42  43
ATOM     43  O   UNL     1      20.302  28.015   2.775  0.00  0.00    +0.000 OA
ATOM     44  C   UNL     1      19.277  28.755   2.112  0.00  0.00    +0.000 C 
ENDBRANCH  42  43
ENDBRANCH  23  42
BRANCH  30  45
ATOM     45  O   UNL     1      21.939  31.699   7.891  0.00  0.00    +0.000 OA
ATOM     46  H   UNL     1      22.286  32.519   8.286  0.00  0.00    +0.000 HD
ENDBRANCH  30  45
BRANCH  30  47
ATOM     47  C   UNL     1      24.252  31.264   7.730  0.00  0.00    +0.000 C 
ATOM     48  C   UNL     1      24.164  31.700   9.183  0.00  0.00    +0.000 C 
ENDBRANCH  30  47
ENDBRANCH  19  23
BRANCH   7  49
ATOM     49  O   UNL     1      23.276  19.949  -0.060  0.00  0.00    +0.000 OA
ATOM     50  H   UNL     1      23.041  19.072  -0.427  0.00  0.00    +0.000 HD
ENDBRANCH   7  49
BRANCH   7  52
ATOM     51  O   UNL     1      19.839  19.990   1.088  0.00  0.00    +0.000 OA
ATOM     52  C   UNL     1      21.010  19.745   0.832  0.00  0.00    +0.000 C 
BRANCH  52  53
ATOM     53  O   UNL     1      21.607  18.537   1.096  0.00  0.00    +0.000 OA
ATOM     54  C   UNL     1      21.072  17.862   2.237  0.00  0.00    +0.000 C 
ENDBRANCH  52  53
ENDBRANCH   7  52
BRANCH  20  55
ATOM     55  O   UNL     1      23.361  25.740   5.244  0.00  0.00    +0.000 OA
ATOM     56  C   UNL     1      23.677  24.830   6.293  0.00  0.00    +0.000 C 
ENDBRANCH  20  55
BRANCH   6  57
ATOM     57  C   UNL     1      23.663  22.221  -2.183  0.00  0.00    +0.000 C 
ATOM     58  C   UNL     1      24.584  23.369  -1.766  0.00  0.00    +0.000 C 
ENDBRANCH   6  57
BRANCH   9  59
ATOM     59  O   UNL     1      20.098  21.089  -1.453  0.00  0.00    +0.000 OA
BRANCH  59  61
ATOM     60  O   UNL     1      20.046  19.312  -2.899  0.00  0.00    +0.000 OA
ATOM     61  C   UNL     1      19.516  20.287  -2.385  0.00  0.00    +0.000 C 
ATOM     62  C   UNL     1      18.120  20.750  -2.663  0.00  0.00    +0.000 C 
ENDBRANCH  59  61
ENDBRANCH   9  59
TORSDOF 12
ENDMDL
MODEL 7
REMARK VINA RESULT:      -6.4     35.221     39.618
REMARK  Name = 
REMARK  19 active torsions:
REMARK  status: ('A' for Active; 'I' for Inactive)
REMARK    1  A    between atoms: O_1  and  C_20
REMARK    2  A    between atoms: O_1  and  C_36
REMARK    3  A    between atoms: O_2  and  C_18
REMARK    4  A    between atoms: O_3  and  C_28
REMARK    5  A    between atoms: O_3  and  C_42
REMARK    6  A    between atoms: O_5  and  C_34
REMARK    7  A    between atoms: O_5  and  C_50
REMARK    8  A    between atoms: O_7  and  C_40
REMARK    9  A    between atoms: O_7  and  C_56
REMARK   10  A    between atoms: O_9  and  C_46
REMARK   11  A    between atoms: N_11  and  C_30
REMARK   12  A    between atoms: C_17  and  C_23
REMARK   13  A    between atoms: C_18  and  C_28
REMARK   14  A    between atoms: C_23  and  C_32
REMARK   15  A    between atoms: C_33  and  C_35
REMARK   16  A    between atoms: C_35  and  C_40
REMARK   17  A    between atoms: C_36  and  C_41
REMARK   18  A    between atoms: C_46  and  C_53
REMARK   19  A    between atoms: C_53  and  C_57
REMARK                            x       y       z     vdW  Elec       q    Type
REMARK                         _______ _______ _______ _____ _____    ______ ____
ROOT
ATOM      1  N   UNL     1      22.557  26.587   4.589  0.00  0.00    +0.000 NA
ATOM      2  N   UNL     1      23.587  28.378   0.287  0.00  0.00    +0.000 N 
ATOM      3  C   UNL     1      23.089  27.483   2.503  0.00  0.00    +0.000 C 
ATOM      4  C   UNL     1      23.695  27.215   3.892  0.00  0.00    +0.000 C 
ATOM      5  C   UNL     1      23.942  28.509   1.731  0.00  0.00    +0.000 C 
ATOM      6  C   UNL     1      24.345  28.509   4.570  0.00  0.00    +0.000 C 
ATOM      7  C   UNL     1      24.017  29.917   2.345  0.00  0.00    +0.000 C 
ATOM      8  C   UNL     1      21.596  27.757   2.765  0.00  0.00    +0.000 C 
ATOM      9  C   UNL     1      23.868  29.873   3.902  0.00  0.00    +0.000 C 
ATOM     10  C   UNL     1      23.151  26.385   1.459  0.00  0.00    +0.000 A 
ATOM     11  C   UNL     1      21.340  27.285   4.194  0.00  0.00    +0.000 C 
ATOM     12  C   UNL     1      23.379  26.967   0.205  0.00  0.00    +0.000 A 
ATOM     13  C   UNL     1      24.018  28.585   6.063  0.00  0.00    +0.000 C 
ATOM     14  C   UNL     1      22.724  26.449   6.028  0.00  0.00    +0.000 C 
ATOM     15  C   UNL     1      23.303  27.649   6.704  0.00  0.00    +0.000 C 
ATOM     16  C   UNL     1      22.963  25.015   1.613  0.00  0.00    +0.000 A 
ATOM     17  C   UNL     1      24.533  28.911  -0.692  0.00  0.00    +0.000 C 
ATOM     18  C   UNL     1      23.381  26.172  -0.926  0.00  0.00    +0.000 A 
ATOM     19  C   UNL     1      22.964  24.177   0.480  0.00  0.00    +0.000 A 
ATOM     20  C   UNL     1      23.166  24.791  -0.791  0.00  0.00    +0.000 A 
ENDROOT
BRANCH  19  23
ATOM     21  N   UNL     1      21.856  18.498   1.526  0.00  0.00    +0.000 NA
ATOM     22  N   UNL     1      20.694  23.055  -0.856  0.00  0.00    +0.000 N 
ATOM     23  C   UNL     1      22.729  22.618   0.594  0.00  0.00    +0.000 C 
ATOM     24  C   UNL     1      22.205  22.213   2.047  0.00  0.00    +0.000 C 
ATOM     25  C   UNL     1      21.645  22.142  -0.433  0.00  0.00    +0.000 A 
ATOM     26  C   UNL     1      21.606  20.805   2.203  0.00  0.00    +0.000 C 
ATOM     27  C   UNL     1      20.978  20.522   3.567  0.00  0.00    +0.000 C 
ATOM     28  C   UNL     1      22.594  19.676   1.947  0.00  0.00    +0.000 C 
ATOM     29  C   UNL     1      21.295  20.913  -1.021  0.00  0.00    +0.000 A 
ATOM     30  C   UNL     1      20.363  19.092   3.630  0.00  0.00    +0.000 C 
ATOM     31  C   UNL     1      20.926  18.045   2.583  0.00  0.00    +0.000 C 
ATOM     32  C   UNL     1      21.895  19.524  -0.879  0.00  0.00    +0.000 C 
ATOM     33  C   UNL     1      21.201  18.639   0.200  0.00  0.00    +0.000 C 
ATOM     34  C   UNL     1      20.133  21.158  -1.845  0.00  0.00    +0.000 A 
ATOM     35  C   UNL     1      19.791  22.496  -1.717  0.00  0.00    +0.000 A 
ATOM     36  C   UNL     1      19.330  20.345  -2.677  0.00  0.00    +0.000 A 
ATOM     37  C   UNL     1      18.701  23.077  -2.377  0.00  0.00    +0.000 A 
ATOM     38  C   UNL     1      18.236  20.904  -3.348  0.00  0.00    +0.000 A 
ATOM     39  C   UNL     1      17.928  22.252  -3.199  0.00  0.00    +0.000 A 
ATOM     40  H   UNL     1      20.672  24.029  -0.582  0.00  0.00    +0.000 HD
BRANCH  23  42
ATOM     41  O   UNL     1      24.449  21.265  -0.627  0.00  0.00    +0.000 OA
ATOM     42  C   UNL     1      24.129  21.974   0.319  0.00  0.00    +0.000 C 
BRANCH  42  43
ATOM     43  O   UNL     1      25.014  22.343   1.305  0.00  0.00    +0.000 OA
ATOM     44  C   UNL     1      26.153  23.056   0.822  0.00  0.00    +0.000 C 
ENDBRANCH  42  43
ENDBRANCH  23  42
BRANCH  30  45
ATOM     45  O   UNL     1      20.690  18.594   4.952  0.00  0.00    +0.000 OA
ATOM     46  H   UNL     1      20.456  17.649   4.972  0.00  0.00    +0.000 HD
ENDBRANCH  30  45
BRANCH  30  47
ATOM     47  C   UNL     1      18.817  19.138   3.624  0.00  0.00    +0.000 C 
ATOM     48  C   UNL     1      18.171  20.339   4.292  0.00  0.00    +0.000 C 
ENDBRANCH  30  47
ENDBRANCH  19  23
BRANCH   7  49
ATOM     49  O   UNL     1      25.380  30.384   2.084  0.00  0.00    +0.000 OA
ATOM     50  H   UNL     1      25.410  31.314   2.391  0.00  0.00    +0.000 HD
ENDBRANCH   7  49
BRANCH   7  52
ATOM     51  O   UNL     1      21.841  30.709   1.449  0.00  0.00    +0.000 OA
ATOM     52  C   UNL     1      23.026  30.906   1.682  0.00  0.00    +0.000 C 
BRANCH  52  53
ATOM     53  O   UNL     1      23.655  32.106   1.454  0.00  0.00    +0.000 OA
ATOM     54  C   UNL     1      23.444  32.631   0.143  0.00  0.00    +0.000 C 
ENDBRANCH  52  53
ENDBRANCH   7  52
BRANCH  20  55
ATOM     55  O   UNL     1      23.207  23.966  -1.887  0.00  0.00    +0.000 OA
ATOM     56  C   UNL     1      24.353  24.119  -2.719  0.00  0.00    +0.000 C 
ENDBRANCH  20  55
BRANCH   6  57
ATOM     57  C   UNL     1      25.913  28.426   4.471  0.00  0.00    +0.000 C 
ATOM     58  C   UNL     1      26.492  27.155   3.847  0.00  0.00    +0.000 C 
ENDBRANCH   6  57
BRANCH   9  59
ATOM     59  O   UNL     1      22.509  30.133   4.326  0.00  0.00    +0.000 OA
BRANCH  59  61
ATOM     60  O   UNL     1      23.128  32.136   5.251  0.00  0.00    +0.000 OA
ATOM     61  C   UNL     1      22.276  31.297   4.991  0.00  0.00    +0.000 C 
ATOM     62  C   UNL     1      20.822  31.419   5.326  0.00  0.00    +0.000 C 
ENDBRANCH  59  61
ENDBRANCH   9  59
TORSDOF 12
ENDMDL
MODEL 8
REMARK VINA RESULT:      -6.4     21.928     26.777
REMARK  Name = 
REMARK  19 active torsions:
REMARK  status: ('A' for Active; 'I' for Inactive)
REMARK    1  A    between atoms: O_1  and  C_20
REMARK    2  A    between atoms: O_1  and  C_36
REMARK    3  A    between atoms: O_2  and  C_18
REMARK    4  A    between atoms: O_3  and  C_28
REMARK    5  A    between atoms: O_3  and  C_42
REMARK    6  A    between atoms: O_5  and  C_34
REMARK    7  A    between atoms: O_5  and  C_50
REMARK    8  A    between atoms: O_7  and  C_40
REMARK    9  A    between atoms: O_7  and  C_56
REMARK   10  A    between atoms: O_9  and  C_46
REMARK   11  A    between atoms: N_11  and  C_30
REMARK   12  A    between atoms: C_17  and  C_23
REMARK   13  A    between atoms: C_18  and  C_28
REMARK   14  A    between atoms: C_23  and  C_32
REMARK   15  A    between atoms: C_33  and  C_35
REMARK   16  A    between atoms: C_35  and  C_40
REMARK   17  A    between atoms: C_36  and  C_41
REMARK   18  A    between atoms: C_46  and  C_53
REMARK   19  A    between atoms: C_53  and  C_57
REMARK                            x       y       z     vdW  Elec       q    Type
REMARK                         _______ _______ _______ _____ _____    ______ ____
ROOT
ATOM      1  N   UNL     1      22.767  -5.267  17.213  0.00  0.00    +0.000 NA
ATOM      2  N   UNL     1      27.302  -5.769  15.813  0.00  0.00    +0.000 N 
ATOM      3  C   UNL     1      24.980  -5.479  16.510  0.00  0.00    +0.000 C 
ATOM      4  C   UNL     1      23.878  -4.427  16.730  0.00  0.00    +0.000 C 
ATOM      5  C   UNL     1      26.097  -4.910  15.612  0.00  0.00    +0.000 C 
ATOM      6  C   UNL     1      23.600  -3.510  15.451  0.00  0.00    +0.000 C 
ATOM      7  C   UNL     1      25.685  -4.545  14.177  0.00  0.00    +0.000 C 
ATOM      8  C   UNL     1      24.231  -6.761  16.096  0.00  0.00    +0.000 C 
ATOM      9  C   UNL     1      24.180  -4.124  14.101  0.00  0.00    +0.000 C 
ATOM     10  C   UNL     1      25.869  -5.855  17.679  0.00  0.00    +0.000 A 
ATOM     11  C   UNL     1      22.767  -6.507  16.446  0.00  0.00    +0.000 C 
ATOM     12  C   UNL     1      27.172  -6.065  17.205  0.00  0.00    +0.000 A 
ATOM     13  C   UNL     1      22.102  -3.271  15.246  0.00  0.00    +0.000 C 
ATOM     14  C   UNL     1      21.475  -4.600  17.265  0.00  0.00    +0.000 C 
ATOM     15  C   UNL     1      21.165  -3.754  16.072  0.00  0.00    +0.000 C 
ATOM     16  C   UNL     1      25.531  -6.046  19.014  0.00  0.00    +0.000 A 
ATOM     17  C   UNL     1      28.598  -5.214  15.429  0.00  0.00    +0.000 C 
ATOM     18  C   UNL     1      28.149  -6.514  18.073  0.00  0.00    +0.000 A 
ATOM     19  C   UNL     1      26.506  -6.498  19.926  0.00  0.00    +0.000 A 
ATOM     20  C   UNL     1      27.818  -6.737  19.420  0.00  0.00    +0.000 A 
ENDROOT
BRANCH  19  23
ATOM     21  N   UNL     1      25.791  -7.065  25.734  0.00  0.00    +0.000 NA
ATOM     22  N   UNL     1      24.306  -5.077  21.083  0.00  0.00    +0.000 N 
ATOM     23  C   UNL     1      26.171  -6.757  21.449  0.00  0.00    +0.000 C 
ATOM     24  C   UNL     1      27.251  -6.073  22.406  0.00  0.00    +0.000 C 
ATOM     25  C   UNL     1      24.776  -6.148  21.823  0.00  0.00    +0.000 A 
ATOM     26  C   UNL     1      26.878  -5.939  23.891  0.00  0.00    +0.000 C 
ATOM     27  C   UNL     1      27.872  -5.141  24.734  0.00  0.00    +0.000 C 
ATOM     28  C   UNL     1      26.684  -7.268  24.607  0.00  0.00    +0.000 C 
ATOM     29  C   UNL     1      23.837  -6.355  22.850  0.00  0.00    +0.000 A 
ATOM     30  C   UNL     1      27.403  -5.020  26.215  0.00  0.00    +0.000 C 
ATOM     31  C   UNL     1      26.368  -6.113  26.708  0.00  0.00    +0.000 C 
ATOM     32  C   UNL     1      23.829  -7.320  24.024  0.00  0.00    +0.000 C 
ATOM     33  C   UNL     1      24.399  -6.720  25.345  0.00  0.00    +0.000 C 
ATOM     34  C   UNL     1      22.775  -5.397  22.646  0.00  0.00    +0.000 A 
ATOM     35  C   UNL     1      23.100  -4.624  21.542  0.00  0.00    +0.000 A 
ATOM     36  C   UNL     1      21.568  -5.111  23.324  0.00  0.00    +0.000 A 
ATOM     37  C   UNL     1      22.289  -3.587  21.065  0.00  0.00    +0.000 A 
ATOM     38  C   UNL     1      20.741  -4.079  22.864  0.00  0.00    +0.000 A 
ATOM     39  C   UNL     1      21.099  -3.329  21.749  0.00  0.00    +0.000 A 
ATOM     40  H   UNL     1      24.780  -4.682  20.281  0.00  0.00    +0.000 HD
BRANCH  23  42
ATOM     41  O   UNL     1      27.065  -8.984  22.166  0.00  0.00    +0.000 OA
ATOM     42  C   UNL     1      26.203  -8.312  21.614  0.00  0.00    +0.000 C 
BRANCH  42  43
ATOM     43  O   UNL     1      25.071  -8.865  21.062  0.00  0.00    +0.000 OA
ATOM     44  C   UNL     1      25.324 -10.005  20.241  0.00  0.00    +0.000 C 
ENDBRANCH  42  43
ENDBRANCH  23  42
BRANCH  30  45
ATOM     45  O   UNL     1      28.605  -5.179  27.010  0.00  0.00    +0.000 OA
ATOM     46  H   UNL     1      28.747  -4.344  27.490  0.00  0.00    +0.000 HD
ENDBRANCH  30  45
BRANCH  30  47
ATOM     47  C   UNL     1      26.927  -3.586  26.545  0.00  0.00    +0.000 C 
ATOM     48  C   UNL     1      25.574  -3.175  25.991  0.00  0.00    +0.000 C 
ENDBRANCH  30  47
ENDBRANCH  19  23
BRANCH   7  49
ATOM     49  O   UNL     1      26.456  -3.346  13.842  0.00  0.00    +0.000 OA
ATOM     50  H   UNL     1      26.971  -3.572  13.041  0.00  0.00    +0.000 HD
ENDBRANCH   7  49
BRANCH   7  52
ATOM     51  O   UNL     1      25.751  -6.842  13.235  0.00  0.00    +0.000 OA
ATOM     52  C   UNL     1      26.042  -5.656  13.158  0.00  0.00    +0.000 C 
BRANCH  52  53
ATOM     53  O   UNL     1      26.683  -5.101  12.077  0.00  0.00    +0.000 OA
ATOM     54  C   UNL     1      27.903  -5.758  11.727  0.00  0.00    +0.000 C 
ENDBRANCH  52  53
ENDBRANCH   7  52
BRANCH  20  55
ATOM     55  O   UNL     1      28.774  -7.137  20.318  0.00  0.00    +0.000 OA
ATOM     56  C   UNL     1      30.121  -6.942  19.899  0.00  0.00    +0.000 C 
ENDBRANCH  20  55
BRANCH   6  57
ATOM     57  C   UNL     1      24.242  -2.090  15.669  0.00  0.00    +0.000 C 
ATOM     58  C   UNL     1      23.848  -1.352  16.950  0.00  0.00    +0.000 C 
ENDBRANCH   6  57
BRANCH   9  59
ATOM     59  O   UNL     1      23.327  -5.223  13.701  0.00  0.00    +0.000 OA
BRANCH  59  61
ATOM     60  O   UNL     1      22.370  -4.057  11.977  0.00  0.00    +0.000 OA
ATOM     61  C   UNL     1      22.690  -5.113  12.504  0.00  0.00    +0.000 C 
ATOM     62  C   UNL     1      22.471  -6.469  11.910  0.00  0.00    +0.000 C 
ENDBRANCH  59  61
ENDBRANCH   9  59
TORSDOF 12
ENDMDL
MODEL 9
REMARK VINA RESULT:      -6.3     22.345     30.481
REMARK  Name = 
REMARK  19 active torsions:
REMARK  status: ('A' for Active; 'I' for Inactive)
REMARK    1  A    between atoms: O_1  and  C_20
REMARK    2  A    between atoms: O_1  and  C_36
REMARK    3  A    between atoms: O_2  and  C_18
REMARK    4  A    between atoms: O_3  and  C_28
REMARK    5  A    between atoms: O_3  and  C_42
REMARK    6  A    between atoms: O_5  and  C_34
REMARK    7  A    between atoms: O_5  and  C_50
REMARK    8  A    between atoms: O_7  and  C_40
REMARK    9  A    between atoms: O_7  and  C_56
REMARK   10  A    between atoms: O_9  and  C_46
REMARK   11  A    between atoms: N_11  and  C_30
REMARK   12  A    between atoms: C_17  and  C_23
REMARK   13  A    between atoms: C_18  and  C_28
REMARK   14  A    between atoms: C_23  and  C_32
REMARK   15  A    between atoms: C_33  and  C_35
REMARK   16  A    between atoms: C_35  and  C_40
REMARK   17  A    between atoms: C_36  and  C_41
REMARK   18  A    between atoms: C_46  and  C_53
REMARK   19  A    between atoms: C_53  and  C_57
REMARK                            x       y       z     vdW  Elec       q    Type
REMARK                         _______ _______ _______ _____ _____    ______ ____
ROOT
ATOM      1  N   UNL     1      22.725  -2.221  13.667  0.00  0.00    +0.000 NA
ATOM      2  N   UNL     1      23.887  -5.700  16.722  0.00  0.00    +0.000 N 
ATOM      3  C   UNL     1      23.324  -3.901  15.170  0.00  0.00    +0.000 C 
ATOM      4  C   UNL     1      23.557  -2.409  14.871  0.00  0.00    +0.000 C 
ATOM      5  C   UNL     1      24.410  -4.435  16.125  0.00  0.00    +0.000 C 
ATOM      6  C   UNL     1      25.100  -2.008  14.763  0.00  0.00    +0.000 C 
ATOM      7  C   UNL     1      25.849  -4.418  15.583  0.00  0.00    +0.000 C 
ATOM      8  C   UNL     1      23.115  -4.557  13.791  0.00  0.00    +0.000 C 
ATOM      9  C   UNL     1      26.061  -3.261  14.552  0.00  0.00    +0.000 C 
ATOM     10  C   UNL     1      22.133  -4.294  16.022  0.00  0.00    +0.000 A 
ATOM     11  C   UNL     1      22.872  -3.401  12.824  0.00  0.00    +0.000 C 
ATOM     12  C   UNL     1      22.502  -5.366  16.846  0.00  0.00    +0.000 A 
ATOM     13  C   UNL     1      25.349  -1.035  13.609  0.00  0.00    +0.000 C 
ATOM     14  C   UNL     1      22.935  -0.962  12.970  0.00  0.00    +0.000 C 
ATOM     15  C   UNL     1      24.369  -0.565  12.824  0.00  0.00    +0.000 C 
ATOM     16  C   UNL     1      20.840  -3.782  16.014  0.00  0.00    +0.000 A 
ATOM     17  C   UNL     1      24.510  -6.172  17.957  0.00  0.00    +0.000 C 
ATOM     18  C   UNL     1      21.553  -5.967  17.650  0.00  0.00    +0.000 A 
ATOM     19  C   UNL     1      19.850  -4.368  16.826  0.00  0.00    +0.000 A 
ATOM     20  C   UNL     1      20.236  -5.478  17.635  0.00  0.00    +0.000 A 
ENDROOT
BRANCH  19  23
ATOM     21  N   UNL     1      14.116  -3.068  16.906  0.00  0.00    +0.000 NA
ATOM     22  N   UNL     1      18.829  -3.261  19.261  0.00  0.00    +0.000 N 
ATOM     23  C   UNL     1      18.359  -3.844  16.838  0.00  0.00    +0.000 C 
ATOM     24  C   UNL     1      17.317  -5.055  16.830  0.00  0.00    +0.000 C 
ATOM     25  C   UNL     1      18.074  -3.003  18.129  0.00  0.00    +0.000 A 
ATOM     26  C   UNL     1      15.859  -4.720  17.188  0.00  0.00    +0.000 C 
ATOM     27  C   UNL     1      14.936  -5.931  17.319  0.00  0.00    +0.000 C 
ATOM     28  C   UNL     1      15.180  -3.771  16.211  0.00  0.00    +0.000 C 
ATOM     29  C   UNL     1      17.120  -2.042  18.508  0.00  0.00    +0.000 A 
ATOM     30  C   UNL     1      13.490  -5.509  17.719  0.00  0.00    +0.000 C 
ATOM     31  C   UNL     1      13.089  -4.011  17.401  0.00  0.00    +0.000 C 
ATOM     32  C   UNL     1      15.965  -1.418  17.741  0.00  0.00    +0.000 C 
ATOM     33  C   UNL     1      14.598  -2.135  17.958  0.00  0.00    +0.000 C 
ATOM     34  C   UNL     1      17.383  -1.710  19.889  0.00  0.00    +0.000 A 
ATOM     35  C   UNL     1      18.449  -2.484  20.320  0.00  0.00    +0.000 A 
ATOM     36  C   UNL     1      16.788  -0.825  20.816  0.00  0.00    +0.000 A 
ATOM     37  C   UNL     1      18.966  -2.423  21.621  0.00  0.00    +0.000 A 
ATOM     38  C   UNL     1      17.289  -0.746  22.121  0.00  0.00    +0.000 A 
ATOM     39  C   UNL     1      18.364  -1.535  22.515  0.00  0.00    +0.000 A 
ATOM     40  H   UNL     1      19.589  -3.927  19.304  0.00  0.00    +0.000 HD
BRANCH  23  42
ATOM     41  O   UNL     1      18.278  -1.774  15.429  0.00  0.00    +0.000 OA
ATOM     42  C   UNL     1      18.216  -2.993  15.533  0.00  0.00    +0.000 C 
BRANCH  42  43
ATOM     43  O   UNL     1      18.033  -3.822  14.451  0.00  0.00    +0.000 OA
ATOM     44  C   UNL     1      17.591  -3.147  13.273  0.00  0.00    +0.000 C 
ENDBRANCH  42  43
ENDBRANCH  23  42
BRANCH  30  45
ATOM     45  O   UNL     1      12.615  -6.362  16.939  0.00  0.00    +0.000 OA
ATOM     46  H   UNL     1      13.172  -7.038  16.514  0.00  0.00    +0.000 HD
ENDBRANCH  30  45
BRANCH  30  47
ATOM     47  C   UNL     1      13.172  -5.892  19.183  0.00  0.00    +0.000 C 
ATOM     48  C   UNL     1      13.732  -4.980  20.261  0.00  0.00    +0.000 C 
ENDBRANCH  30  47
ENDBRANCH  19  23
BRANCH   7  49
ATOM     49  O   UNL     1      26.695  -4.093  16.733  0.00  0.00    +0.000 OA
ATOM     50  H   UNL     1      27.619  -4.168  16.417  0.00  0.00    +0.000 HD
ENDBRANCH   7  49
BRANCH   7  52
ATOM     51  O   UNL     1      25.624  -6.550  14.329  0.00  0.00    +0.000 OA
ATOM     52  C   UNL     1      26.288  -5.796  15.027  0.00  0.00    +0.000 C 
BRANCH  52  53
ATOM     53  O   UNL     1      27.598  -6.033  15.366  0.00  0.00    +0.000 OA
ATOM     54  C   UNL     1      27.810  -7.287  16.017  0.00  0.00    +0.000 C 
ENDBRANCH  52  53
ENDBRANCH   7  52
BRANCH  20  55
ATOM     55  O   UNL     1      19.279  -6.020  18.454  0.00  0.00    +0.000 OA
ATOM     56  C   UNL     1      19.576  -7.319  18.959  0.00  0.00    +0.000 C 
ENDBRANCH  20  55
BRANCH   6  57
ATOM     57  C   UNL     1      25.544  -1.255  16.071  0.00  0.00    +0.000 C 
ATOM     58  C   UNL     1      24.435  -0.575  16.876  0.00  0.00    +0.000 C 
ENDBRANCH   6  57
BRANCH   9  59
ATOM     59  O   UNL     1      25.916  -3.716  13.185  0.00  0.00    +0.000 OA
BRANCH  59  61
ATOM     60  O   UNL     1      27.191  -4.859  11.663  0.00  0.00    +0.000 OA
ATOM     61  C   UNL     1      27.057  -3.967  12.489  0.00  0.00    +0.000 C 
ATOM     62  C   UNL     1      28.113  -2.971  12.854  0.00  0.00    +0.000 C 
ENDBRANCH  59  61
ENDBRANCH   9  59
TORSDOF 12
ENDMDL
