MODEL 1
REMARK VINA RESULT:      -6.1      0.000      0.000
REMARK  Name = Vorinostat.pdbqt.pdb
REMARK  6 active torsions:
REMARK  status: ('A' for Active; 'I' for Inactive)
REMARK    1  A    between atoms: C_1  and  C_2
REMARK    2  A    between atoms: C_3  and  C_4
REMARK    3  A    between atoms: C_5  and  C_8
REMARK    4  A    between atoms: N_7  and  O_10
REMARK    5  A    between atoms: C_12  and  C_15
REMARK    6  A    between atoms: N_14  and  C_17
REMARK                            x       y       z     vdW  Elec       q    Type
REMARK                         _______ _______ _______ _____ _____    ______ ____
ROOT
ATOM      1  C   UNL     1      46.178  -1.342  10.004  0.00  0.00    +0.000 C 
ATOM      2  C   UNL     1      45.097  -2.225  10.632  0.00  0.00    +0.000 C 
ENDROOT
BRANCH   2   5
ATOM      3  O   UNL     1      43.253  -2.532  11.960  0.00  0.00    +0.000 OA
ATOM      4  N   UNL     1      44.163  -4.385  10.878  0.00  0.00    +0.000 N 
ATOM      5  C   UNL     1      44.076  -3.057  11.226  0.00  0.00    +0.000 C 
ATOM      6  H   UNL     1      44.914  -4.654  10.254  0.00  0.00    +0.000 HD
BRANCH   4   7
ATOM      7  C   UNL     1      43.298  -5.404  11.314  0.00  0.00    +0.000 A 
ATOM      8  C   UNL     1      42.168  -5.674  10.540  0.00  0.00    +0.000 A 
ATOM      9  C   UNL     1      43.526  -6.144  12.473  0.00  0.00    +0.000 A 
ATOM     10  C   UNL     1      41.275  -6.673  10.922  0.00  0.00    +0.000 A 
ATOM     11  C   UNL     1      42.634  -7.144  12.858  0.00  0.00    +0.000 A 
ATOM     12  C   UNL     1      41.509  -7.408  12.082  0.00  0.00    +0.000 A 
ENDBRANCH   4   7
ENDBRANCH   2   5
BRANCH   1  13
ATOM     13  C   UNL     1      47.258  -0.458   9.374  0.00  0.00    +0.000 C 
ATOM     14  C   UNL     1      48.338   0.427   8.743  0.00  0.00    +0.000 C 
BRANCH  14  15
ATOM     15  C   UNL     1      49.417   1.311   8.112  0.00  0.00    +0.000 C 
ATOM     16  C   UNL     1      50.496   2.197   7.481  0.00  0.00    +0.000 C 
BRANCH  16  19
ATOM     17  O   UNL     1      52.469   2.530   6.317  0.00  0.00    +0.000 OA
ATOM     18  N   UNL     1      51.319   4.378   7.011  0.00  0.00    +0.000 N 
ATOM     19  C   UNL     1      51.510   3.030   6.891  0.00  0.00    +0.000 C 
ATOM     20  H   UNL     1      50.513   4.809   7.446  0.00  0.00    +0.000 HD
BRANCH  18  21
ATOM     21  O   UNL     1      52.275   5.230   6.416  0.00  0.00    +0.000 OA
ATOM     22  H   UNL     1      52.242   4.964   5.470  0.00  0.00    +0.000 HD
ENDBRANCH  18  21
ENDBRANCH  16  19
ENDBRANCH  14  15
ENDBRANCH   1  13
TORSDOF 6
ENDMDL
MODEL 2
REMARK VINA RESULT:      -5.2      6.980      9.800
REMARK  Name = Vorinostat.pdbqt.pdb
REMARK  6 active torsions:
REMARK  status: ('A' for Active; 'I' for Inactive)
REMARK    1  A    between atoms: C_1  and  C_2
REMARK    2  A    between atoms: C_3  and  C_4
REMARK    3  A    between atoms: C_5  and  C_8
REMARK    4  A    between atoms: N_7  and  O_10
REMARK    5  A    between atoms: C_12  and  C_15
REMARK    6  A    between atoms: N_14  and  C_17
REMARK                            x       y       z     vdW  Elec       q    Type
REMARK                         _______ _______ _______ _____ _____    ______ ____
ROOT
ATOM      1  C   UNL     1      44.297  -4.992  11.015  0.00  0.00    +0.000 C 
ATOM      2  C   UNL     1      44.051  -3.926  12.086  0.00  0.00    +0.000 C 
ENDROOT
BRANCH   2   5
ATOM      3  O   UNL     1      44.355  -3.051  14.183  0.00  0.00    +0.000 OA
ATOM      4  N   UNL     1      42.989  -1.898  12.687  0.00  0.00    +0.000 N 
ATOM      5  C   UNL     1      43.818  -2.918  13.095  0.00  0.00    +0.000 C 
ATOM      6  H   UNL     1      42.627  -1.943  11.742  0.00  0.00    +0.000 HD
BRANCH   4   7
ATOM      7  C   UNL     1      42.601  -0.797  13.469  0.00  0.00    +0.000 A 
ATOM      8  C   UNL     1      43.374   0.363  13.389  0.00  0.00    +0.000 A 
ATOM      9  C   UNL     1      41.488  -0.820  14.308  0.00  0.00    +0.000 A 
ATOM     10  C   UNL     1      43.038   1.487  14.141  0.00  0.00    +0.000 A 
ATOM     11  C   UNL     1      41.150   0.303  15.061  0.00  0.00    +0.000 A 
ATOM     12  C   UNL     1      41.925   1.456  14.977  0.00  0.00    +0.000 A 
ENDBRANCH   4   7
ENDBRANCH   2   5
BRANCH   1  13
ATOM     13  C   UNL     1      44.542  -6.059   9.944  0.00  0.00    +0.000 C 
ATOM     14  C   UNL     1      44.786  -7.127   8.873  0.00  0.00    +0.000 C 
BRANCH  14  15
ATOM     15  C   UNL     1      45.030  -8.194   7.803  0.00  0.00    +0.000 C 
ATOM     16  C   UNL     1      45.275  -9.263   6.733  0.00  0.00    +0.000 C 
BRANCH  16  19
ATOM     17  O   UNL     1      46.626 -10.454   5.279  0.00  0.00    +0.000 OA
ATOM     18  N   UNL     1      44.403 -10.979   5.335  0.00  0.00    +0.000 N 
ATOM     19  C   UNL     1      45.502 -10.268   5.729  0.00  0.00    +0.000 C 
ATOM     20  H   UNL     1      43.475 -10.866   5.724  0.00  0.00    +0.000 HD
BRANCH  18  21
ATOM     21  O   UNL     1      44.591 -11.997   4.376  0.00  0.00    +0.000 OA
ATOM     22  H   UNL     1      45.417 -11.717   3.923  0.00  0.00    +0.000 HD
ENDBRANCH  18  21
ENDBRANCH  16  19
ENDBRANCH  14  15
ENDBRANCH   1  13
TORSDOF 6
ENDMDL
MODEL 3
REMARK VINA RESULT:      -5.2      2.799     12.283
REMARK  Name = Vorinostat.pdbqt.pdb
REMARK  6 active torsions:
REMARK  status: ('A' for Active; 'I' for Inactive)
REMARK    1  A    between atoms: C_1  and  C_2
REMARK    2  A    between atoms: C_3  and  C_4
REMARK    3  A    between atoms: C_5  and  C_8
REMARK    4  A    between atoms: N_7  and  O_10
REMARK    5  A    between atoms: C_12  and  C_15
REMARK    6  A    between atoms: N_14  and  C_17
REMARK                            x       y       z     vdW  Elec       q    Type
REMARK                         _______ _______ _______ _____ _____    ______ ____
ROOT
ATOM      1  C   UNL     1      48.618   0.916   8.605  0.00  0.00    +0.000 C 
ATOM      2  C   UNL     1      49.619   1.672   7.727  0.00  0.00    +0.000 C 
ENDROOT
BRANCH   2   5
ATOM      3  O   UNL     1      51.261   1.745   6.129  0.00  0.00    +0.000 OA
ATOM      4  N   UNL     1      50.559   3.749   7.092  0.00  0.00    +0.000 N 
ATOM      5  C   UNL     1      50.564   2.386   6.900  0.00  0.00    +0.000 C 
ATOM      6  H   UNL     1      49.911   4.119   7.777  0.00  0.00    +0.000 HD
BRANCH   4   7
ATOM      7  C   UNL     1      51.375   4.673   6.418  0.00  0.00    +0.000 A 
ATOM      8  C   UNL     1      50.829   5.351   5.328  0.00  0.00    +0.000 A 
ATOM      9  C   UNL     1      52.692   4.934   6.796  0.00  0.00    +0.000 A 
ATOM     10  C   UNL     1      51.591   6.280   4.622  0.00  0.00    +0.000 A 
ATOM     11  C   UNL     1      53.456   5.862   6.091  0.00  0.00    +0.000 A 
ATOM     12  C   UNL     1      52.905   6.535   5.004  0.00  0.00    +0.000 A 
ENDBRANCH   4   7
ENDBRANCH   2   5
BRANCH   1  13
ATOM     13  C   UNL     1      47.617   0.161   9.485  0.00  0.00    +0.000 C 
ATOM     14  C   UNL     1      46.616  -0.595  10.364  0.00  0.00    +0.000 C 
BRANCH  14  15
ATOM     15  C   UNL     1      45.614  -1.349  11.242  0.00  0.00    +0.000 C 
ATOM     16  C   UNL     1      44.612  -2.103  12.122  0.00  0.00    +0.000 C 
BRANCH  16  19
ATOM     17  O   UNL     1      42.925  -3.651  12.463  0.00  0.00    +0.000 OA
ATOM     18  N   UNL     1      43.679  -2.483  14.276  0.00  0.00    +0.000 N 
ATOM     19  C   UNL     1      43.671  -2.810  12.949  0.00  0.00    +0.000 C 
ATOM     20  H   UNL     1      44.315  -1.820  14.702  0.00  0.00    +0.000 HD
BRANCH  18  21
ATOM     21  O   UNL     1      42.792  -3.178  15.127  0.00  0.00    +0.000 OA
ATOM     22  H   UNL     1      42.170  -2.473  15.413  0.00  0.00    +0.000 HD
ENDBRANCH  18  21
ENDBRANCH  16  19
ENDBRANCH  14  15
ENDBRANCH   1  13
TORSDOF 6
ENDMDL
MODEL 4
REMARK VINA RESULT:      -4.9      2.404      2.492
REMARK  Name = Vorinostat.pdbqt.pdb
REMARK  6 active torsions:
REMARK  status: ('A' for Active; 'I' for Inactive)
REMARK    1  A    between atoms: C_1  and  C_2
REMARK    2  A    between atoms: C_3  and  C_4
REMARK    3  A    between atoms: C_5  and  C_8
REMARK    4  A    between atoms: N_7  and  O_10
REMARK    5  A    between atoms: C_12  and  C_15
REMARK    6  A    between atoms: N_14  and  C_17
REMARK                            x       y       z     vdW  Elec       q    Type
REMARK                         _______ _______ _______ _____ _____    ______ ____
ROOT
ATOM      1  C   UNL     1      47.176  -0.935   9.745  0.00  0.00    +0.000 C 
ATOM      2  C   UNL     1      46.285  -1.950  10.468  0.00  0.00    +0.000 C 
ENDROOT
BRANCH   2   5
ATOM      3  O   UNL     1      44.945  -3.810  10.496  0.00  0.00    +0.000 OA
ATOM      4  N   UNL     1      45.312  -2.676  12.499  0.00  0.00    +0.000 N 
ATOM      5  C   UNL     1      45.446  -2.908  11.150  0.00  0.00    +0.000 C 
ATOM      6  H   UNL     1      45.800  -1.875  12.884  0.00  0.00    +0.000 HD
BRANCH   4   7
ATOM      7  C   UNL     1      44.555  -3.453  13.393  0.00  0.00    +0.000 A 
ATOM      8  C   UNL     1      43.349  -2.925  13.854  0.00  0.00    +0.000 A 
ATOM      9  C   UNL     1      44.961  -4.714  13.828  0.00  0.00    +0.000 A 
ATOM     10  C   UNL     1      42.556  -3.650  14.741  0.00  0.00    +0.000 A 
ATOM     11  C   UNL     1      44.169  -5.441  14.715  0.00  0.00    +0.000 A 
ATOM     12  C   UNL     1      42.966  -4.909  15.171  0.00  0.00    +0.000 A 
ENDBRANCH   4   7
ENDBRANCH   2   5
BRANCH   1  13
ATOM     13  C   UNL     1      48.068   0.078   9.023  0.00  0.00    +0.000 C 
ATOM     14  C   UNL     1      48.961   1.092   8.301  0.00  0.00    +0.000 C 
BRANCH  14  15
ATOM     15  C   UNL     1      49.854   2.105   7.580  0.00  0.00    +0.000 C 
ATOM     16  C   UNL     1      50.747   3.120   6.858  0.00  0.00    +0.000 C 
BRANCH  16  19
ATOM     17  O   UNL     1      51.878   3.917   5.003  0.00  0.00    +0.000 OA
ATOM     18  N   UNL     1      52.004   5.137   6.930  0.00  0.00    +0.000 N 
ATOM     19  C   UNL     1      51.584   4.074   6.181  0.00  0.00    +0.000 C 
ATOM     20  H   UNL     1      51.739   5.305   7.892  0.00  0.00    +0.000 HD
BRANCH  18  21
ATOM     21  O   UNL     1      52.800   6.113   6.292  0.00  0.00    +0.000 OA
ATOM     22  H   UNL     1      52.296   6.941   6.451  0.00  0.00    +0.000 HD
ENDBRANCH  18  21
ENDBRANCH  16  19
ENDBRANCH  14  15
ENDBRANCH   1  13
TORSDOF 6
ENDMDL
MODEL 5
REMARK VINA RESULT:      -4.8     19.115     19.906
REMARK  Name = Vorinostat.pdbqt.pdb
REMARK  6 active torsions:
REMARK  status: ('A' for Active; 'I' for Inactive)
REMARK    1  A    between atoms: C_1  and  C_2
REMARK    2  A    between atoms: C_3  and  C_4
REMARK    3  A    between atoms: C_5  and  C_8
REMARK    4  A    between atoms: N_7  and  O_10
REMARK    5  A    between atoms: C_12  and  C_15
REMARK    6  A    between atoms: N_14  and  C_17
REMARK                            x       y       z     vdW  Elec       q    Type
REMARK                         _______ _______ _______ _____ _____    ______ ____
ROOT
ATOM      1  C   UNL     1      41.058  15.499  19.407  0.00  0.00    +0.000 C 
ATOM      2  C   UNL     1      40.191  14.396  20.020  0.00  0.00    +0.000 C 
ENDROOT
BRANCH   2   5
ATOM      3  O   UNL     1      38.505  13.675  21.395  0.00  0.00    +0.000 OA
ATOM      4  N   UNL     1      39.689  12.088  20.165  0.00  0.00    +0.000 N 
ATOM      5  C   UNL     1      39.374  13.355  20.599  0.00  0.00    +0.000 C 
ATOM      6  H   UNL     1      40.445  12.000  19.497  0.00  0.00    +0.000 HD
BRANCH   4   7
ATOM      7  C   UNL     1      39.052  10.902  20.569  0.00  0.00    +0.000 A 
ATOM      8  C   UNL     1      39.675  10.131  21.551  0.00  0.00    +0.000 A 
ATOM      9  C   UNL     1      37.837  10.476  20.033  0.00  0.00    +0.000 A 
ATOM     10  C   UNL     1      39.091   8.945  21.992  0.00  0.00    +0.000 A 
ATOM     11  C   UNL     1      37.251   9.290  20.473  0.00  0.00    +0.000 A 
ATOM     12  C   UNL     1      37.878   8.525  21.452  0.00  0.00    +0.000 A 
ENDBRANCH   4   7
ENDBRANCH   2   5
BRANCH   1  13
ATOM     13  C   UNL     1      41.924  16.604  18.795  0.00  0.00    +0.000 C 
ATOM     14  C   UNL     1      42.791  17.710  18.183  0.00  0.00    +0.000 C 
BRANCH  14  15
ATOM     15  C   UNL     1      43.656  18.815  17.573  0.00  0.00    +0.000 C 
ATOM     16  C   UNL     1      44.521  19.922  16.961  0.00  0.00    +0.000 C 
BRANCH  16  19
ATOM     17  O   UNL     1      45.207  22.123  16.759  0.00  0.00    +0.000 OA
ATOM     18  N   UNL     1      46.226  20.565  15.434  0.00  0.00    +0.000 N 
ATOM     19  C   UNL     1      45.332  20.962  16.388  0.00  0.00    +0.000 C 
ATOM     20  H   UNL     1      46.371  19.606  15.144  0.00  0.00    +0.000 HD
BRANCH  18  21
ATOM     21  O   UNL     1      47.064  21.553  14.871  0.00  0.00    +0.000 OA
ATOM     22  H   UNL     1      46.690  22.386  15.234  0.00  0.00    +0.000 HD
ENDBRANCH  18  21
ENDBRANCH  16  19
ENDBRANCH  14  15
ENDBRANCH   1  13
TORSDOF 6
ENDMDL
MODEL 6
REMARK VINA RESULT:      -4.7      2.600     12.719
REMARK  Name = Vorinostat.pdbqt.pdb
REMARK  6 active torsions:
REMARK  status: ('A' for Active; 'I' for Inactive)
REMARK    1  A    between atoms: C_1  and  C_2
REMARK    2  A    between atoms: C_3  and  C_4
REMARK    3  A    between atoms: C_5  and  C_8
REMARK    4  A    between atoms: N_7  and  O_10
REMARK    5  A    between atoms: C_12  and  C_15
REMARK    6  A    between atoms: N_14  and  C_17
REMARK                            x       y       z     vdW  Elec       q    Type
REMARK                         _______ _______ _______ _____ _____    ______ ____
ROOT
ATOM      1  C   UNL     1      49.349   1.550   7.989  0.00  0.00    +0.000 C 
ATOM      2  C   UNL     1      50.338   2.532   7.355  0.00  0.00    +0.000 C 
ENDROOT
BRANCH   2   5
ATOM      3  O   UNL     1      52.350   3.033   6.375  0.00  0.00    +0.000 OA
ATOM      4  N   UNL     1      50.811   4.754   6.693  0.00  0.00    +0.000 N 
ATOM      5  C   UNL     1      51.272   3.459   6.758  0.00  0.00    +0.000 C 
ATOM      6  H   UNL     1      49.885   4.937   7.060  0.00  0.00    +0.000 HD
BRANCH   4   7
ATOM      7  C   UNL     1      51.516   5.848   6.162  0.00  0.00    +0.000 A 
ATOM      8  C   UNL     1      52.385   6.536   7.010  0.00  0.00    +0.000 A 
ATOM      9  C   UNL     1      51.380   6.264   4.838  0.00  0.00    +0.000 A 
ATOM     10  C   UNL     1      53.111   7.628   6.540  0.00  0.00    +0.000 A 
ATOM     11  C   UNL     1      52.106   7.356   4.365  0.00  0.00    +0.000 A 
ATOM     12  C   UNL     1      52.971   8.038   5.216  0.00  0.00    +0.000 A 
ENDBRANCH   4   7
ENDBRANCH   2   5
BRANCH   1  13
ATOM     13  C   UNL     1      48.362   0.567   8.624  0.00  0.00    +0.000 C 
ATOM     14  C   UNL     1      47.373  -0.417   9.258  0.00  0.00    +0.000 C 
BRANCH  14  15
ATOM     15  C   UNL     1      46.385  -1.399   9.893  0.00  0.00    +0.000 C 
ATOM     16  C   UNL     1      45.396  -2.383  10.527  0.00  0.00    +0.000 C 
BRANCH  16  19
ATOM     17  O   UNL     1      44.808  -4.006  12.069  0.00  0.00    +0.000 OA
ATOM     18  N   UNL     1      43.220  -3.342  10.565  0.00  0.00    +0.000 N 
ATOM     19  C   UNL     1      44.469  -3.308  11.121  0.00  0.00    +0.000 C 
ATOM     20  H   UNL     1      42.911  -2.745   9.808  0.00  0.00    +0.000 HD
BRANCH  18  21
ATOM     21  O   UNL     1      42.271  -4.214  11.142  0.00  0.00    +0.000 OA
ATOM     22  H   UNL     1      42.476  -5.072  10.711  0.00  0.00    +0.000 HD
ENDBRANCH  18  21
ENDBRANCH  16  19
ENDBRANCH  14  15
ENDBRANCH   1  13
TORSDOF 6
ENDMDL
MODEL 7
REMARK VINA RESULT:      -4.7      6.108     10.140
REMARK  Name = Vorinostat.pdbqt.pdb
REMARK  6 active torsions:
REMARK  status: ('A' for Active; 'I' for Inactive)
REMARK    1  A    between atoms: C_1  and  C_2
REMARK    2  A    between atoms: C_3  and  C_4
REMARK    3  A    between atoms: C_5  and  C_8
REMARK    4  A    between atoms: N_7  and  O_10
REMARK    5  A    between atoms: C_12  and  C_15
REMARK    6  A    between atoms: N_14  and  C_17
REMARK                            x       y       z     vdW  Elec       q    Type
REMARK                         _______ _______ _______ _____ _____    ______ ____
ROOT
ATOM      1  C   UNL     1      44.977  -5.299  10.085  0.00  0.00    +0.000 C 
ATOM      2  C   UNL     1      44.942  -4.116  11.057  0.00  0.00    +0.000 C 
ENDROOT
BRANCH   2   5
ATOM      3  O   UNL     1      45.565  -3.070  13.000  0.00  0.00    +0.000 OA
ATOM      4  N   UNL     1      44.112  -1.957  11.556  0.00  0.00    +0.000 N 
ATOM      5  C   UNL     1      44.909  -2.999  11.973  0.00  0.00    +0.000 C 
ATOM      6  H   UNL     1      43.634  -2.064  10.670  0.00  0.00    +0.000 HD
BRANCH   4   7
ATOM      7  C   UNL     1      43.904  -0.756  12.255  0.00  0.00    +0.000 A 
ATOM      8  C   UNL     1      42.818  -0.691  13.129  0.00  0.00    +0.000 A 
ATOM      9  C   UNL     1      44.732   0.357  12.110  0.00  0.00    +0.000 A 
ATOM     10  C   UNL     1      42.562   0.473  13.849  0.00  0.00    +0.000 A 
ATOM     11  C   UNL     1      44.478   1.523  12.830  0.00  0.00    +0.000 A 
ATOM     12  C   UNL     1      43.393   1.580  13.700  0.00  0.00    +0.000 A 
ENDBRANCH   4   7
ENDBRANCH   2   5
BRANCH   1  13
ATOM     13  C   UNL     1      45.010  -6.482   9.113  0.00  0.00    +0.000 C 
ATOM     14  C   UNL     1      45.043  -7.664   8.139  0.00  0.00    +0.000 C 
BRANCH  14  15
ATOM     15  C   UNL     1      45.075  -8.846   7.167  0.00  0.00    +0.000 C 
ATOM     16  C   UNL     1      45.106 -10.029   6.193  0.00  0.00    +0.000 C 
BRANCH  16  19
ATOM     17  O   UNL     1      44.174 -11.371   4.553  0.00  0.00    +0.000 OA
ATOM     18  N   UNL     1      46.282 -11.880   5.274  0.00  0.00    +0.000 N 
ATOM     19  C   UNL     1      45.134 -11.137   5.277  0.00  0.00    +0.000 C 
ATOM     20  H   UNL     1      47.100 -11.678   5.835  0.00  0.00    +0.000 HD
BRANCH  18  21
ATOM     21  O   UNL     1      46.361 -12.957   4.365  0.00  0.00    +0.000 OA
ATOM     22  H   UNL     1      46.073 -13.722   4.910  0.00  0.00    +0.000 HD
ENDBRANCH  18  21
ENDBRANCH  16  19
ENDBRANCH  14  15
ENDBRANCH   1  13
TORSDOF 6
ENDMDL
MODEL 8
REMARK VINA RESULT:      -4.7     32.173     34.254
REMARK  Name = Vorinostat.pdbqt.pdb
REMARK  6 active torsions:
REMARK  status: ('A' for Active; 'I' for Inactive)
REMARK    1  A    between atoms: C_1  and  C_2
REMARK    2  A    between atoms: C_3  and  C_4
REMARK    3  A    between atoms: C_5  and  C_8
REMARK    4  A    between atoms: N_7  and  O_10
REMARK    5  A    between atoms: C_12  and  C_15
REMARK    6  A    between atoms: N_14  and  C_17
REMARK                            x       y       z     vdW  Elec       q    Type
REMARK                         _______ _______ _______ _____ _____    ______ ____
ROOT
ATOM      1  C   UNL     1      27.506  23.490  -1.496  0.00  0.00    +0.000 C 
ATOM      2  C   UNL     1      28.313  23.150  -2.752  0.00  0.00    +0.000 C 
ENDROOT
BRANCH   2   5
ATOM      3  O   UNL     1      28.845  23.454  -4.961  0.00  0.00    +0.000 OA
ATOM      4  N   UNL     1      30.000  21.829  -3.755  0.00  0.00    +0.000 N 
ATOM      5  C   UNL     1      29.075  22.831  -3.937  0.00  0.00    +0.000 C 
ATOM      6  H   UNL     1      30.062  21.415  -2.833  0.00  0.00    +0.000 HD
BRANCH   4   7
ATOM      7  C   UNL     1      30.868  21.327  -4.740  0.00  0.00    +0.000 A 
ATOM      8  C   UNL     1      30.357  20.396  -5.645  0.00  0.00    +0.000 A 
ATOM      9  C   UNL     1      32.202  21.721  -4.844  0.00  0.00    +0.000 A 
ATOM     10  C   UNL     1      31.170  19.864  -6.644  0.00  0.00    +0.000 A 
ATOM     11  C   UNL     1      33.017  21.190  -5.842  0.00  0.00    +0.000 A 
ATOM     12  C   UNL     1      32.500  20.262  -6.742  0.00  0.00    +0.000 A 
ENDBRANCH   4   7
ENDBRANCH   2   5
BRANCH   1  13
ATOM     13  C   UNL     1      26.700  23.829  -0.238  0.00  0.00    +0.000 C 
ATOM     14  C   UNL     1      25.894  24.170   1.019  0.00  0.00    +0.000 C 
BRANCH  14  15
ATOM     15  C   UNL     1      25.089  24.511   2.276  0.00  0.00    +0.000 C 
ATOM     16  C   UNL     1      24.284  24.852   3.534  0.00  0.00    +0.000 C 
BRANCH  16  19
ATOM     17  O   UNL     1      22.463  25.767   4.632  0.00  0.00    +0.000 OA
ATOM     18  N   UNL     1      24.075  24.761   5.901  0.00  0.00    +0.000 N 
ATOM     19  C   UNL     1      23.529  25.170   4.716  0.00  0.00    +0.000 C 
ATOM     20  H   UNL     1      24.934  24.232   5.987  0.00  0.00    +0.000 HD
BRANCH  18  21
ATOM     21  O   UNL     1      23.348  25.026   7.082  0.00  0.00    +0.000 OA
ATOM     22  H   UNL     1      22.549  25.487   6.745  0.00  0.00    +0.000 HD
ENDBRANCH  18  21
ENDBRANCH  16  19
ENDBRANCH  14  15
ENDBRANCH   1  13
TORSDOF 6
ENDMDL
MODEL 9
REMARK VINA RESULT:      -4.6     31.934     33.195
REMARK  Name = Vorinostat.pdbqt.pdb
REMARK  6 active torsions:
REMARK  status: ('A' for Active; 'I' for Inactive)
REMARK    1  A    between atoms: C_1  and  C_2
REMARK    2  A    between atoms: C_3  and  C_4
REMARK    3  A    between atoms: C_5  and  C_8
REMARK    4  A    between atoms: N_7  and  O_10
REMARK    5  A    between atoms: C_12  and  C_15
REMARK    6  A    between atoms: N_14  and  C_17
REMARK                            x       y       z     vdW  Elec       q    Type
REMARK                         _______ _______ _______ _____ _____    ______ ____
ROOT
ATOM      1  C   UNL     1      27.922  23.452  -1.434  0.00  0.00    +0.000 C 
ATOM      2  C   UNL     1      26.780  23.950  -0.544  0.00  0.00    +0.000 C 
ENDROOT
BRANCH   2   5
ATOM      3  O   UNL     1      24.774  25.014  -0.229  0.00  0.00    +0.000 OA
ATOM      4  N   UNL     1      25.862  24.123   1.630  0.00  0.00    +0.000 N 
ATOM      5  C   UNL     1      25.702  24.418   0.295  0.00  0.00    +0.000 C 
ATOM      6  H   UNL     1      26.699  23.618   1.897  0.00  0.00    +0.000 HD
BRANCH   4   7
ATOM      7  C   UNL     1      24.965  24.462   2.657  0.00  0.00    +0.000 A 
ATOM      8  C   UNL     1      25.281  25.558   3.462  0.00  0.00    +0.000 A 
ATOM      9  C   UNL     1      23.788  23.754   2.897  0.00  0.00    +0.000 A 
ATOM     10  C   UNL     1      24.430  25.941   4.496  0.00  0.00    +0.000 A 
ATOM     11  C   UNL     1      22.934  24.136   3.930  0.00  0.00    +0.000 A 
ATOM     12  C   UNL     1      23.256  25.230   4.729  0.00  0.00    +0.000 A 
ENDBRANCH   4   7
ENDBRANCH   2   5
BRANCH   1  13
ATOM     13  C   UNL     1      29.066  22.954  -2.322  0.00  0.00    +0.000 C 
ATOM     14  C   UNL     1      30.210  22.455  -3.211  0.00  0.00    +0.000 C 
BRANCH  14  15
ATOM     15  C   UNL     1      31.352  21.957  -4.100  0.00  0.00    +0.000 C 
ATOM     16  C   UNL     1      32.497  21.458  -4.988  0.00  0.00    +0.000 C 
BRANCH  16  19
ATOM     17  O   UNL     1      33.677  21.379  -6.978  0.00  0.00    +0.000 OA
ATOM     18  N   UNL     1      34.442  20.113  -5.236  0.00  0.00    +0.000 N 
ATOM     19  C   UNL     1      33.572  20.991  -5.821  0.00  0.00    +0.000 C 
ATOM     20  H   UNL     1      34.395  19.812  -4.270  0.00  0.00    +0.000 HD
BRANCH  18  21
ATOM     21  O   UNL     1      35.531  19.656  -6.011  0.00  0.00    +0.000 OA
ATOM     22  H   UNL     1      36.071  19.164  -5.355  0.00  0.00    +0.000 HD
ENDBRANCH  18  21
ENDBRANCH  16  19
ENDBRANCH  14  15
ENDBRANCH   1  13
TORSDOF 6
ENDMDL
