MODEL 1
REMARK VINA RESULT:      -6.6      0.000      0.000
REMARK  Name = 10074640_Masitinib.pdbqt.pdb
REMARK  6 active torsions:
REMARK  status: ('A' for Active; 'I' for Inactive)
REMARK    1  A    between atoms: C_1  and  N_22
REMARK    2  A    between atoms: C_2  and  N_9
REMARK    3  A    between atoms: C_12  and  C_16
REMARK    4  A    between atoms: C_23  and  C_30
REMARK    5  A    between atoms: C_25  and  C_31
REMARK    6  A    between atoms: C_31  and  N_32
REMARK                            x       y       z     vdW  Elec       q    Type
REMARK                         _______ _______ _______ _____ _____    ______ ____
ROOT
ATOM      1  C   UNL     1      61.594  33.632  86.850  0.00  0.00    +0.000 A 
ATOM      2  C   UNL     1      59.462  34.835  86.934  0.00  0.00    +0.000 A 
ATOM      3  C   UNL     1      60.763  34.675  86.438  0.00  0.00    +0.000 A 
ATOM      4  C   UNL     1      59.014  33.891  87.879  0.00  0.00    +0.000 A 
ATOM      5  C   UNL     1      61.112  32.702  87.768  0.00  0.00    +0.000 A 
ATOM      6  C   UNL     1      59.828  32.835  88.290  0.00  0.00    +0.000 A 
ATOM      7  C   UNL     1      57.625  33.996  88.475  0.00  0.00    +0.000 C 
ENDROOT
BRANCH   2   9
ATOM      8  S   UNL     1      57.202  37.457  84.859  0.00  0.00    +0.000 S 
ATOM      9  N   UNL     1      58.610  35.870  86.481  0.00  0.00    +0.000 N 
ATOM     10  N   UNL     1      58.251  35.203  84.226  0.00  0.00    +0.000 NA
ATOM     11  C   UNL     1      58.122  36.040  85.231  0.00  0.00    +0.000 A 
ATOM     12  C   UNL     1      57.637  35.690  83.088  0.00  0.00    +0.000 A 
ATOM     13  C   UNL     1      57.023  36.906  83.264  0.00  0.00    +0.000 A 
ATOM     14  H   UNL     1      58.342  36.527  87.210  0.00  0.00    +0.000 HD
BRANCH  12  16
ATOM     15  N   UNL     1      58.658  33.242  80.460  0.00  0.00    +0.000 NA
ATOM     16  C   UNL     1      57.643  34.957  81.842  0.00  0.00    +0.000 A 
ATOM     17  C   UNL     1      56.683  35.173  80.857  0.00  0.00    +0.000 A 
ATOM     18  C   UNL     1      58.606  33.990  81.591  0.00  0.00    +0.000 A 
ATOM     19  C   UNL     1      56.709  34.437  79.678  0.00  0.00    +0.000 A 
ATOM     20  C   UNL     1      57.710  33.491  79.532  0.00  0.00    +0.000 A 
ENDBRANCH  12  16
ENDBRANCH   2   9
BRANCH   1  22
ATOM     21  O   UNL     1      64.044  34.856  87.819  0.00  0.00    +0.000 OA
ATOM     22  N   UNL     1      62.904  33.458  86.359  0.00  0.00    +0.000 N 
ATOM     23  C   UNL     1      64.025  34.115  86.844  0.00  0.00    +0.000 C 
ATOM     24  H   UNL     1      63.015  32.777  85.617  0.00  0.00    +0.000 HD
BRANCH  23  30
ATOM     25  C   UNL     1      67.679  33.477  84.729  0.00  0.00    +0.000 A 
ATOM     26  C   UNL     1      67.048  32.395  85.337  0.00  0.00    +0.000 A 
ATOM     27  C   UNL     1      67.126  34.752  84.814  0.00  0.00    +0.000 A 
ATOM     28  C   UNL     1      65.857  32.589  86.033  0.00  0.00    +0.000 A 
ATOM     29  C   UNL     1      65.936  34.944  85.512  0.00  0.00    +0.000 A 
ATOM     30  C   UNL     1      65.298  33.863  86.125  0.00  0.00    +0.000 A 
BRANCH  25  31
ATOM     31  C   UNL     1      68.897  33.279  84.015  0.00  0.00    +0.000 C 
BRANCH  31  32
ATOM     32  N   UNL     1      70.143  33.079  83.286  0.00  0.00    +0.000 N 
ATOM     33  N   UNL     1      69.840  31.380  80.183  0.00  0.00    +0.000 N 
ATOM     34  C   UNL     1      70.207  31.634  82.928  0.00  0.00    +0.000 C 
ATOM     35  C   UNL     1      69.915  33.568  81.897  0.00  0.00    +0.000 C 
ATOM     36  C   UNL     1      70.083  30.891  81.568  0.00  0.00    +0.000 C 
ATOM     37  C   UNL     1      69.790  32.825  80.537  0.00  0.00    +0.000 C 
ATOM     38  C   UNL     1      71.069  31.166  79.433  0.00  0.00    +0.000 C 
ENDBRANCH  31  32
ENDBRANCH  25  31
ENDBRANCH  23  30
ENDBRANCH   1  22
TORSDOF 6
ENDMDL
MODEL 2
REMARK VINA RESULT:      -6.4     38.406     43.960
REMARK  Name = 10074640_Masitinib.pdbqt.pdb
REMARK  6 active torsions:
REMARK  status: ('A' for Active; 'I' for Inactive)
REMARK    1  A    between atoms: C_1  and  N_22
REMARK    2  A    between atoms: C_2  and  N_9
REMARK    3  A    between atoms: C_12  and  C_16
REMARK    4  A    between atoms: C_23  and  C_30
REMARK    5  A    between atoms: C_25  and  C_31
REMARK    6  A    between atoms: C_31  and  N_32
REMARK                            x       y       z     vdW  Elec       q    Type
REMARK                         _______ _______ _______ _____ _____    ______ ____
ROOT
ATOM      1  C   UNL     1      23.716  19.549  94.889  0.00  0.00    +0.000 A 
ATOM      2  C   UNL     1      25.498  19.132  96.517  0.00  0.00    +0.000 A 
ATOM      3  C   UNL     1      24.606  18.686  95.532  0.00  0.00    +0.000 A 
ATOM      4  C   UNL     1      25.465  20.502  96.841  0.00  0.00    +0.000 A 
ATOM      5  C   UNL     1      23.726  20.903  95.217  0.00  0.00    +0.000 A 
ATOM      6  C   UNL     1      24.591  21.379  96.198  0.00  0.00    +0.000 A 
ATOM      7  C   UNL     1      26.388  21.066  97.903  0.00  0.00    +0.000 C 
ENDROOT
BRANCH   2   9
ATOM      8  S   UNL     1      28.565  16.708  97.522  0.00  0.00    +0.000 S 
ATOM      9  N   UNL     1      26.427  18.262  97.135  0.00  0.00    +0.000 N 
ATOM     10  N   UNL     1      28.243  18.380  95.602  0.00  0.00    +0.000 NA
ATOM     11  C   UNL     1      27.642  17.897  96.667  0.00  0.00    +0.000 A 
ATOM     12  C   UNL     1      29.472  17.780  95.406  0.00  0.00    +0.000 A 
ATOM     13  C   UNL     1      29.795  16.846  96.361  0.00  0.00    +0.000 A 
ATOM     14  H   UNL     1      26.118  17.908  98.037  0.00  0.00    +0.000 HD
BRANCH  12  16
ATOM     15  N   UNL     1      31.051  17.693  92.024  0.00  0.00    +0.000 NA
ATOM     16  C   UNL     1      30.327  18.134  94.296  0.00  0.00    +0.000 A 
ATOM     17  C   UNL     1      31.195  19.221  94.354  0.00  0.00    +0.000 A 
ATOM     18  C   UNL     1      30.300  17.404  93.116  0.00  0.00    +0.000 A 
ATOM     19  C   UNL     1      31.992  19.544  93.261  0.00  0.00    +0.000 A 
ATOM     20  C   UNL     1      31.880  18.753  92.129  0.00  0.00    +0.000 A 
ENDBRANCH  12  16
ENDBRANCH   2   9
BRANCH   1  22
ATOM     21  O   UNL     1      20.888  18.950  95.181  0.00  0.00    +0.000 OA
ATOM     22  N   UNL     1      22.814  19.115  93.896  0.00  0.00    +0.000 N 
ATOM     23  C   UNL     1      21.482  18.802  94.119  0.00  0.00    +0.000 C 
ATOM     24  H   UNL     1      23.181  19.064  92.953  0.00  0.00    +0.000 HD
BRANCH  23  30
ATOM     25  C   UNL     1      19.391  17.233  90.743  0.00  0.00    +0.000 A 
ATOM     26  C   UNL     1      18.827  18.283  91.464  0.00  0.00    +0.000 A 
ATOM     27  C   UNL     1      20.619  16.700  91.122  0.00  0.00    +0.000 A 
ATOM     28  C   UNL     1      19.496  18.802  92.570  0.00  0.00    +0.000 A 
ATOM     29  C   UNL     1      21.287  17.220  92.229  0.00  0.00    +0.000 A 
ATOM     30  C   UNL     1      20.727  18.272  92.958  0.00  0.00    +0.000 A 
BRANCH  25  31
ATOM     31  C   UNL     1      18.707  16.702  89.610  0.00  0.00    +0.000 C 
BRANCH  31  32
ATOM     32  N   UNL     1      18.010  16.157  88.451  0.00  0.00    +0.000 N 
ATOM     33  N   UNL     1      18.874  17.609  85.329  0.00  0.00    +0.000 N 
ATOM     34  C   UNL     1      17.451  17.316  87.700  0.00  0.00    +0.000 C 
ATOM     35  C   UNL     1      19.051  15.812  87.444  0.00  0.00    +0.000 C 
ATOM     36  C   UNL     1      17.824  17.946  86.328  0.00  0.00    +0.000 C 
ATOM     37  C   UNL     1      19.425  16.443  86.072  0.00  0.00    +0.000 C 
ATOM     38  C   UNL     1      18.193  17.084  84.155  0.00  0.00    +0.000 C 
ENDBRANCH  31  32
ENDBRANCH  25  31
ENDBRANCH  23  30
ENDBRANCH   1  22
TORSDOF 6
ENDMDL
MODEL 3
REMARK VINA RESULT:      -6.2     55.617     60.030
REMARK  Name = 10074640_Masitinib.pdbqt.pdb
REMARK  6 active torsions:
REMARK  status: ('A' for Active; 'I' for Inactive)
REMARK    1  A    between atoms: C_1  and  N_22
REMARK    2  A    between atoms: C_2  and  N_9
REMARK    3  A    between atoms: C_12  and  C_16
REMARK    4  A    between atoms: C_23  and  C_30
REMARK    5  A    between atoms: C_25  and  C_31
REMARK    6  A    between atoms: C_31  and  N_32
REMARK                            x       y       z     vdW  Elec       q    Type
REMARK                         _______ _______ _______ _____ _____    ______ ____
ROOT
ATOM      1  C   UNL     1      12.998   0.611  94.030  0.00  0.00    +0.000 A 
ATOM      2  C   UNL     1      14.037  -1.228  92.791  0.00  0.00    +0.000 A 
ATOM      3  C   UNL     1      14.097  -0.199  93.740  0.00  0.00    +0.000 A 
ATOM      4  C   UNL     1      12.809  -1.420  92.128  0.00  0.00    +0.000 A 
ATOM      5  C   UNL     1      11.791   0.380  93.374  0.00  0.00    +0.000 A 
ATOM      6  C   UNL     1      11.698  -0.627  92.417  0.00  0.00    +0.000 A 
ATOM      7  C   UNL     1      12.660  -2.503  91.078  0.00  0.00    +0.000 C 
ENDROOT
BRANCH   2   9
ATOM      8  S   UNL     1      17.472  -3.347  92.816  0.00  0.00    +0.000 S 
ATOM      9  N   UNL     1      15.142  -2.073  92.532  0.00  0.00    +0.000 N 
ATOM     10  N   UNL     1      16.204  -2.092  94.660  0.00  0.00    +0.000 NA
ATOM     11  C   UNL     1      16.139  -2.401  93.384  0.00  0.00    +0.000 A 
ATOM     12  C   UNL     1      17.363  -2.578  95.233  0.00  0.00    +0.000 A 
ATOM     13  C   UNL     1      18.163  -3.281  94.365  0.00  0.00    +0.000 A 
ATOM     14  H   UNL     1      15.139  -2.473  91.596  0.00  0.00    +0.000 HD
BRANCH  12  16
ATOM     15  N   UNL     1      17.099  -1.307  98.734  0.00  0.00    +0.000 NA
ATOM     16  C   UNL     1      17.674  -2.365  96.629  0.00  0.00    +0.000 A 
ATOM     17  C   UNL     1      18.753  -2.990  97.247  0.00  0.00    +0.000 A 
ATOM     18  C   UNL     1      16.888  -1.533  97.413  0.00  0.00    +0.000 A 
ATOM     19  C   UNL     1      19.013  -2.775  98.596  0.00  0.00    +0.000 A 
ATOM     20  C   UNL     1      18.160  -1.932  99.287  0.00  0.00    +0.000 A 
ENDBRANCH  12  16
ENDBRANCH   2   9
BRANCH   1  22
ATOM     21  O   UNL     1      12.961   0.382  96.926  0.00  0.00    +0.000 OA
ATOM     22  N   UNL     1      13.043   1.649  94.983  0.00  0.00    +0.000 N 
ATOM     23  C   UNL     1      12.974   1.466  96.357  0.00  0.00    +0.000 C 
ATOM     24  H   UNL     1      13.164   2.586  94.617  0.00  0.00    +0.000 HD
BRANCH  23  30
ATOM     25  C   UNL     1      12.965   5.039  98.694  0.00  0.00    +0.000 A 
ATOM     26  C   UNL     1      12.170   3.966  99.090  0.00  0.00    +0.000 A 
ATOM     27  C   UNL     1      13.748   4.948  97.547  0.00  0.00    +0.000 A 
ATOM     28  C   UNL     1      12.161   2.795  98.335  0.00  0.00    +0.000 A 
ATOM     29  C   UNL     1      13.736   3.777  96.793  0.00  0.00    +0.000 A 
ATOM     30  C   UNL     1      12.941   2.697  97.184  0.00  0.00    +0.000 A 
BRANCH  25  31
ATOM     31  C   UNL     1      12.976   6.238  99.468  0.00  0.00    +0.000 C 
BRANCH  31  32
ATOM     32  N   UNL     1      12.985   7.462 100.258  0.00  0.00    +0.000 N 
ATOM     33  N   UNL     1      15.647   9.706  99.563  0.00  0.00    +0.000 N 
ATOM     34  C   UNL     1      14.354   7.596 100.831  0.00  0.00    +0.000 C 
ATOM     35  C   UNL     1      13.112   8.595  99.298  0.00  0.00    +0.000 C 
ATOM     36  C   UNL     1      15.517   8.585 100.533  0.00  0.00    +0.000 C 
ATOM     37  C   UNL     1      14.275   9.583  99.000  0.00  0.00    +0.000 C 
ATOM     38  C   UNL     1      15.680  10.939 100.338  0.00  0.00    +0.000 C 
ENDBRANCH  31  32
ENDBRANCH  25  31
ENDBRANCH  23  30
ENDBRANCH   1  22
TORSDOF 6
ENDMDL
MODEL 4
REMARK VINA RESULT:      -6.1     58.491     61.299
REMARK  Name = 10074640_Masitinib.pdbqt.pdb
REMARK  6 active torsions:
REMARK  status: ('A' for Active; 'I' for Inactive)
REMARK    1  A    between atoms: C_1  and  N_22
REMARK    2  A    between atoms: C_2  and  N_9
REMARK    3  A    between atoms: C_12  and  C_16
REMARK    4  A    between atoms: C_23  and  C_30
REMARK    5  A    between atoms: C_25  and  C_31
REMARK    6  A    between atoms: C_31  and  N_32
REMARK                            x       y       z     vdW  Elec       q    Type
REMARK                         _______ _______ _______ _____ _____    ______ ____
ROOT
ATOM      1  C   UNL     1       8.158  12.714 101.217  0.00  0.00    +0.000 A 
ATOM      2  C   UNL     1       6.986  14.668 100.318  0.00  0.00    +0.000 A 
ATOM      3  C   UNL     1       7.823  13.556 100.155  0.00  0.00    +0.000 A 
ATOM      4  C   UNL     1       6.485  14.911 101.612  0.00  0.00    +0.000 A 
ATOM      5  C   UNL     1       7.627  12.968 102.479  0.00  0.00    +0.000 A 
ATOM      6  C   UNL     1       6.799  14.070 102.681  0.00  0.00    +0.000 A 
ATOM      7  C   UNL     1       5.582  16.098 101.880  0.00  0.00    +0.000 C 
ENDROOT
BRANCH   2   9
ATOM      8  S   UNL     1       5.636  16.282  96.874  0.00  0.00    +0.000 S 
ATOM      9  N   UNL     1       6.615  15.493  99.230  0.00  0.00    +0.000 N 
ATOM     10  N   UNL     1       5.211  14.017  98.002  0.00  0.00    +0.000 NA
ATOM     11  C   UNL     1       5.855  15.151  98.166  0.00  0.00    +0.000 A 
ATOM     12  C   UNL     1       4.536  13.995  96.797  0.00  0.00    +0.000 A 
ATOM     13  C   UNL     1       4.667  15.148  96.063  0.00  0.00    +0.000 A 
ATOM     14  H   UNL     1       6.964  16.446  99.303  0.00  0.00    +0.000 HD
BRANCH  12  16
ATOM     15  N   UNL     1       1.673  11.989  95.485  0.00  0.00    +0.000 NA
ATOM     16  C   UNL     1       3.756  12.852  96.379  0.00  0.00    +0.000 A 
ATOM     17  C   UNL     1       4.273  11.560  96.401  0.00  0.00    +0.000 A 
ATOM     18  C   UNL     1       2.455  13.008  95.921  0.00  0.00    +0.000 A 
ATOM     19  C   UNL     1       3.500  10.485  95.976  0.00  0.00    +0.000 A 
ATOM     20  C   UNL     1       2.217  10.754  95.530  0.00  0.00    +0.000 A 
ENDBRANCH  12  16
ENDBRANCH   2   9
BRANCH   1  22
ATOM     21  O   UNL     1      11.062  12.644 101.198  0.00  0.00    +0.000 OA
ATOM     22  N   UNL     1       8.997  11.592 101.067  0.00  0.00    +0.000 N 
ATOM     23  C   UNL     1      10.383  11.640 101.021  0.00  0.00    +0.000 C 
ATOM     24  H   UNL     1       8.535  10.691 101.021  0.00  0.00    +0.000 HD
BRANCH  23  30
ATOM     25  C   UNL     1      12.304   7.895 100.304  0.00  0.00    +0.000 A 
ATOM     26  C   UNL     1      13.077   9.050 100.386  0.00  0.00    +0.000 A 
ATOM     27  C   UNL     1      10.921   7.962 100.450  0.00  0.00    +0.000 A 
ATOM     28  C   UNL     1      12.463  10.280 100.616  0.00  0.00    +0.000 A 
ATOM     29  C   UNL     1      10.309   9.192 100.679  0.00  0.00    +0.000 A 
ATOM     30  C   UNL     1      11.078  10.356 100.761  0.00  0.00    +0.000 A 
BRANCH  25  31
ATOM     31  C   UNL     1      12.932   6.636 100.071  0.00  0.00    +0.000 C 
BRANCH  31  32
ATOM     32  N   UNL     1      13.571   5.348  99.831  0.00  0.00    +0.000 N 
ATOM     33  N   UNL     1      11.369   2.671  99.064  0.00  0.00    +0.000 N 
ATOM     34  C   UNL     1      12.872   4.352 100.691  0.00  0.00    +0.000 C 
ATOM     35  C   UNL     1      13.036   4.834  98.539  0.00  0.00    +0.000 C 
ATOM     36  C   UNL     1      11.915   3.174 100.354  0.00  0.00    +0.000 C 
ATOM     37  C   UNL     1      12.077   3.656  98.202  0.00  0.00    +0.000 C 
ATOM     38  C   UNL     1      11.981   1.373  98.819  0.00  0.00    +0.000 C 
ENDBRANCH  31  32
ENDBRANCH  25  31
ENDBRANCH  23  30
ENDBRANCH   1  22
TORSDOF 6
ENDMDL
MODEL 5
REMARK VINA RESULT:      -6.0     58.768     60.824
REMARK  Name = 10074640_Masitinib.pdbqt.pdb
REMARK  6 active torsions:
REMARK  status: ('A' for Active; 'I' for Inactive)
REMARK    1  A    between atoms: C_1  and  N_22
REMARK    2  A    between atoms: C_2  and  N_9
REMARK    3  A    between atoms: C_12  and  C_16
REMARK    4  A    between atoms: C_23  and  C_30
REMARK    5  A    between atoms: C_25  and  C_31
REMARK    6  A    between atoms: C_31  and  N_32
REMARK                            x       y       z     vdW  Elec       q    Type
REMARK                         _______ _______ _______ _____ _____    ______ ____
ROOT
ATOM      1  C   UNL     1      12.905   0.856  94.060  0.00  0.00    +0.000 A 
ATOM      2  C   UNL     1      13.942  -0.994  92.834  0.00  0.00    +0.000 A 
ATOM      3  C   UNL     1      14.014   0.068  93.746  0.00  0.00    +0.000 A 
ATOM      4  C   UNL     1      12.691  -1.243  92.236  0.00  0.00    +0.000 A 
ATOM      5  C   UNL     1      11.677   0.568  93.468  0.00  0.00    +0.000 A 
ATOM      6  C   UNL     1      11.571  -0.473  92.550  0.00  0.00    +0.000 A 
ATOM      7  C   UNL     1      12.527  -2.365  91.230  0.00  0.00    +0.000 C 
ENDROOT
BRANCH   2   9
ATOM      8  S   UNL     1      17.378  -3.110  92.825  0.00  0.00    +0.000 S 
ATOM      9  N   UNL     1      15.058  -1.816  92.552  0.00  0.00    +0.000 N 
ATOM     10  N   UNL     1      16.033  -2.010  94.713  0.00  0.00    +0.000 NA
ATOM     11  C   UNL     1      16.020  -2.213  93.414  0.00  0.00    +0.000 A 
ATOM     12  C   UNL     1      17.169  -2.542  95.291  0.00  0.00    +0.000 A 
ATOM     13  C   UNL     1      18.005  -3.172  94.401  0.00  0.00    +0.000 A 
ATOM     14  H   UNL     1      15.095  -2.138  91.587  0.00  0.00    +0.000 HD
BRANCH  12  16
ATOM     15  N   UNL     1      17.150  -1.203  98.777  0.00  0.00    +0.000 NA
ATOM     16  C   UNL     1      17.422  -2.444  96.711  0.00  0.00    +0.000 A 
ATOM     17  C   UNL     1      18.102  -3.439  97.408  0.00  0.00    +0.000 A 
ATOM     18  C   UNL     1      16.976  -1.350  97.439  0.00  0.00    +0.000 A 
ATOM     19  C   UNL     1      18.313  -3.321  98.777  0.00  0.00    +0.000 A 
ATOM     20  C   UNL     1      17.819  -2.191  99.407  0.00  0.00    +0.000 A 
ENDBRANCH  12  16
ENDBRANCH   2   9
BRANCH   1  22
ATOM     21  O   UNL     1      13.736   0.785  96.843  0.00  0.00    +0.000 OA
ATOM     22  N   UNL     1      12.962   1.926  94.976  0.00  0.00    +0.000 N 
ATOM     23  C   UNL     1      13.326   1.809  96.309  0.00  0.00    +0.000 C 
ATOM     24  H   UNL     1      12.745   2.843  94.604  0.00  0.00    +0.000 HD
BRANCH  23  30
ATOM     25  C   UNL     1      12.961   5.323  98.706  0.00  0.00    +0.000 A 
ATOM     26  C   UNL     1      13.850   5.321  97.635  0.00  0.00    +0.000 A 
ATOM     27  C   UNL     1      12.204   4.191  98.994  0.00  0.00    +0.000 A 
ATOM     28  C   UNL     1      13.982   4.180  96.846  0.00  0.00    +0.000 A 
ATOM     29  C   UNL     1      12.338   3.051  98.205  0.00  0.00    +0.000 A 
ATOM     30  C   UNL     1      13.229   3.041  97.129  0.00  0.00    +0.000 A 
BRANCH  25  31
ATOM     31  C   UNL     1      12.824   6.491  99.513  0.00  0.00    +0.000 C 
BRANCH  31  32
ATOM     32  N   UNL     1      12.687   7.685 100.338  0.00  0.00    +0.000 N 
ATOM     33  N   UNL     1       9.478   8.189 101.771  0.00  0.00    +0.000 N 
ATOM     34  C   UNL     1      11.480   8.409  99.852  0.00  0.00    +0.000 C 
ATOM     35  C   UNL     1      12.092   7.249 101.633  0.00  0.00    +0.000 C 
ATOM     36  C   UNL     1      10.077   8.637 100.484  0.00  0.00    +0.000 C 
ATOM     37  C   UNL     1      10.689   7.477 102.264  0.00  0.00    +0.000 C 
ATOM     38  C   UNL     1       9.313   9.374 102.600  0.00  0.00    +0.000 C 
ENDBRANCH  31  32
ENDBRANCH  25  31
ENDBRANCH  23  30
ENDBRANCH   1  22
TORSDOF 6
ENDMDL
MODEL 6
REMARK VINA RESULT:      -5.8     12.949     20.744
REMARK  Name = 10074640_Masitinib.pdbqt.pdb
REMARK  6 active torsions:
REMARK  status: ('A' for Active; 'I' for Inactive)
REMARK    1  A    between atoms: C_1  and  N_22
REMARK    2  A    between atoms: C_2  and  N_9
REMARK    3  A    between atoms: C_12  and  C_16
REMARK    4  A    between atoms: C_23  and  C_30
REMARK    5  A    between atoms: C_25  and  C_31
REMARK    6  A    between atoms: C_31  and  N_32
REMARK                            x       y       z     vdW  Elec       q    Type
REMARK                         _______ _______ _______ _____ _____    ______ ____
ROOT
ATOM      1  C   UNL     1      51.878  40.800  71.228  0.00  0.00    +0.000 A 
ATOM      2  C   UNL     1      54.220  41.279  71.766  0.00  0.00    +0.000 A 
ATOM      3  C   UNL     1      53.218  40.415  71.301  0.00  0.00    +0.000 A 
ATOM      4  C   UNL     1      53.821  42.570  72.164  0.00  0.00    +0.000 A 
ATOM      5  C   UNL     1      51.521  42.092  71.607  0.00  0.00    +0.000 A 
ATOM      6  C   UNL     1      52.488  42.973  72.084  0.00  0.00    +0.000 A 
ATOM      7  C   UNL     1      54.837  43.563  72.691  0.00  0.00    +0.000 C 
ENDROOT
BRANCH   2   9
ATOM      8  S   UNL     1      57.908  39.898  72.647  0.00  0.00    +0.000 S 
ATOM      9  N   UNL     1      55.582  40.898  71.798  0.00  0.00    +0.000 N 
ATOM     10  N   UNL     1      55.610  39.483  73.710  0.00  0.00    +0.000 NA
ATOM     11  C   UNL     1      56.195  40.128  72.725  0.00  0.00    +0.000 A 
ATOM     12  C   UNL     1      56.533  38.797  74.476  0.00  0.00    +0.000 A 
ATOM     13  C   UNL     1      57.828  38.921  74.032  0.00  0.00    +0.000 A 
ATOM     14  H   UNL     1      56.122  41.247  71.009  0.00  0.00    +0.000 HD
BRANCH  12  16
ATOM     15  N   UNL     1      54.897  36.132  76.515  0.00  0.00    +0.000 NA
ATOM     16  C   UNL     1      56.141  38.014  75.626  0.00  0.00    +0.000 A 
ATOM     17  C   UNL     1      56.612  38.297  76.904  0.00  0.00    +0.000 A 
ATOM     18  C   UNL     1      55.285  36.930  75.489  0.00  0.00    +0.000 A 
ATOM     19  C   UNL     1      56.228  37.512  77.986  0.00  0.00    +0.000 A 
ATOM     20  C   UNL     1      55.376  36.449  77.736  0.00  0.00    +0.000 A 
ENDBRANCH  12  16
ENDBRANCH   2   9
BRANCH   1  22
ATOM     21  O   UNL     1      50.843  40.561  68.524  0.00  0.00    +0.000 OA
ATOM     22  N   UNL     1      50.862  39.943  70.761  0.00  0.00    +0.000 N 
ATOM     23  C   UNL     1      50.384  39.917  69.459  0.00  0.00    +0.000 C 
ATOM     24  H   UNL     1      50.486  39.287  71.436  0.00  0.00    +0.000 HD
BRANCH  23  30
ATOM     25  C   UNL     1      47.135  37.281  68.607  0.00  0.00    +0.000 A 
ATOM     26  C   UNL     1      47.024  38.175  69.670  0.00  0.00    +0.000 A 
ATOM     27  C   UNL     1      48.293  37.246  67.836  0.00  0.00    +0.000 A 
ATOM     28  C   UNL     1      48.078  39.038  69.962  0.00  0.00    +0.000 A 
ATOM     29  C   UNL     1      49.346  38.109  68.129  0.00  0.00    +0.000 A 
ATOM     30  C   UNL     1      49.243  39.008  69.195  0.00  0.00    +0.000 A 
BRANCH  25  31
ATOM     31  C   UNL     1      46.056  36.398  68.307  0.00  0.00    +0.000 C 
BRANCH  31  32
ATOM     32  N   UNL     1      44.955  35.494  68.000  0.00  0.00    +0.000 N 
ATOM     33  N   UNL     1      44.271  33.030  70.463  0.00  0.00    +0.000 N 
ATOM     34  C   UNL     1      45.466  34.109  68.195  0.00  0.00    +0.000 C 
ATOM     35  C   UNL     1      44.053  35.491  69.186  0.00  0.00    +0.000 C 
ATOM     36  C   UNL     1      45.160  33.026  69.270  0.00  0.00    +0.000 C 
ATOM     37  C   UNL     1      43.748  34.409  70.261  0.00  0.00    +0.000 C 
ATOM     38  C   UNL     1      43.175  32.113  70.182  0.00  0.00    +0.000 C 
ENDBRANCH  31  32
ENDBRANCH  25  31
ENDBRANCH  23  30
ENDBRANCH   1  22
TORSDOF 6
ENDMDL
MODEL 7
REMARK VINA RESULT:      -5.8     57.831     62.760
REMARK  Name = 10074640_Masitinib.pdbqt.pdb
REMARK  6 active torsions:
REMARK  status: ('A' for Active; 'I' for Inactive)
REMARK    1  A    between atoms: C_1  and  N_22
REMARK    2  A    between atoms: C_2  and  N_9
REMARK    3  A    between atoms: C_12  and  C_16
REMARK    4  A    between atoms: C_23  and  C_30
REMARK    5  A    between atoms: C_25  and  C_31
REMARK    6  A    between atoms: C_31  and  N_32
REMARK                            x       y       z     vdW  Elec       q    Type
REMARK                         _______ _______ _______ _____ _____    ______ ____
ROOT
ATOM      1  C   UNL     1       3.790   8.554  86.811  0.00  0.00    +0.000 A 
ATOM      2  C   UNL     1       4.691   6.413  87.589  0.00  0.00    +0.000 A 
ATOM      3  C   UNL     1       4.855   7.670  86.991  0.00  0.00    +0.000 A 
ATOM      4  C   UNL     1       3.392   6.067  88.010  0.00  0.00    +0.000 A 
ATOM      5  C   UNL     1       2.522   8.190  87.260  0.00  0.00    +0.000 A 
ATOM      6  C   UNL     1       2.320   6.945  87.850  0.00  0.00    +0.000 A 
ATOM      7  C   UNL     1       3.124   4.723  88.656  0.00  0.00    +0.000 C 
ENDROOT
BRANCH   2   9
ATOM      8  S   UNL     1       7.750   3.791  87.357  0.00  0.00    +0.000 S 
ATOM      9  N   UNL     1       5.782   5.539  87.808  0.00  0.00    +0.000 N 
ATOM     10  N   UNL     1       6.498   5.146  85.573  0.00  0.00    +0.000 NA
ATOM     11  C   UNL     1       6.547   4.936  86.870  0.00  0.00    +0.000 A 
ATOM     12  C   UNL     1       7.414   4.356  84.904  0.00  0.00    +0.000 A 
ATOM     13  C   UNL     1       8.171   3.561  85.729  0.00  0.00    +0.000 A 
ATOM     14  H   UNL     1       5.994   5.388  88.792  0.00  0.00    +0.000 HD
BRANCH  12  16
ATOM     15  N   UNL     1       8.555   3.474  81.460  0.00  0.00    +0.000 NA
ATOM     16  C   UNL     1       7.552   4.398  83.466  0.00  0.00    +0.000 A 
ATOM     17  C   UNL     1       6.841   5.304  82.684  0.00  0.00    +0.000 A 
ATOM     18  C   UNL     1       8.395   3.514  82.807  0.00  0.00    +0.000 A 
ATOM     19  C   UNL     1       6.985   5.304  81.301  0.00  0.00    +0.000 A 
ATOM     20  C   UNL     1       7.848   4.374  80.745  0.00  0.00    +0.000 A 
ENDBRANCH  12  16
ENDBRANCH   2   9
BRANCH   1  22
ATOM     21  O   UNL     1       3.475   9.256  84.010  0.00  0.00    +0.000 OA
ATOM     22  N   UNL     1       3.940   9.821  86.213  0.00  0.00    +0.000 N 
ATOM     23  C   UNL     1       3.820  10.074  84.854  0.00  0.00    +0.000 C 
ATOM     24  H   UNL     1       4.121  10.594  86.843  0.00  0.00    +0.000 HD
BRANCH  23  30
ATOM     25  C   UNL     1       4.751  14.038  83.571  0.00  0.00    +0.000 A 
ATOM     26  C   UNL     1       3.592  13.819  84.311  0.00  0.00    +0.000 A 
ATOM     27  C   UNL     1       5.592  12.977  83.250  0.00  0.00    +0.000 A 
ATOM     28  C   UNL     1       3.274  12.530  84.733  0.00  0.00    +0.000 A 
ATOM     29  C   UNL     1       5.272  11.689  83.672  0.00  0.00    +0.000 A 
ATOM     30  C   UNL     1       4.111  11.460  84.414  0.00  0.00    +0.000 A 
BRANCH  25  31
ATOM     31  C   UNL     1       5.078  15.358  83.139  0.00  0.00    +0.000 C 
BRANCH  31  32
ATOM     32  N   UNL     1       5.411  16.707  82.700  0.00  0.00    +0.000 N 
ATOM     33  N   UNL     1       7.216  18.672  85.043  0.00  0.00    +0.000 N 
ATOM     34  C   UNL     1       4.966  17.634  83.778  0.00  0.00    +0.000 C 
ATOM     35  C   UNL     1       6.871  16.891  82.936  0.00  0.00    +0.000 C 
ATOM     36  C   UNL     1       5.757  18.502  84.799  0.00  0.00    +0.000 C 
ATOM     37  C   UNL     1       7.661  17.757  83.957  0.00  0.00    +0.000 C 
ATOM     38  C   UNL     1       7.562  20.025  84.630  0.00  0.00    +0.000 C 
ENDBRANCH  31  32
ENDBRANCH  25  31
ENDBRANCH  23  30
ENDBRANCH   1  22
TORSDOF 6
ENDMDL
MODEL 8
REMARK VINA RESULT:      -5.7     22.931     29.023
REMARK  Name = 10074640_Masitinib.pdbqt.pdb
REMARK  6 active torsions:
REMARK  status: ('A' for Active; 'I' for Inactive)
REMARK    1  A    between atoms: C_1  and  N_22
REMARK    2  A    between atoms: C_2  and  N_9
REMARK    3  A    between atoms: C_12  and  C_16
REMARK    4  A    between atoms: C_23  and  C_30
REMARK    5  A    between atoms: C_25  and  C_31
REMARK    6  A    between atoms: C_31  and  N_32
REMARK                            x       y       z     vdW  Elec       q    Type
REMARK                         _______ _______ _______ _____ _____    ______ ____
ROOT
ATOM      1  C   UNL     1      40.000  22.976  82.919  0.00  0.00    +0.000 A 
ATOM      2  C   UNL     1      42.059  24.300  83.017  0.00  0.00    +0.000 A 
ATOM      3  C   UNL     1      40.673  24.197  82.838  0.00  0.00    +0.000 A 
ATOM      4  C   UNL     1      42.762  23.109  83.285  0.00  0.00    +0.000 A 
ATOM      5  C   UNL     1      40.722  21.821  83.209  0.00  0.00    +0.000 A 
ATOM      6  C   UNL     1      42.102  21.883  83.382  0.00  0.00    +0.000 A 
ATOM      7  C   UNL     1      44.265  23.127  83.480  0.00  0.00    +0.000 C 
ENDROOT
BRANCH   2   9
ATOM      8  S   UNL     1      43.697  27.920  83.720  0.00  0.00    +0.000 S 
ATOM      9  N   UNL     1      42.729  25.545  82.976  0.00  0.00    +0.000 N 
ATOM     10  N   UNL     1      42.753  26.119  85.285  0.00  0.00    +0.000 NA
ATOM     11  C   UNL     1      42.979  26.373  84.015  0.00  0.00    +0.000 A 
ATOM     12  C   UNL     1      43.119  27.187  86.081  0.00  0.00    +0.000 A 
ATOM     13  C   UNL     1      43.648  28.246  85.385  0.00  0.00    +0.000 A 
ATOM     14  H   UNL     1      43.060  25.801  82.048  0.00  0.00    +0.000 HD
BRANCH  12  16
ATOM     15  N   UNL     1      41.973  28.126  89.508  0.00  0.00    +0.000 NA
ATOM     16  C   UNL     1      42.964  27.157  87.518  0.00  0.00    +0.000 A 
ATOM     17  C   UNL     1      43.564  26.177  88.303  0.00  0.00    +0.000 A 
ATOM     18  C   UNL     1      42.189  28.106  88.169  0.00  0.00    +0.000 A 
ATOM     19  C   UNL     1      43.379  26.168  89.681  0.00  0.00    +0.000 A 
ATOM     20  C   UNL     1      42.580  27.158  90.228  0.00  0.00    +0.000 A 
ENDBRANCH  12  16
ENDBRANCH   2   9
BRANCH   1  22
ATOM     21  O   UNL     1      37.932  22.995  84.959  0.00  0.00    +0.000 OA
ATOM     22  N   UNL     1      38.607  22.858  82.743  0.00  0.00    +0.000 N 
ATOM     23  C   UNL     1      37.678  22.828  83.773  0.00  0.00    +0.000 C 
ATOM     24  H   UNL     1      38.279  22.823  81.784  0.00  0.00    +0.000 HD
BRANCH  23  30
ATOM     25  C   UNL     1      33.598  22.128  82.728  0.00  0.00    +0.000 A 
ATOM     26  C   UNL     1      34.505  22.473  81.730  0.00  0.00    +0.000 A 
ATOM     27  C   UNL     1      34.017  22.017  84.051  0.00  0.00    +0.000 A 
ATOM     28  C   UNL     1      35.839  22.708  82.057  0.00  0.00    +0.000 A 
ATOM     29  C   UNL     1      35.350  22.253  84.376  0.00  0.00    +0.000 A 
ATOM     30  C   UNL     1      36.266  22.601  83.380  0.00  0.00    +0.000 A 
BRANCH  25  31
ATOM     31  C   UNL     1      32.232  21.886  82.394  0.00  0.00    +0.000 C 
BRANCH  31  32
ATOM     32  N   UNL     1      30.836  21.639  82.055  0.00  0.00    +0.000 N 
ATOM     33  N   UNL     1      28.461  22.833  84.408  0.00  0.00    +0.000 N 
ATOM     34  C   UNL     1      30.208  21.006  83.248  0.00  0.00    +0.000 C 
ATOM     35  C   UNL     1      30.124  22.942  82.182  0.00  0.00    +0.000 C 
ATOM     36  C   UNL     1      29.160  21.526  84.274  0.00  0.00    +0.000 C 
ATOM     37  C   UNL     1      29.078  23.462  83.208  0.00  0.00    +0.000 C 
ATOM     38  C   UNL     1      27.058  22.600  84.094  0.00  0.00    +0.000 C 
ENDBRANCH  31  32
ENDBRANCH  25  31
ENDBRANCH  23  30
ENDBRANCH   1  22
TORSDOF 6
ENDMDL
MODEL 9
REMARK VINA RESULT:      -5.7     20.116     25.691
REMARK  Name = 10074640_Masitinib.pdbqt.pdb
REMARK  6 active torsions:
REMARK  status: ('A' for Active; 'I' for Inactive)
REMARK    1  A    between atoms: C_1  and  N_22
REMARK    2  A    between atoms: C_2  and  N_9
REMARK    3  A    between atoms: C_12  and  C_16
REMARK    4  A    between atoms: C_23  and  C_30
REMARK    5  A    between atoms: C_25  and  C_31
REMARK    6  A    between atoms: C_31  and  N_32
REMARK                            x       y       z     vdW  Elec       q    Type
REMARK                         _______ _______ _______ _____ _____    ______ ____
ROOT
ATOM      1  C   UNL     1      39.839  22.370  80.593  0.00  0.00    +0.000 A 
ATOM      2  C   UNL     1      41.225  21.521  82.425  0.00  0.00    +0.000 A 
ATOM      3  C   UNL     1      41.087  22.127  81.169  0.00  0.00    +0.000 A 
ATOM      4  C   UNL     1      40.041  21.157  83.096  0.00  0.00    +0.000 A 
ATOM      5  C   UNL     1      38.687  22.019  81.294  0.00  0.00    +0.000 A 
ATOM      6  C   UNL     1      38.786  21.405  82.539  0.00  0.00    +0.000 A 
ATOM      7  C   UNL     1      40.099  20.485  84.454  0.00  0.00    +0.000 C 
ENDROOT
BRANCH   2   9
ATOM      8  S   UNL     1      44.935  21.787  83.991  0.00  0.00    +0.000 S 
ATOM      9  N   UNL     1      42.491  21.316  83.023  0.00  0.00    +0.000 N 
ATOM     10  N   UNL     1      43.181  23.562  83.395  0.00  0.00    +0.000 NA
ATOM     11  C   UNL     1      43.379  22.263  83.401  0.00  0.00    +0.000 A 
ATOM     12  C   UNL     1      44.300  24.241  83.837  0.00  0.00    +0.000 A 
ATOM     13  C   UNL     1      45.342  23.422  84.198  0.00  0.00    +0.000 A 
ATOM     14  H   UNL     1      42.712  20.336  83.187  0.00  0.00    +0.000 HD
BRANCH  12  16
ATOM     15  N   UNL     1      43.292  27.809  83.395  0.00  0.00    +0.000 NA
ATOM     16  C   UNL     1      44.337  25.684  83.918  0.00  0.00    +0.000 A 
ATOM     17  C   UNL     1      45.353  26.357  84.591  0.00  0.00    +0.000 A 
ATOM     18  C   UNL     1      43.341  26.454  83.336  0.00  0.00    +0.000 A 
ATOM     19  C   UNL     1      45.348  27.746  84.663  0.00  0.00    +0.000 A 
ATOM     20  C   UNL     1      44.302  28.417  84.054  0.00  0.00    +0.000 A 
ENDBRANCH  12  16
ENDBRANCH   2   9
BRANCH   1  22
ATOM     21  O   UNL     1      40.006  25.196  79.942  0.00  0.00    +0.000 OA
ATOM     22  N   UNL     1      39.685  22.980  79.332  0.00  0.00    +0.000 N 
ATOM     23  C   UNL     1      39.731  24.347  79.103  0.00  0.00    +0.000 C 
ATOM     24  H   UNL     1      39.560  22.354  78.545  0.00  0.00    +0.000 HD
BRANCH  23  30
ATOM     25  C   UNL     1      38.997  25.575  75.080  0.00  0.00    +0.000 A 
ATOM     26  C   UNL     1      38.433  26.302  76.126  0.00  0.00    +0.000 A 
ATOM     27  C   UNL     1      39.786  24.460  75.344  0.00  0.00    +0.000 A 
ATOM     28  C   UNL     1      38.662  25.911  77.443  0.00  0.00    +0.000 A 
ATOM     29  C   UNL     1      40.012  24.069  76.662  0.00  0.00    +0.000 A 
ATOM     30  C   UNL     1      39.450  24.793  77.717  0.00  0.00    +0.000 A 
BRANCH  25  31
ATOM     31  C   UNL     1      38.765  25.976  73.731  0.00  0.00    +0.000 C 
BRANCH  31  32
ATOM     32  N   UNL     1      38.525  26.387  72.353  0.00  0.00    +0.000 N 
ATOM     33  N   UNL     1      41.433  26.817  70.362  0.00  0.00    +0.000 N 
ATOM     34  C   UNL     1      39.394  27.569  72.098  0.00  0.00    +0.000 C 
ATOM     35  C   UNL     1      39.288  25.448  71.484  0.00  0.00    +0.000 C 
ATOM     36  C   UNL     1      40.663  27.760  71.219  0.00  0.00    +0.000 C 
ATOM     37  C   UNL     1      40.557  25.638  70.605  0.00  0.00    +0.000 C 
ATOM     38  C   UNL     1      41.223  27.227  68.981  0.00  0.00    +0.000 C 
ENDBRANCH  31  32
ENDBRANCH  25  31
ENDBRANCH  23  30
ENDBRANCH   1  22
TORSDOF 6
ENDMDL
