MODEL 1
REMARK VINA RESULT:      -6.8      0.000      0.000
REMARK  Name = 101808842_CandidaspongiolideB.pdbqt.pdb
REMARK  12 active torsions:
REMARK  status: ('A' for Active; 'I' for Inactive)
REMARK    1  A    between atoms: C_6  and  C_42
REMARK    2  A    between atoms: C_7  and  O_28
REMARK    3  A    between atoms: C_10  and  O_30
REMARK    4  A    between atoms: C_13  and  O_32
REMARK    5  A    between atoms: C_19  and  O_34
REMARK    6  A    between atoms: C_20  and  O_38
REMARK    7  A    between atoms: C_21  and  O_36
REMARK    8  A    between atoms: O_38  and  C_40
REMARK    9  A    between atoms: C_42  and  C_44
REMARK   10  A    between atoms: C_42  and  O_52
REMARK   11  A    between atoms: C_45  and  C_47
REMARK   12  A    between atoms: C_47  and  C_49
REMARK                            x       y       z     vdW  Elec       q    Type
REMARK                         _______ _______ _______ _____ _____    ______ ____
ROOT
ATOM      1  O   UNL     1      54.537  41.953  73.187  0.00  0.00    +0.000 OA
ATOM      2  O   UNL     1      58.411  36.733  70.962  0.00  0.00    +0.000 OA
ATOM      3  O   UNL     1      55.738  38.393  73.811  0.00  0.00    +0.000 OA
ATOM      4  O   UNL     1      56.169  37.015  70.498  0.00  0.00    +0.000 OA
ATOM      5  O   UNL     1      55.538  39.025  68.418  0.00  0.00    +0.000 OA
ATOM      6  C   UNL     1      58.008  38.159  73.286  0.00  0.00    +0.000 C 
ATOM      7  C   UNL     1      56.805  40.415  72.895  0.00  0.00    +0.000 C 
ATOM      8  C   UNL     1      56.745  38.946  73.367  0.00  0.00    +0.000 C 
ATOM      9  C   UNL     1      58.245  37.384  72.115  0.00  0.00    +0.000 C 
ATOM     10  C   UNL     1      56.529  40.511  71.382  0.00  0.00    +0.000 C 
ATOM     11  C   UNL     1      55.419  41.330  71.016  0.00  0.00    +0.000 C 
ATOM     12  C   UNL     1      55.643  41.212  73.403  0.00  0.00    +0.000 C 
ATOM     13  C   UNL     1      54.358  42.115  71.721  0.00  0.00    +0.000 C 
ATOM     14  C   UNL     1      52.955  41.631  71.325  0.00  0.00    +0.000 C 
ATOM     15  C   UNL     1      52.769  40.399  70.630  0.00  0.00    +0.000 C 
ATOM     16  C   UNL     1      51.653  42.407  71.502  0.00  0.00    +0.000 C 
ATOM     17  C   UNL     1      57.301  36.690  70.174  0.00  0.00    +0.000 C 
ATOM     18  C   UNL     1      52.679  39.283  69.975  0.00  0.00    +0.000 C 
ATOM     19  C   UNL     1      57.658  36.269  68.799  0.00  0.00    +0.000 C 
ATOM     20  C   UNL     1      52.614  39.253  68.532  0.00  0.00    +0.000 C 
ATOM     21  C   UNL     1      56.775  36.527  67.679  0.00  0.00    +0.000 C 
ATOM     22  C   UNL     1      53.380  38.375  67.650  0.00  0.00    +0.000 C 
ATOM     23  C   UNL     1      55.336  36.735  67.732  0.00  0.00    +0.000 C 
ATOM     24  C   UNL     1      54.822  38.119  67.980  0.00  0.00    +0.000 C 
ATOM     25  C   UNL     1      52.845  38.022  70.773  0.00  0.00    +0.000 C 
ATOM     26  C   UNL     1      52.904  38.142  66.218  0.00  0.00    +0.000 C 
ATOM     27  C   UNL     1      54.423  35.514  67.785  0.00  0.00    +0.000 C 
ENDROOT
BRANCH   7  28
ATOM     28  O   UNL     1      57.998  41.114  73.188  0.00  0.00    +0.000 OA
ATOM     29  H   UNL     1      58.469  40.586  73.859  0.00  0.00    +0.000 HD
ENDBRANCH   7  28
BRANCH  10  30
ATOM     30  O   UNL     1      57.301  39.874  70.445  0.00  0.00    +0.000 OA
ATOM     31  H   UNL     1      58.014  40.459  70.114  0.00  0.00    +0.000 HD
ENDBRANCH  10  30
BRANCH  13  32
ATOM     32  O   UNL     1      54.540  43.489  71.391  0.00  0.00    +0.000 OA
ATOM     33  H   UNL     1      55.480  43.674  71.546  0.00  0.00    +0.000 HD
ENDBRANCH  13  32
BRANCH  19  34
ATOM     34  O   UNL     1      58.900  35.744  68.492  0.00  0.00    +0.000 OA
ATOM     35  H   UNL     1      59.330  36.191  67.733  0.00  0.00    +0.000 HD
ENDBRANCH  19  34
BRANCH  21  36
ATOM     36  O   UNL     1      57.296  36.187  66.441  0.00  0.00    +0.000 OA
ATOM     37  C   UNL     1      57.513  37.334  65.656  0.00  0.00    +0.000 C 
ENDBRANCH  21  36
BRANCH  20  38
ATOM     38  O   UNL     1      51.509  39.937  67.973  0.00  0.00    +0.000 OA
BRANCH  38  40
ATOM     39  O   UNL     1      49.956  38.217  68.224  0.00  0.00    +0.000 OA
ATOM     40  C   UNL     1      50.340  39.364  68.361  0.00  0.00    +0.000 C 
ATOM     41  C   UNL     1      49.361  40.290  68.982  0.00  0.00    +0.000 C 
ENDBRANCH  38  40
ENDBRANCH  20  38
BRANCH   6  42
ATOM     42  C   UNL     1      58.824  38.040  74.474  0.00  0.00    +0.000 C 
BRANCH  42  44
ATOM     43  O   UNL     1      59.015  37.112  76.818  0.00  0.00    +0.000 OA
ATOM     44  C   UNL     1      58.673  36.908  75.425  0.00  0.00    +0.000 C 
ATOM     45  C   UNL     1      57.693  37.173  76.473  0.00  0.00    +0.000 C 
ATOM     46  C   UNL     1      59.157  35.486  74.987  0.00  0.00    +0.000 C 
BRANCH  45  47
ATOM     47  C   UNL     1      56.823  36.187  77.039  0.00  0.00    +0.000 C 
ATOM     48  C   UNL     1      55.664  35.648  76.239  0.00  0.00    +0.000 C 
BRANCH  47  49
ATOM     49  C   UNL     1      57.261  35.384  78.123  0.00  0.00    +0.000 C 
ATOM     50  C   UNL     1      57.586  34.659  79.020  0.00  0.00    +0.000 C 
ATOM     51  C   UNL     1      57.904  33.661  80.137  0.00  0.00    +0.000 C 
ENDBRANCH  47  49
ENDBRANCH  45  47
ENDBRANCH  42  44
BRANCH  42  52
ATOM     52  O   UNL     1      59.776  39.037  74.643  0.00  0.00    +0.000 OA
ATOM     53  H   UNL     1      59.595  39.590  75.429  0.00  0.00    +0.000 HD
ENDBRANCH  42  52
ENDBRANCH   6  42
TORSDOF 12
ENDMDL
MODEL 2
REMARK VINA RESULT:      -6.5      1.650      2.487
REMARK  Name = 101808842_CandidaspongiolideB.pdbqt.pdb
REMARK  12 active torsions:
REMARK  status: ('A' for Active; 'I' for Inactive)
REMARK    1  A    between atoms: C_6  and  C_42
REMARK    2  A    between atoms: C_7  and  O_28
REMARK    3  A    between atoms: C_10  and  O_30
REMARK    4  A    between atoms: C_13  and  O_32
REMARK    5  A    between atoms: C_19  and  O_34
REMARK    6  A    between atoms: C_20  and  O_38
REMARK    7  A    between atoms: C_21  and  O_36
REMARK    8  A    between atoms: O_38  and  C_40
REMARK    9  A    between atoms: C_42  and  C_44
REMARK   10  A    between atoms: C_42  and  O_52
REMARK   11  A    between atoms: C_45  and  C_47
REMARK   12  A    between atoms: C_47  and  C_49
REMARK                            x       y       z     vdW  Elec       q    Type
REMARK                         _______ _______ _______ _____ _____    ______ ____
ROOT
ATOM      1  O   UNL     1      54.979  41.280  73.754  0.00  0.00    +0.000 OA
ATOM      2  O   UNL     1      58.535  35.852  71.496  0.00  0.00    +0.000 OA
ATOM      3  O   UNL     1      55.564  37.527  74.023  0.00  0.00    +0.000 OA
ATOM      4  O   UNL     1      56.492  36.537  70.673  0.00  0.00    +0.000 OA
ATOM      5  O   UNL     1      56.565  38.873  68.854  0.00  0.00    +0.000 OA
ATOM      6  C   UNL     1      57.844  37.012  73.899  0.00  0.00    +0.000 C 
ATOM      7  C   UNL     1      57.045  39.459  73.651  0.00  0.00    +0.000 C 
ATOM      8  C   UNL     1      56.703  37.969  73.867  0.00  0.00    +0.000 C 
ATOM      9  C   UNL     1      58.218  36.367  72.686  0.00  0.00    +0.000 C 
ATOM     10  C   UNL     1      57.102  39.792  72.147  0.00  0.00    +0.000 C 
ATOM     11  C   UNL     1      56.204  40.813  71.715  0.00  0.00    +0.000 C 
ATOM     12  C   UNL     1      55.914  40.355  74.053  0.00  0.00    +0.000 C 
ATOM     13  C   UNL     1      55.129  41.656  72.324  0.00  0.00    +0.000 C 
ATOM     14  C   UNL     1      53.789  41.452  71.602  0.00  0.00    +0.000 C 
ATOM     15  C   UNL     1      53.596  40.364  70.700  0.00  0.00    +0.000 C 
ATOM     16  C   UNL     1      52.588  42.391  71.654  0.00  0.00    +0.000 C 
ATOM     17  C   UNL     1      57.617  36.084  70.519  0.00  0.00    +0.000 C 
ATOM     18  C   UNL     1      53.502  39.369  69.873  0.00  0.00    +0.000 C 
ATOM     19  C   UNL     1      58.194  35.794  69.185  0.00  0.00    +0.000 C 
ATOM     20  C   UNL     1      53.734  39.536  68.456  0.00  0.00    +0.000 C 
ATOM     21  C   UNL     1      57.602  36.329  67.975  0.00  0.00    +0.000 C 
ATOM     22  C   UNL     1      54.549  38.671  67.606  0.00  0.00    +0.000 C 
ATOM     23  C   UNL     1      56.220  36.750  67.791  0.00  0.00    +0.000 C 
ATOM     24  C   UNL     1      55.846  38.153  68.153  0.00  0.00    +0.000 C 
ATOM     25  C   UNL     1      53.339  38.005  70.479  0.00  0.00    +0.000 C 
ATOM     26  C   UNL     1      54.353  38.701  66.091  0.00  0.00    +0.000 C 
ATOM     27  C   UNL     1      55.169  35.689  67.480  0.00  0.00    +0.000 C 
ENDROOT
BRANCH   7  28
ATOM     28  O   UNL     1      58.230  39.920  74.267  0.00  0.00    +0.000 OA
ATOM     29  H   UNL     1      58.335  40.852  73.999  0.00  0.00    +0.000 HD
ENDBRANCH   7  28
BRANCH  10  30
ATOM     30  O   UNL     1      57.964  39.168  71.282  0.00  0.00    +0.000 OA
ATOM     31  H   UNL     1      58.685  39.770  71.003  0.00  0.00    +0.000 HD
ENDBRANCH  10  30
BRANCH  13  32
ATOM     32  O   UNL     1      55.549  43.016  72.254  0.00  0.00    +0.000 OA
ATOM     33  H   UNL     1      56.516  42.989  72.171  0.00  0.00    +0.000 HD
ENDBRANCH  13  32
BRANCH  19  34
ATOM     34  O   UNL     1      59.396  35.127  69.036  0.00  0.00    +0.000 OA
ATOM     35  H   UNL     1      59.823  34.908  69.890  0.00  0.00    +0.000 HD
ENDBRANCH  19  34
BRANCH  21  36
ATOM     36  O   UNL     1      58.320  36.075  66.818  0.00  0.00    +0.000 OA
ATOM     37  C   UNL     1      58.630  37.271  66.148  0.00  0.00    +0.000 C 
ENDBRANCH  21  36
BRANCH  20  38
ATOM     38  O   UNL     1      52.864  40.450  67.815  0.00  0.00    +0.000 OA
BRANCH  38  40
ATOM     39  O   UNL     1      51.089  38.974  67.496  0.00  0.00    +0.000 OA
ATOM     40  C   UNL     1      51.578  40.020  67.883  0.00  0.00    +0.000 C 
ATOM     41  C   UNL     1      50.616  40.998  68.450  0.00  0.00    +0.000 C 
ENDBRANCH  38  40
ENDBRANCH  20  38
BRANCH   6  42
ATOM     42  C   UNL     1      58.376  36.615  75.184  0.00  0.00    +0.000 C 
BRANCH  42  44
ATOM     43  O   UNL     1      60.303  36.144  76.752  0.00  0.00    +0.000 OA
ATOM     44  C   UNL     1      59.833  36.428  75.412  0.00  0.00    +0.000 C 
ATOM     45  C   UNL     1      60.167  35.090  75.890  0.00  0.00    +0.000 C 
ATOM     46  C   UNL     1      60.835  37.411  74.721  0.00  0.00    +0.000 C 
BRANCH  45  47
ATOM     47  C   UNL     1      61.357  34.377  75.537  0.00  0.00    +0.000 C 
ATOM     48  C   UNL     1      62.635  34.607  76.302  0.00  0.00    +0.000 C 
BRANCH  47  49
ATOM     49  C   UNL     1      61.273  33.162  74.811  0.00  0.00    +0.000 C 
ATOM     50  C   UNL     1      61.148  32.119  74.234  0.00  0.00    +0.000 C 
ATOM     51  C   UNL     1      60.903  30.755  73.581  0.00  0.00    +0.000 C 
ENDBRANCH  47  49
ENDBRANCH  45  47
ENDBRANCH  42  44
BRANCH  42  52
ATOM     52  O   UNL     1      57.435  36.453  76.193  0.00  0.00    +0.000 OA
ATOM     53  H   UNL     1      57.732  35.819  76.876  0.00  0.00    +0.000 HD
ENDBRANCH  42  52
ENDBRANCH   6  42
TORSDOF 12
ENDMDL
MODEL 3
REMARK VINA RESULT:      -6.4      5.007     10.127
REMARK  Name = 101808842_CandidaspongiolideB.pdbqt.pdb
REMARK  12 active torsions:
REMARK  status: ('A' for Active; 'I' for Inactive)
REMARK    1  A    between atoms: C_6  and  C_42
REMARK    2  A    between atoms: C_7  and  O_28
REMARK    3  A    between atoms: C_10  and  O_30
REMARK    4  A    between atoms: C_13  and  O_32
REMARK    5  A    between atoms: C_19  and  O_34
REMARK    6  A    between atoms: C_20  and  O_38
REMARK    7  A    between atoms: C_21  and  O_36
REMARK    8  A    between atoms: O_38  and  C_40
REMARK    9  A    between atoms: C_42  and  C_44
REMARK   10  A    between atoms: C_42  and  O_52
REMARK   11  A    between atoms: C_45  and  C_47
REMARK   12  A    between atoms: C_47  and  C_49
REMARK                            x       y       z     vdW  Elec       q    Type
REMARK                         _______ _______ _______ _____ _____    ______ ____
ROOT
ATOM      1  O   UNL     1      63.176  35.908  77.130  0.00  0.00    +0.000 OA
ATOM      2  O   UNL     1      59.171  35.678  71.551  0.00  0.00    +0.000 OA
ATOM      3  O   UNL     1      61.754  37.814  74.156  0.00  0.00    +0.000 OA
ATOM      4  O   UNL     1      61.449  35.311  71.568  0.00  0.00    +0.000 OA
ATOM      5  O   UNL     1      62.307  32.653  72.551  0.00  0.00    +0.000 OA
ATOM      6  C   UNL     1      59.511  37.258  73.785  0.00  0.00    +0.000 C 
ATOM      7  C   UNL     1      60.851  36.087  75.661  0.00  0.00    +0.000 C 
ATOM      8  C   UNL     1      60.805  37.111  74.507  0.00  0.00    +0.000 C 
ATOM      9  C   UNL     1      59.303  36.482  72.609  0.00  0.00    +0.000 C 
ATOM     10  C   UNL     1      61.221  34.687  75.131  0.00  0.00    +0.000 C 
ATOM     11  C   UNL     1      62.393  34.109  75.705  0.00  0.00    +0.000 C 
ATOM     12  C   UNL     1      62.021  36.318  76.567  0.00  0.00    +0.000 C 
ATOM     13  C   UNL     1      63.450  34.518  76.682  0.00  0.00    +0.000 C 
ATOM     14  C   UNL     1      64.846  34.455  76.046  0.00  0.00    +0.000 C 
ATOM     15  C   UNL     1      65.008  34.329  74.634  0.00  0.00    +0.000 C 
ATOM     16  C   UNL     1      66.174  34.405  76.795  0.00  0.00    +0.000 C 
ATOM     17  C   UNL     1      60.322  35.060  71.167  0.00  0.00    +0.000 C 
ATOM     18  C   UNL     1      65.078  34.187  73.346  0.00  0.00    +0.000 C 
ATOM     19  C   UNL     1      60.025  33.946  70.235  0.00  0.00    +0.000 C 
ATOM     20  C   UNL     1      65.227  32.886  72.734  0.00  0.00    +0.000 C 
ATOM     21  C   UNL     1      60.986  32.887  69.997  0.00  0.00    +0.000 C 
ATOM     22  C   UNL     1      64.469  32.375  71.594  0.00  0.00    +0.000 C 
ATOM     23  C   UNL     1      62.429  32.960  70.174  0.00  0.00    +0.000 C 
ATOM     24  C   UNL     1      62.999  32.670  71.527  0.00  0.00    +0.000 C 
ATOM     25  C   UNL     1      64.798  35.409  72.519  0.00  0.00    +0.000 C 
ATOM     26  C   UNL     1      65.017  31.197  70.790  0.00  0.00    +0.000 C 
ATOM     27  C   UNL     1      63.271  33.567  69.057  0.00  0.00    +0.000 C 
ENDROOT
BRANCH   7  28
ATOM     28  O   UNL     1      59.681  35.983  76.447  0.00  0.00    +0.000 OA
ATOM     29  H   UNL     1      59.917  36.308  77.335  0.00  0.00    +0.000 HD
ENDBRANCH   7  28
BRANCH  10  30
ATOM     30  O   UNL     1      60.474  34.030  74.188  0.00  0.00    +0.000 OA
ATOM     31  H   UNL     1      60.808  34.207  73.284  0.00  0.00    +0.000 HD
ENDBRANCH  10  30
BRANCH  13  32
ATOM     32  O   UNL     1      63.360  33.651  77.809  0.00  0.00    +0.000 OA
ATOM     33  H   UNL     1      63.447  32.750  77.456  0.00  0.00    +0.000 HD
ENDBRANCH  13  32
BRANCH  19  34
ATOM     34  O   UNL     1      58.778  33.782  69.662  0.00  0.00    +0.000 OA
ATOM     35  H   UNL     1      58.799  33.801  68.683  0.00  0.00    +0.000 HD
ENDBRANCH  19  34
BRANCH  21  36
ATOM     36  O   UNL     1      60.522  31.854  69.200  0.00  0.00    +0.000 OA
ATOM     37  C   UNL     1      60.364  30.674  69.948  0.00  0.00    +0.000 C 
ENDBRANCH  21  36
BRANCH  20  38
ATOM     38  O   UNL     1      66.398  32.184  73.107  0.00  0.00    +0.000 OA
BRANCH  38  40
ATOM     39  O   UNL     1      67.842  33.203  71.588  0.00  0.00    +0.000 OA
ATOM     40  C   UNL     1      67.510  32.854  72.706  0.00  0.00    +0.000 C 
ATOM     41  C   UNL     1      68.494  33.139  73.779  0.00  0.00    +0.000 C 
ENDBRANCH  38  40
ENDBRANCH  20  38
BRANCH   6  42
ATOM     42  C   UNL     1      58.620  38.328  74.175  0.00  0.00    +0.000 C 
BRANCH  42  44
ATOM     43  O   UNL     1      56.957  37.011  75.551  0.00  0.00    +0.000 OA
ATOM     44  C   UNL     1      57.219  38.072  74.601  0.00  0.00    +0.000 C 
ATOM     45  C   UNL     1      57.009  38.292  76.028  0.00  0.00    +0.000 C 
ATOM     46  C   UNL     1      56.090  38.071  73.517  0.00  0.00    +0.000 C 
BRANCH  45  47
ATOM     47  C   UNL     1      55.809  38.827  76.598  0.00  0.00    +0.000 C 
ATOM     48  C   UNL     1      55.004  38.009  77.577  0.00  0.00    +0.000 C 
BRANCH  47  49
ATOM     49  C   UNL     1      55.593  40.228  76.629  0.00  0.00    +0.000 C 
ATOM     50  C   UNL     1      55.388  41.405  76.718  0.00  0.00    +0.000 C 
ATOM     51  C   UNL     1      55.067  42.886  76.938  0.00  0.00    +0.000 C 
ENDBRANCH  47  49
ENDBRANCH  45  47
ENDBRANCH  42  44
BRANCH  42  52
ATOM     52  O   UNL     1      59.174  39.601  74.154  0.00  0.00    +0.000 OA
ATOM     53  H   UNL     1      59.626  39.820  74.994  0.00  0.00    +0.000 HD
ENDBRANCH  42  52
ENDBRANCH   6  42
TORSDOF 12
ENDMDL
MODEL 4
REMARK VINA RESULT:      -6.4     13.334     17.178
REMARK  Name = 101808842_CandidaspongiolideB.pdbqt.pdb
REMARK  12 active torsions:
REMARK  status: ('A' for Active; 'I' for Inactive)
REMARK    1  A    between atoms: C_6  and  C_42
REMARK    2  A    between atoms: C_7  and  O_28
REMARK    3  A    between atoms: C_10  and  O_30
REMARK    4  A    between atoms: C_13  and  O_32
REMARK    5  A    between atoms: C_19  and  O_34
REMARK    6  A    between atoms: C_20  and  O_38
REMARK    7  A    between atoms: C_21  and  O_36
REMARK    8  A    between atoms: O_38  and  C_40
REMARK    9  A    between atoms: C_42  and  C_44
REMARK   10  A    between atoms: C_42  and  O_52
REMARK   11  A    between atoms: C_45  and  C_47
REMARK   12  A    between atoms: C_47  and  C_49
REMARK                            x       y       z     vdW  Elec       q    Type
REMARK                         _______ _______ _______ _____ _____    ______ ____
ROOT
ATOM      1  O   UNL     1      44.170  35.874  85.077  0.00  0.00    +0.000 OA
ATOM      2  O   UNL     1      45.625  39.114  79.194  0.00  0.00    +0.000 OA
ATOM      3  O   UNL     1      42.894  38.140  82.295  0.00  0.00    +0.000 OA
ATOM      4  O   UNL     1      45.803  40.040  81.300  0.00  0.00    +0.000 OA
ATOM      5  O   UNL     1      48.188  39.227  82.854  0.00  0.00    +0.000 OA
ATOM      6  C   UNL     1      43.679  37.442  80.203  0.00  0.00    +0.000 C 
ATOM      7  C   UNL     1      44.418  36.207  82.352  0.00  0.00    +0.000 C 
ATOM      8  C   UNL     1      43.603  37.337  81.687  0.00  0.00    +0.000 C 
ATOM      9  C   UNL     1      44.651  38.316  79.638  0.00  0.00    +0.000 C 
ATOM     10  C   UNL     1      45.852  36.682  82.662  0.00  0.00    +0.000 C 
ATOM     11  C   UNL     1      46.234  36.607  84.035  0.00  0.00    +0.000 C 
ATOM     12  C   UNL     1      43.950  35.927  83.747  0.00  0.00    +0.000 C 
ATOM     13  C   UNL     1      45.589  36.235  85.333  0.00  0.00    +0.000 C 
ATOM     14  C   UNL     1      45.643  37.399  86.333  0.00  0.00    +0.000 C 
ATOM     15  C   UNL     1      45.985  38.718  85.910  0.00  0.00    +0.000 C 
ATOM     16  C   UNL     1      45.466  37.296  87.844  0.00  0.00    +0.000 C 
ATOM     17  C   UNL     1      46.204  39.884  80.156  0.00  0.00    +0.000 C 
ATOM     18  C   UNL     1      46.331  39.884  85.459  0.00  0.00    +0.000 C 
ATOM     19  C   UNL     1      47.475  40.463  79.661  0.00  0.00    +0.000 C 
ATOM     20  C   UNL     1      47.697  40.348  85.522  0.00  0.00    +0.000 C 
ATOM     21  C   UNL     1      48.480  40.969  80.575  0.00  0.00    +0.000 C 
ATOM     22  C   UNL     1      48.446  40.984  84.440  0.00  0.00    +0.000 C 
ATOM     23  C   UNL     1      48.264  41.441  81.935  0.00  0.00    +0.000 C 
ATOM     24  C   UNL     1      48.283  40.443  83.050  0.00  0.00    +0.000 C 
ATOM     25  C   UNL     1      45.286  40.644  84.692  0.00  0.00    +0.000 C 
ATOM     26  C   UNL     1      49.693  41.805  84.766  0.00  0.00    +0.000 C 
ATOM     27  C   UNL     1      47.783  42.873  82.143  0.00  0.00    +0.000 C 
ENDROOT
BRANCH   7  28
ATOM     28  O   UNL     1      44.484  34.987  81.641  0.00  0.00    +0.000 OA
ATOM     29  H   UNL     1      44.138  35.170  80.748  0.00  0.00    +0.000 HD
ENDBRANCH   7  28
BRANCH  10  30
ATOM     30  O   UNL     1      46.711  37.128  81.692  0.00  0.00    +0.000 OA
ATOM     31  H   UNL     1      46.843  36.451  80.996  0.00  0.00    +0.000 HD
ENDBRANCH  10  30
BRANCH  13  32
ATOM     32  O   UNL     1      46.264  35.088  85.842  0.00  0.00    +0.000 OA
ATOM     33  H   UNL     1      46.792  35.406  86.593  0.00  0.00    +0.000 HD
ENDBRANCH  13  32
BRANCH  19  34
ATOM     34  O   UNL     1      47.828  40.420  78.325  0.00  0.00    +0.000 OA
ATOM     35  H   UNL     1      47.095  40.665  77.724  0.00  0.00    +0.000 HD
ENDBRANCH  19  34
BRANCH  21  36
ATOM     36  O   UNL     1      49.663  41.365  79.973  0.00  0.00    +0.000 OA
ATOM     37  C   UNL     1      50.774  40.841  80.657  0.00  0.00    +0.000 C 
ENDBRANCH  21  36
BRANCH  20  38
ATOM     38  O   UNL     1      48.234  40.440  86.829  0.00  0.00    +0.000 OA
BRANCH  38  40
ATOM     39  O   UNL     1      49.338  38.414  86.496  0.00  0.00    +0.000 OA
ATOM     40  C   UNL     1      48.821  39.270  87.192  0.00  0.00    +0.000 C 
ATOM     41  C   UNL     1      48.763  38.959  88.641  0.00  0.00    +0.000 C 
ENDBRANCH  38  40
ENDBRANCH  20  38
BRANCH   6  42
ATOM     42  C   UNL     1      42.633  36.830  79.413  0.00  0.00    +0.000 C 
BRANCH  42  44
ATOM     43  O   UNL     1      40.184  36.427  78.934  0.00  0.00    +0.000 OA
ATOM     44  C   UNL     1      41.215  37.266  79.508  0.00  0.00    +0.000 C 
ATOM     45  C   UNL     1      40.389  36.347  80.284  0.00  0.00    +0.000 C 
ATOM     46  C   UNL     1      40.867  38.765  79.223  0.00  0.00    +0.000 C 
BRANCH  45  47
ATOM     47  C   UNL     1      39.309  36.748  81.134  0.00  0.00    +0.000 C 
ATOM     48  C   UNL     1      37.883  36.456  80.739  0.00  0.00    +0.000 C 
BRANCH  47  49
ATOM     49  C   UNL     1      39.537  36.999  82.511  0.00  0.00    +0.000 C 
ATOM     50  C   UNL     1      39.730  37.277  83.660  0.00  0.00    +0.000 C 
ATOM     51  C   UNL     1      39.996  37.749  85.092  0.00  0.00    +0.000 C 
ENDBRANCH  47  49
ENDBRANCH  45  47
ENDBRANCH  42  44
BRANCH  42  52
ATOM     52  O   UNL     1      43.053  35.834  78.541  0.00  0.00    +0.000 OA
ATOM     53  H   UNL     1      42.364  35.605  77.884  0.00  0.00    +0.000 HD
ENDBRANCH  42  52
ENDBRANCH   6  42
TORSDOF 12
ENDMDL
MODEL 5
REMARK VINA RESULT:      -6.3      2.118      2.672
REMARK  Name = 101808842_CandidaspongiolideB.pdbqt.pdb
REMARK  12 active torsions:
REMARK  status: ('A' for Active; 'I' for Inactive)
REMARK    1  A    between atoms: C_6  and  C_42
REMARK    2  A    between atoms: C_7  and  O_28
REMARK    3  A    between atoms: C_10  and  O_30
REMARK    4  A    between atoms: C_13  and  O_32
REMARK    5  A    between atoms: C_19  and  O_34
REMARK    6  A    between atoms: C_20  and  O_38
REMARK    7  A    between atoms: C_21  and  O_36
REMARK    8  A    between atoms: O_38  and  C_40
REMARK    9  A    between atoms: C_42  and  C_44
REMARK   10  A    between atoms: C_42  and  O_52
REMARK   11  A    between atoms: C_45  and  C_47
REMARK   12  A    between atoms: C_47  and  C_49
REMARK                            x       y       z     vdW  Elec       q    Type
REMARK                         _______ _______ _______ _____ _____    ______ ____
ROOT
ATOM      1  O   UNL     1      55.104  43.567  71.470  0.00  0.00    +0.000 OA
ATOM      2  O   UNL     1      57.273  37.050  71.273  0.00  0.00    +0.000 OA
ATOM      3  O   UNL     1      54.653  40.024  72.792  0.00  0.00    +0.000 OA
ATOM      4  O   UNL     1      55.558  37.918  69.997  0.00  0.00    +0.000 OA
ATOM      5  O   UNL     1      56.395  39.542  67.667  0.00  0.00    +0.000 OA
ATOM      6  C   UNL     1      56.718  38.984  73.157  0.00  0.00    +0.000 C 
ATOM      7  C   UNL     1      56.617  41.369  72.162  0.00  0.00    +0.000 C 
ATOM      8  C   UNL     1      55.877  40.126  72.702  0.00  0.00    +0.000 C 
ATOM      9  C   UNL     1      57.007  37.946  72.225  0.00  0.00    +0.000 C 
ATOM     10  C   UNL     1      56.883  41.228  70.650  0.00  0.00    +0.000 C 
ATOM     11  C   UNL     1      56.326  42.258  69.835  0.00  0.00    +0.000 C 
ATOM     12  C   UNL     1      55.734  42.578  72.139  0.00  0.00    +0.000 C 
ATOM     13  C   UNL     1      55.466  43.466  70.032  0.00  0.00    +0.000 C 
ATOM     14  C   UNL     1      54.183  43.376  69.192  0.00  0.00    +0.000 C 
ATOM     15  C   UNL     1      53.784  42.148  68.585  0.00  0.00    +0.000 C 
ATOM     16  C   UNL     1      53.272  44.540  68.814  0.00  0.00    +0.000 C 
ATOM     17  C   UNL     1      56.532  37.193  70.140  0.00  0.00    +0.000 C 
ATOM     18  C   UNL     1      53.499  41.005  68.041  0.00  0.00    +0.000 C 
ATOM     19  C   UNL     1      57.119  36.403  69.032  0.00  0.00    +0.000 C 
ATOM     20  C   UNL     1      53.882  40.695  66.683  0.00  0.00    +0.000 C 
ATOM     21  C   UNL     1      56.791  36.685  67.649  0.00  0.00    +0.000 C 
ATOM     22  C   UNL     1      54.506  39.457  66.221  0.00  0.00    +0.000 C 
ATOM     23  C   UNL     1      55.590  37.341  67.153  0.00  0.00    +0.000 C 
ATOM     24  C   UNL     1      55.571  38.836  67.076  0.00  0.00    +0.000 C 
ATOM     25  C   UNL     1      52.932  39.952  68.949  0.00  0.00    +0.000 C 
ATOM     26  C   UNL     1      54.450  39.091  64.739  0.00  0.00    +0.000 C 
ATOM     27  C   UNL     1      54.325  36.509  66.972  0.00  0.00    +0.000 C 
ENDROOT
BRANCH   7  28
ATOM     28  O   UNL     1      57.828  41.702  72.810  0.00  0.00    +0.000 OA
ATOM     29  H   UNL     1      58.451  41.969  72.109  0.00  0.00    +0.000 HD
ENDBRANCH   7  28
BRANCH  10  30
ATOM     30  O   UNL     1      57.617  40.199  70.119  0.00  0.00    +0.000 OA
ATOM     31  H   UNL     1      57.494  39.373  70.633  0.00  0.00    +0.000 HD
ENDBRANCH  10  30
BRANCH  13  32
ATOM     32  O   UNL     1      56.234  44.611  69.675  0.00  0.00    +0.000 OA
ATOM     33  H   UNL     1      56.023  45.287  70.340  0.00  0.00    +0.000 HD
ENDBRANCH  13  32
BRANCH  19  34
ATOM     34  O   UNL     1      58.110  35.464  69.247  0.00  0.00    +0.000 OA
ATOM     35  H   UNL     1      57.880  34.813  69.943  0.00  0.00    +0.000 HD
ENDBRANCH  19  34
BRANCH  21  36
ATOM     36  O   UNL     1      57.509  35.948  66.722  0.00  0.00    +0.000 OA
ATOM     37  C   UNL     1      58.394  36.771  66.003  0.00  0.00    +0.000 C 
ENDBRANCH  21  36
BRANCH  20  38
ATOM     38  O   UNL     1      53.340  41.559  65.701  0.00  0.00    +0.000 OA
BRANCH  38  40
ATOM     39  O   UNL     1      55.420  42.571  65.422  0.00  0.00    +0.000 OA
ATOM     40  C   UNL     1      54.203  42.569  65.418  0.00  0.00    +0.000 C 
ATOM     41  C   UNL     1      53.567  43.877  65.128  0.00  0.00    +0.000 C 
ENDBRANCH  38  40
ENDBRANCH  20  38
BRANCH   6  42
ATOM     42  C   UNL     1      57.019  38.866  74.566  0.00  0.00    +0.000 C 
BRANCH  42  44
ATOM     43  O   UNL     1      55.263  37.108  75.033  0.00  0.00    +0.000 OA
ATOM     44  C   UNL     1      56.097  38.189  75.516  0.00  0.00    +0.000 C 
ATOM     45  C   UNL     1      56.409  36.776  75.702  0.00  0.00    +0.000 C 
ATOM     46  C   UNL     1      55.266  39.065  76.512  0.00  0.00    +0.000 C 
BRANCH  45  47
ATOM     47  C   UNL     1      56.263  36.069  76.939  0.00  0.00    +0.000 C 
ATOM     48  C   UNL     1      55.281  34.931  77.051  0.00  0.00    +0.000 C 
BRANCH  47  49
ATOM     49  C   UNL     1      57.299  36.098  77.906  0.00  0.00    +0.000 C 
ATOM     50  C   UNL     1      58.218  36.141  78.674  0.00  0.00    +0.000 C 
ATOM     51  C   UNL     1      59.467  36.208  79.558  0.00  0.00    +0.000 C 
ENDBRANCH  47  49
ENDBRANCH  45  47
ENDBRANCH  42  44
BRANCH  42  52
ATOM     52  O   UNL     1      58.239  39.399  74.961  0.00  0.00    +0.000 OA
ATOM     53  H   UNL     1      58.609  40.009  74.290  0.00  0.00    +0.000 HD
ENDBRANCH  42  52
ENDBRANCH   6  42
TORSDOF 12
ENDMDL
MODEL 6
REMARK VINA RESULT:      -6.3      5.779      9.746
REMARK  Name = 101808842_CandidaspongiolideB.pdbqt.pdb
REMARK  12 active torsions:
REMARK  status: ('A' for Active; 'I' for Inactive)
REMARK    1  A    between atoms: C_6  and  C_42
REMARK    2  A    between atoms: C_7  and  O_28
REMARK    3  A    between atoms: C_10  and  O_30
REMARK    4  A    between atoms: C_13  and  O_32
REMARK    5  A    between atoms: C_19  and  O_34
REMARK    6  A    between atoms: C_20  and  O_38
REMARK    7  A    between atoms: C_21  and  O_36
REMARK    8  A    between atoms: O_38  and  C_40
REMARK    9  A    between atoms: C_42  and  C_44
REMARK   10  A    between atoms: C_42  and  O_52
REMARK   11  A    between atoms: C_45  and  C_47
REMARK   12  A    between atoms: C_47  and  C_49
REMARK                            x       y       z     vdW  Elec       q    Type
REMARK                         _______ _______ _______ _____ _____    ______ ____
ROOT
ATOM      1  O   UNL     1      64.291  35.863  76.970  0.00  0.00    +0.000 OA
ATOM      2  O   UNL     1      58.485  35.401  73.325  0.00  0.00    +0.000 OA
ATOM      3  O   UNL     1      61.491  37.740  75.197  0.00  0.00    +0.000 OA
ATOM      4  O   UNL     1      60.603  35.591  72.431  0.00  0.00    +0.000 OA
ATOM      5  O   UNL     1      62.222  33.112  72.445  0.00  0.00    +0.000 OA
ATOM      6  C   UNL     1      59.418  36.715  75.560  0.00  0.00    +0.000 C 
ATOM      7  C   UNL     1      61.578  35.668  76.524  0.00  0.00    +0.000 C 
ATOM      8  C   UNL     1      60.898  36.791  75.712  0.00  0.00    +0.000 C 
ATOM      9  C   UNL     1      58.891  36.070  74.406  0.00  0.00    +0.000 C 
ATOM     10  C   UNL     1      61.936  34.478  75.612  0.00  0.00    +0.000 C 
ATOM     11  C   UNL     1      63.319  34.128  75.582  0.00  0.00    +0.000 C 
ATOM     12  C   UNL     1      62.955  36.054  76.968  0.00  0.00    +0.000 C 
ATOM     13  C   UNL     1      64.593  34.649  76.169  0.00  0.00    +0.000 C 
ATOM     14  C   UNL     1      65.605  35.005  75.069  0.00  0.00    +0.000 C 
ATOM     15  C   UNL     1      65.204  35.105  73.703  0.00  0.00    +0.000 C 
ATOM     16  C   UNL     1      67.109  35.179  75.253  0.00  0.00    +0.000 C 
ATOM     17  C   UNL     1      59.470  35.131  72.425  0.00  0.00    +0.000 C 
ATOM     18  C   UNL     1      64.774  35.150  72.481  0.00  0.00    +0.000 C 
ATOM     19  C   UNL     1      59.019  34.109  71.453  0.00  0.00    +0.000 C 
ATOM     20  C   UNL     1      64.883  34.013  71.596  0.00  0.00    +0.000 C 
ATOM     21  C   UNL     1      59.968  33.350  70.662  0.00  0.00    +0.000 C 
ATOM     22  C   UNL     1      63.830  33.486  70.730  0.00  0.00    +0.000 C 
ATOM     23  C   UNL     1      61.324  33.743  70.311  0.00  0.00    +0.000 C 
ATOM     24  C   UNL     1      62.431  33.427  71.269  0.00  0.00    +0.000 C 
ATOM     25  C   UNL     1      63.982  36.365  72.092  0.00  0.00    +0.000 C 
ATOM     26  C   UNL     1      64.201  32.587  69.552  0.00  0.00    +0.000 C 
ATOM     27  C   UNL     1      61.530  34.673  69.120  0.00  0.00    +0.000 C 
ENDROOT
BRANCH   7  28
ATOM     28  O   UNL     1      60.859  35.187  77.641  0.00  0.00    +0.000 OA
ATOM     29  H   UNL     1      60.176  35.854  77.837  0.00  0.00    +0.000 HD
ENDBRANCH   7  28
BRANCH  10  30
ATOM     30  O   UNL     1      60.997  33.788  74.890  0.00  0.00    +0.000 OA
ATOM     31  H   UNL     1      60.927  32.859  75.196  0.00  0.00    +0.000 HD
ENDBRANCH  10  30
BRANCH  13  32
ATOM     32  O   UNL     1      65.113  33.648  77.040  0.00  0.00    +0.000 OA
ATOM     33  H   UNL     1      64.476  33.577  77.769  0.00  0.00    +0.000 HD
ENDBRANCH  13  32
BRANCH  19  34
ATOM     34  O   UNL     1      57.694  33.726  71.353  0.00  0.00    +0.000 OA
ATOM     35  H   UNL     1      57.169  34.304  70.762  0.00  0.00    +0.000 HD
ENDBRANCH  19  34
BRANCH  21  36
ATOM     36  O   UNL     1      59.406  32.347  69.889  0.00  0.00    +0.000 OA
ATOM     37  C   UNL     1      59.827  31.079  70.328  0.00  0.00    +0.000 C 
ENDBRANCH  21  36
BRANCH  20  38
ATOM     38  O   UNL     1      66.206  33.570  71.357  0.00  0.00    +0.000 OA
BRANCH  38  40
ATOM     39  O   UNL     1      65.826  31.629  72.590  0.00  0.00    +0.000 OA
ATOM     40  C   UNL     1      66.525  32.538  72.181  0.00  0.00    +0.000 C 
ATOM     41  C   UNL     1      67.909  32.562  72.713  0.00  0.00    +0.000 C 
ENDBRANCH  38  40
ENDBRANCH  20  38
BRANCH   6  42
ATOM     42  C   UNL     1      58.592  37.481  76.467  0.00  0.00    +0.000 C 
BRANCH  42  44
ATOM     43  O   UNL     1      56.875  35.634  76.638  0.00  0.00    +0.000 OA
ATOM     44  C   UNL     1      57.255  37.004  76.910  0.00  0.00    +0.000 C 
ATOM     45  C   UNL     1      57.333  35.929  77.893  0.00  0.00    +0.000 C 
ATOM     46  C   UNL     1      56.013  37.929  76.686  0.00  0.00    +0.000 C 
BRANCH  45  47
ATOM     47  C   UNL     1      56.418  35.757  78.981  0.00  0.00    +0.000 C 
ATOM     48  C   UNL     1      55.206  34.875  78.820  0.00  0.00    +0.000 C 
BRANCH  47  49
ATOM     49  C   UNL     1      56.832  36.013  80.312  0.00  0.00    +0.000 C 
ATOM     50  C   UNL     1      57.171  36.164  81.452  0.00  0.00    +0.000 C 
ATOM     51  C   UNL     1      57.560  36.244  82.931  0.00  0.00    +0.000 C 
ENDBRANCH  47  49
ENDBRANCH  45  47
ENDBRANCH  42  44
BRANCH  42  52
ATOM     52  O   UNL     1      59.147  38.673  76.915  0.00  0.00    +0.000 OA
ATOM     53  H   UNL     1      58.769  38.956  77.772  0.00  0.00    +0.000 HD
ENDBRANCH  42  52
ENDBRANCH   6  42
TORSDOF 12
ENDMDL
MODEL 7
REMARK VINA RESULT:      -6.0     20.702     24.336
REMARK  Name = 101808842_CandidaspongiolideB.pdbqt.pdb
REMARK  12 active torsions:
REMARK  status: ('A' for Active; 'I' for Inactive)
REMARK    1  A    between atoms: C_6  and  C_42
REMARK    2  A    between atoms: C_7  and  O_28
REMARK    3  A    between atoms: C_10  and  O_30
REMARK    4  A    between atoms: C_13  and  O_32
REMARK    5  A    between atoms: C_19  and  O_34
REMARK    6  A    between atoms: C_20  and  O_38
REMARK    7  A    between atoms: C_21  and  O_36
REMARK    8  A    between atoms: O_38  and  C_40
REMARK    9  A    between atoms: C_42  and  C_44
REMARK   10  A    between atoms: C_42  and  O_52
REMARK   11  A    between atoms: C_45  and  C_47
REMARK   12  A    between atoms: C_47  and  C_49
REMARK                            x       y       z     vdW  Elec       q    Type
REMARK                         _______ _______ _______ _____ _____    ______ ____
ROOT
ATOM      1  O   UNL     1      48.032  24.217  85.221  0.00  0.00    +0.000 OA
ATOM      2  O   UNL     1      42.428  27.769  87.008  0.00  0.00    +0.000 OA
ATOM      3  O   UNL     1      44.357  24.073  86.209  0.00  0.00    +0.000 OA
ATOM      4  O   UNL     1      43.946  26.851  88.483  0.00  0.00    +0.000 OA
ATOM      5  O   UNL     1      46.480  28.349  88.804  0.00  0.00    +0.000 OA
ATOM      6  C   UNL     1      43.140  25.805  85.209  0.00  0.00    +0.000 C 
ATOM      7  C   UNL     1      45.696  25.634  84.855  0.00  0.00    +0.000 C 
ATOM      8  C   UNL     1      44.407  25.076  85.495  0.00  0.00    +0.000 C 
ATOM      9  C   UNL     1      42.718  26.809  86.127  0.00  0.00    +0.000 C 
ATOM     10  C   UNL     1      46.340  26.697  85.767  0.00  0.00    +0.000 C 
ATOM     11  C   UNL     1      47.679  26.418  86.176  0.00  0.00    +0.000 C 
ATOM     12  C   UNL     1      46.800  24.622  84.848  0.00  0.00    +0.000 C 
ATOM     13  C   UNL     1      48.665  25.306  86.010  0.00  0.00    +0.000 C 
ATOM     14  C   UNL     1      49.111  24.753  87.371  0.00  0.00    +0.000 C 
ATOM     15  C   UNL     1      48.405  25.080  88.567  0.00  0.00    +0.000 C 
ATOM     16  C   UNL     1      50.362  23.921  87.638  0.00  0.00    +0.000 C 
ATOM     17  C   UNL     1      43.187  27.745  88.137  0.00  0.00    +0.000 C 
ATOM     18  C   UNL     1      47.732  25.443  89.614  0.00  0.00    +0.000 C 
ATOM     19  C   UNL     1      43.047  29.018  88.883  0.00  0.00    +0.000 C 
ATOM     20  C   UNL     1      48.144  26.561  90.432  0.00  0.00    +0.000 C 
ATOM     21  C   UNL     1      44.026  29.424  89.872  0.00  0.00    +0.000 C 
ATOM     22  C   UNL     1      47.285  27.634  90.928  0.00  0.00    +0.000 C 
ATOM     23  C   UNL     1      44.924  28.556  90.619  0.00  0.00    +0.000 C 
ATOM     24  C   UNL     1      46.240  28.191  90.006  0.00  0.00    +0.000 C 
ATOM     25  C   UNL     1      46.402  24.777  89.822  0.00  0.00    +0.000 C 
ATOM     26  C   UNL     1      47.743  28.481  92.113  0.00  0.00    +0.000 C 
ATOM     27  C   UNL     1      44.394  27.857  91.867  0.00  0.00    +0.000 C 
ENDROOT
BRANCH   7  28
ATOM     28  O   UNL     1      45.563  26.169  83.553  0.00  0.00    +0.000 OA
ATOM     29  H   UNL     1      46.147  25.643  82.978  0.00  0.00    +0.000 HD
ENDBRANCH   7  28
BRANCH  10  30
ATOM     30  O   UNL     1      45.687  27.840  86.149  0.00  0.00    +0.000 OA
ATOM     31  H   UNL     1      45.316  28.312  85.375  0.00  0.00    +0.000 HD
ENDBRANCH  10  30
BRANCH  13  32
ATOM     32  O   UNL     1      49.775  25.813  85.274  0.00  0.00    +0.000 OA
ATOM     33  H   UNL     1      50.333  26.273  85.922  0.00  0.00    +0.000 HD
ENDBRANCH  13  32
BRANCH  19  34
ATOM     34  O   UNL     1      42.066  29.943  88.576  0.00  0.00    +0.000 OA
ATOM     35  H   UNL     1      42.258  30.452  87.761  0.00  0.00    +0.000 HD
ENDBRANCH  19  34
BRANCH  21  36
ATOM     36  O   UNL     1      43.828  30.691  90.396  0.00  0.00    +0.000 OA
ATOM     37  C   UNL     1      45.049  31.373  90.537  0.00  0.00    +0.000 C 
ENDBRANCH  21  36
BRANCH  20  38
ATOM     38  O   UNL     1      49.426  26.428  91.017  0.00  0.00    +0.000 OA
BRANCH  38  40
ATOM     39  O   UNL     1      50.401  27.666  89.300  0.00  0.00    +0.000 OA
ATOM     40  C   UNL     1      50.305  27.299  90.457  0.00  0.00    +0.000 C 
ATOM     41  C   UNL     1      51.342  27.826  91.377  0.00  0.00    +0.000 C 
ENDBRANCH  38  40
ENDBRANCH  20  38
BRANCH   6  42
ATOM     42  C   UNL     1      42.289  25.320  84.145  0.00  0.00    +0.000 C 
BRANCH  42  44
ATOM     43  O   UNL     1      39.997  24.880  85.116  0.00  0.00    +0.000 OA
ATOM     44  C   UNL     1      41.158  24.391  84.401  0.00  0.00    +0.000 C 
ATOM     45  C   UNL     1      39.920  24.810  83.752  0.00  0.00    +0.000 C 
ATOM     46  C   UNL     1      41.473  22.935  84.882  0.00  0.00    +0.000 C 
BRANCH  45  47
ATOM     47  C   UNL     1      38.952  23.913  83.197  0.00  0.00    +0.000 C 
ATOM     48  C   UNL     1      39.318  23.024  82.035  0.00  0.00    +0.000 C 
BRANCH  47  49
ATOM     49  C   UNL     1      37.829  23.508  83.963  0.00  0.00    +0.000 C 
ATOM     50  C   UNL     1      36.907  23.103  84.613  0.00  0.00    +0.000 C 
ATOM     51  C   UNL     1      35.773  22.472  85.425  0.00  0.00    +0.000 C 
ENDBRANCH  47  49
ENDBRANCH  45  47
ENDBRANCH  42  44
BRANCH  42  52
ATOM     52  O   UNL     1      42.585  25.807  82.878  0.00  0.00    +0.000 OA
ATOM     53  H   UNL     1      42.046  26.592  82.651  0.00  0.00    +0.000 HD
ENDBRANCH  42  52
ENDBRANCH   6  42
TORSDOF 12
ENDMDL
MODEL 8
REMARK VINA RESULT:      -6.0      5.948     10.667
REMARK  Name = 101808842_CandidaspongiolideB.pdbqt.pdb
REMARK  12 active torsions:
REMARK  status: ('A' for Active; 'I' for Inactive)
REMARK    1  A    between atoms: C_6  and  C_42
REMARK    2  A    between atoms: C_7  and  O_28
REMARK    3  A    between atoms: C_10  and  O_30
REMARK    4  A    between atoms: C_13  and  O_32
REMARK    5  A    between atoms: C_19  and  O_34
REMARK    6  A    between atoms: C_20  and  O_38
REMARK    7  A    between atoms: C_21  and  O_36
REMARK    8  A    between atoms: O_38  and  C_40
REMARK    9  A    between atoms: C_42  and  C_44
REMARK   10  A    between atoms: C_42  and  O_52
REMARK   11  A    between atoms: C_45  and  C_47
REMARK   12  A    between atoms: C_47  and  C_49
REMARK                            x       y       z     vdW  Elec       q    Type
REMARK                         _______ _______ _______ _____ _____    ______ ____
ROOT
ATOM      1  O   UNL     1      63.507  35.624  76.977  0.00  0.00    +0.000 OA
ATOM      2  O   UNL     1      59.582  33.533  71.738  0.00  0.00    +0.000 OA
ATOM      3  O   UNL     1      61.474  36.644  73.922  0.00  0.00    +0.000 OA
ATOM      4  O   UNL     1      61.863  33.870  71.638  0.00  0.00    +0.000 OA
ATOM      5  O   UNL     1      63.523  31.730  72.834  0.00  0.00    +0.000 OA
ATOM      6  C   UNL     1      59.496  35.400  73.765  0.00  0.00    +0.000 C 
ATOM      7  C   UNL     1      61.191  34.920  75.658  0.00  0.00    +0.000 C 
ATOM      8  C   UNL     1      60.797  35.737  74.408  0.00  0.00    +0.000 C 
ATOM      9  C   UNL     1      59.497  34.462  72.694  0.00  0.00    +0.000 C 
ATOM     10  C   UNL     1      61.954  33.642  75.254  0.00  0.00    +0.000 C 
ATOM     11  C   UNL     1      63.264  33.515  75.805  0.00  0.00    +0.000 C 
ATOM     12  C   UNL     1      62.264  35.599  76.453  0.00  0.00    +0.000 C 
ATOM     13  C   UNL     1      64.177  34.337  76.659  0.00  0.00    +0.000 C 
ATOM     14  C   UNL     1      65.504  34.619  75.940  0.00  0.00    +0.000 C 
ATOM     15  C   UNL     1      65.650  34.377  74.541  0.00  0.00    +0.000 C 
ATOM     16  C   UNL     1      66.808  35.059  76.598  0.00  0.00    +0.000 C 
ATOM     17  C   UNL     1      60.853  33.247  71.344  0.00  0.00    +0.000 C 
ATOM     18  C   UNL     1      65.718  34.108  73.274  0.00  0.00    +0.000 C 
ATOM     19  C   UNL     1      60.880  31.992  70.557  0.00  0.00    +0.000 C 
ATOM     20  C   UNL     1      66.236  32.848  72.793  0.00  0.00    +0.000 C 
ATOM     21  C   UNL     1      62.110  31.248  70.367  0.00  0.00    +0.000 C 
ATOM     22  C   UNL     1      65.634  31.999  71.767  0.00  0.00    +0.000 C 
ATOM     23  C   UNL     1      63.467  31.771  70.436  0.00  0.00    +0.000 C 
ATOM     24  C   UNL     1      64.143  31.830  71.770  0.00  0.00    +0.000 C 
ATOM     25  C   UNL     1      65.051  35.081  72.344  0.00  0.00    +0.000 C 
ATOM     26  C   UNL     1      66.488  30.952  71.057  0.00  0.00    +0.000 C 
ATOM     27  C   UNL     1      64.046  32.462  69.207  0.00  0.00    +0.000 C 
ENDROOT
BRANCH   7  28
ATOM     28  O   UNL     1      60.135  34.567  76.528  0.00  0.00    +0.000 OA
ATOM     29  H   UNL     1      59.993  35.333  77.113  0.00  0.00    +0.000 HD
ENDBRANCH   7  28
BRANCH  10  30
ATOM     30  O   UNL     1      61.412  32.683  74.439  0.00  0.00    +0.000 OA
ATOM     31  H   UNL     1      61.920  31.846  74.490  0.00  0.00    +0.000 HD
ENDBRANCH  10  30
BRANCH  13  32
ATOM     32  O   UNL     1      64.393  33.626  77.875  0.00  0.00    +0.000 OA
ATOM     33  H   UNL     1      65.089  34.113  78.345  0.00  0.00    +0.000 HD
ENDBRANCH  13  32
BRANCH  19  34
ATOM     34  O   UNL     1      59.725  31.394  70.090  0.00  0.00    +0.000 OA
ATOM     35  H   UNL     1      59.018  31.342  70.766  0.00  0.00    +0.000 HD
ENDBRANCH  19  34
BRANCH  21  36
ATOM     36  O   UNL     1      61.958  30.034  69.716  0.00  0.00    +0.000 OA
ATOM     37  C   UNL     1      62.869  29.083  70.207  0.00  0.00    +0.000 C 
ENDBRANCH  21  36
BRANCH  20  38
ATOM     38  O   UNL     1      67.578  32.579  73.157  0.00  0.00    +0.000 OA
BRANCH  38  40
ATOM     39  O   UNL     1      68.591  33.798  71.449  0.00  0.00    +0.000 OA
ATOM     40  C   UNL     1      68.418  33.499  72.616  0.00  0.00    +0.000 C 
ATOM     41  C   UNL     1      69.301  34.192  73.586  0.00  0.00    +0.000 C 
ENDBRANCH  38  40
ENDBRANCH  20  38
BRANCH   6  42
ATOM     42  C   UNL     1      58.334  36.193  74.100  0.00  0.00    +0.000 C 
BRANCH  42  44
ATOM     43  O   UNL     1      56.977  37.486  75.797  0.00  0.00    +0.000 OA
ATOM     44  C   UNL     1      58.266  37.006  75.343  0.00  0.00    +0.000 C 
ATOM     45  C   UNL     1      57.486  36.367  76.398  0.00  0.00    +0.000 C 
ATOM     46  C   UNL     1      59.333  38.128  75.569  0.00  0.00    +0.000 C 
BRANCH  45  47
ATOM     47  C   UNL     1      57.786  36.455  77.795  0.00  0.00    +0.000 C 
ATOM     48  C   UNL     1      57.686  37.778  78.511  0.00  0.00    +0.000 C 
BRANCH  47  49
ATOM     49  C   UNL     1      57.736  35.297  78.612  0.00  0.00    +0.000 C 
ATOM     50  C   UNL     1      57.637  34.342  79.329  0.00  0.00    +0.000 C 
ATOM     51  C   UNL     1      57.419  33.182  80.305  0.00  0.00    +0.000 C 
ENDBRANCH  47  49
ENDBRANCH  45  47
ENDBRANCH  42  44
BRANCH  42  52
ATOM     52  O   UNL     1      57.306  36.166  73.167  0.00  0.00    +0.000 OA
ATOM     53  H   UNL     1      57.355  36.918  72.543  0.00  0.00    +0.000 HD
ENDBRANCH  42  52
ENDBRANCH   6  42
TORSDOF 12
ENDMDL
MODEL 9
REMARK VINA RESULT:      -6.0     12.393     16.601
REMARK  Name = 101808842_CandidaspongiolideB.pdbqt.pdb
REMARK  12 active torsions:
REMARK  status: ('A' for Active; 'I' for Inactive)
REMARK    1  A    between atoms: C_6  and  C_42
REMARK    2  A    between atoms: C_7  and  O_28
REMARK    3  A    between atoms: C_10  and  O_30
REMARK    4  A    between atoms: C_13  and  O_32
REMARK    5  A    between atoms: C_19  and  O_34
REMARK    6  A    between atoms: C_20  and  O_38
REMARK    7  A    between atoms: C_21  and  O_36
REMARK    8  A    between atoms: O_38  and  C_40
REMARK    9  A    between atoms: C_42  and  C_44
REMARK   10  A    between atoms: C_42  and  O_52
REMARK   11  A    between atoms: C_45  and  C_47
REMARK   12  A    between atoms: C_47  and  C_49
REMARK                            x       y       z     vdW  Elec       q    Type
REMARK                         _______ _______ _______ _____ _____    ______ ____
ROOT
ATOM      1  O   UNL     1      44.294  35.859  85.119  0.00  0.00    +0.000 OA
ATOM      2  O   UNL     1      45.780  39.192  79.297  0.00  0.00    +0.000 OA
ATOM      3  O   UNL     1      43.023  38.144  82.351  0.00  0.00    +0.000 OA
ATOM      4  O   UNL     1      45.920  40.093  81.417  0.00  0.00    +0.000 OA
ATOM      5  O   UNL     1      48.296  39.290  82.991  0.00  0.00    +0.000 OA
ATOM      6  C   UNL     1      43.843  37.483  80.260  0.00  0.00    +0.000 C 
ATOM      7  C   UNL     1      44.571  36.230  82.402  0.00  0.00    +0.000 C 
ATOM      8  C   UNL     1      43.750  37.358  81.741  0.00  0.00    +0.000 C 
ATOM      9  C   UNL     1      44.810  38.377  79.719  0.00  0.00    +0.000 C 
ATOM     10  C   UNL     1      45.995  36.718  82.737  0.00  0.00    +0.000 C 
ATOM     11  C   UNL     1      46.361  36.631  84.113  0.00  0.00    +0.000 C 
ATOM     12  C   UNL     1      44.089  35.926  83.787  0.00  0.00    +0.000 C 
ATOM     13  C   UNL     1      45.704  36.234  85.398  0.00  0.00    +0.000 C 
ATOM     14  C   UNL     1      45.732  37.386  86.413  0.00  0.00    +0.000 C 
ATOM     15  C   UNL     1      46.062  38.714  86.011  0.00  0.00    +0.000 C 
ATOM     16  C   UNL     1      45.536  37.260  87.921  0.00  0.00    +0.000 C 
ATOM     17  C   UNL     1      46.337  39.957  80.276  0.00  0.00    +0.000 C 
ATOM     18  C   UNL     1      46.398  39.890  85.580  0.00  0.00    +0.000 C 
ATOM     19  C   UNL     1      47.606  40.558  79.804  0.00  0.00    +0.000 C 
ATOM     20  C   UNL     1      47.758  40.371  85.666  0.00  0.00    +0.000 C 
ATOM     21  C   UNL     1      48.593  41.065  80.737  0.00  0.00    +0.000 C 
ATOM     22  C   UNL     1      48.512  41.030  84.601  0.00  0.00    +0.000 C 
ATOM     23  C   UNL     1      48.355  41.517  82.100  0.00  0.00    +0.000 C 
ATOM     24  C   UNL     1      48.373  40.505  83.203  0.00  0.00    +0.000 C 
ATOM     25  C   UNL     1      45.353  40.646  84.809  0.00  0.00    +0.000 C 
ATOM     26  C   UNL     1      49.743  41.862  84.953  0.00  0.00    +0.000 C 
ATOM     27  C   UNL     1      47.853  42.940  82.320  0.00  0.00    +0.000 C 
ENDROOT
BRANCH   7  28
ATOM     28  O   UNL     1      44.661  35.020  81.677  0.00  0.00    +0.000 OA
ATOM     29  H   UNL     1      44.166  34.355  82.189  0.00  0.00    +0.000 HD
ENDBRANCH   7  28
BRANCH  10  30
ATOM     30  O   UNL     1      46.860  37.188  81.783  0.00  0.00    +0.000 OA
ATOM     31  H   UNL     1      47.141  38.106  81.980  0.00  0.00    +0.000 HD
ENDBRANCH  10  30
BRANCH  13  32
ATOM     32  O   UNL     1      46.388  35.089  85.901  0.00  0.00    +0.000 OA
ATOM     33  H   UNL     1      46.327  35.151  86.868  0.00  0.00    +0.000 HD
ENDBRANCH  13  32
BRANCH  19  34
ATOM     34  O   UNL     1      47.977  40.537  78.472  0.00  0.00    +0.000 OA
ATOM     35  H   UNL     1      47.501  39.858  77.951  0.00  0.00    +0.000 HD
ENDBRANCH  19  34
BRANCH  21  36
ATOM     36  O   UNL     1      49.779  41.484  80.155  0.00  0.00    +0.000 OA
ATOM     37  C   UNL     1      50.871  40.759  80.664  0.00  0.00    +0.000 C 
ENDBRANCH  21  36
BRANCH  20  38
ATOM     38  O   UNL     1      48.277  40.452  86.980  0.00  0.00    +0.000 OA
BRANCH  38  40
ATOM     39  O   UNL     1      49.295  38.369  86.746  0.00  0.00    +0.000 OA
ATOM     40  C   UNL     1      49.228  39.503  87.182  0.00  0.00    +0.000 C 
ATOM     41  C   UNL     1      50.306  39.884  88.128  0.00  0.00    +0.000 C 
ENDBRANCH  38  40
ENDBRANCH  20  38
BRANCH   6  42
ATOM     42  C   UNL     1      42.815  36.868  79.449  0.00  0.00    +0.000 C 
BRANCH  42  44
ATOM     43  O   UNL     1      43.829  37.589  77.248  0.00  0.00    +0.000 OA
ATOM     44  C   UNL     1      42.665  37.173  78.002  0.00  0.00    +0.000 C 
ATOM     45  C   UNL     1      43.443  36.280  77.149  0.00  0.00    +0.000 C 
ATOM     46  C   UNL     1      41.431  38.013  77.534  0.00  0.00    +0.000 C 
BRANCH  45  47
ATOM     47  C   UNL     1      43.021  35.818  75.861  0.00  0.00    +0.000 C 
ATOM     48  C   UNL     1      43.105  36.730  74.663  0.00  0.00    +0.000 C 
BRANCH  47  49
ATOM     49  C   UNL     1      42.955  34.429  75.586  0.00  0.00    +0.000 C 
ATOM     50  C   UNL     1      42.960  33.259  75.325  0.00  0.00    +0.000 C 
ATOM     51  C   UNL     1      43.070  31.785  74.924  0.00  0.00    +0.000 C 
ENDBRANCH  47  49
ENDBRANCH  45  47
ENDBRANCH  42  44
BRANCH  42  52
ATOM     52  O   UNL     1      42.004  35.955  80.110  0.00  0.00    +0.000 OA
ATOM     53  H   UNL     1      41.308  36.395  80.639  0.00  0.00    +0.000 HD
ENDBRANCH  42  52
ENDBRANCH   6  42
TORSDOF 12
ENDMDL
