MODEL 1
REMARK VINA RESULT:      -6.6      0.000      0.000
REMARK  Name = 101808841_CandidaspongiolideA.pdbqt.pdb
REMARK  13 active torsions:
REMARK  status: ('A' for Active; 'I' for Inactive)
REMARK    1  A    between atoms: C_6  and  C_39
REMARK    2  A    between atoms: C_9  and  O_27
REMARK    3  A    between atoms: C_9  and  C_51
REMARK    4  A    between atoms: C_10  and  O_29
REMARK    5  A    between atoms: C_14  and  O_31
REMARK    6  A    between atoms: C_15  and  O_33
REMARK    7  A    between atoms: C_20  and  O_35
REMARK    8  A    between atoms: O_35  and  C_37
REMARK    9  A    between atoms: C_39  and  C_41
REMARK   10  A    between atoms: C_39  and  O_49
REMARK   11  A    between atoms: C_42  and  C_44
REMARK   12  A    between atoms: C_44  and  C_46
REMARK   13  A    between atoms: C_51  and  O_52
REMARK                            x       y       z     vdW  Elec       q    Type
REMARK                         _______ _______ _______ _____ _____    ______ ____
ROOT
ATOM      1  O   UNL     1      57.527  36.868  70.461  0.00  0.00    +0.000 OA
ATOM      2  O   UNL     1      60.284  37.444  73.519  0.00  0.00    +0.000 OA
ATOM      3  O   UNL     1      56.251  38.695  71.055  0.00  0.00    +0.000 OA
ATOM      4  O   UNL     1      60.764  30.996  72.218  0.00  0.00    +0.000 OA
ATOM      5  O   UNL     1      58.869  35.088  68.693  0.00  0.00    +0.000 OA
ATOM      6  C   UNL     1      58.250  36.347  73.064  0.00  0.00    +0.000 C 
ATOM      7  C   UNL     1      59.721  36.362  73.342  0.00  0.00    +0.000 C 
ATOM      8  C   UNL     1      57.833  36.616  71.731  0.00  0.00    +0.000 C 
ATOM      9  C   UNL     1      60.442  34.988  73.288  0.00  0.00    +0.000 C 
ATOM     10  C   UNL     1      60.609  34.529  71.849  0.00  0.00    +0.000 C 
ATOM     11  C   UNL     1      60.619  33.154  71.474  0.00  0.00    +0.000 C 
ATOM     12  C   UNL     1      56.810  37.992  70.225  0.00  0.00    +0.000 C 
ATOM     13  C   UNL     1      60.613  31.719  71.239  0.00  0.00    +0.000 C 
ATOM     14  C   UNL     1      56.811  38.335  68.784  0.00  0.00    +0.000 C 
ATOM     15  C   UNL     1      57.366  37.502  67.737  0.00  0.00    +0.000 C 
ATOM     16  C   UNL     1      60.431  31.185  69.850  0.00  0.00    +0.000 C 
ATOM     17  C   UNL     1      57.072  36.093  67.502  0.00  0.00    +0.000 C 
ATOM     18  C   UNL     1      58.365  34.099  66.571  0.00  0.00    +0.000 C 
ATOM     19  C   UNL     1      58.183  35.105  67.670  0.00  0.00    +0.000 C 
ATOM     20  C   UNL     1      59.173  32.905  66.828  0.00  0.00    +0.000 C 
ATOM     21  C   UNL     1      60.366  32.035  68.718  0.00  0.00    +0.000 C 
ATOM     22  C   UNL     1      60.325  32.831  67.697  0.00  0.00    +0.000 C 
ATOM     23  C   UNL     1      60.315  29.707  69.541  0.00  0.00    +0.000 C 
ATOM     24  C   UNL     1      55.654  35.585  67.767  0.00  0.00    +0.000 C 
ATOM     25  C   UNL     1      57.809  34.358  65.176  0.00  0.00    +0.000 C 
ATOM     26  C   UNL     1      61.477  33.796  67.574  0.00  0.00    +0.000 C 
ENDROOT
BRANCH   9  27
ATOM     27  O   UNL     1      59.654  34.019  73.980  0.00  0.00    +0.000 OA
ATOM     28  H   UNL     1      59.228  34.477  74.727  0.00  0.00    +0.000 HD
ENDBRANCH   9  27
BRANCH  10  29
ATOM     29  O   UNL     1      60.788  35.490  70.874  0.00  0.00    +0.000 OA
ATOM     30  H   UNL     1      61.651  35.439  70.421  0.00  0.00    +0.000 HD
ENDBRANCH  10  29
BRANCH  14  31
ATOM     31  O   UNL     1      56.295  39.557  68.391  0.00  0.00    +0.000 OA
ATOM     32  H   UNL     1      55.692  39.448  67.625  0.00  0.00    +0.000 HD
ENDBRANCH  14  31
BRANCH  15  33
ATOM     33  O   UNL     1      57.801  38.206  66.627  0.00  0.00    +0.000 OA
ATOM     34  C   UNL     1      56.985  37.925  65.521  0.00  0.00    +0.000 C 
ENDBRANCH  15  33
BRANCH  20  35
ATOM     35  O   UNL     1      59.080  31.811  65.925  0.00  0.00    +0.000 OA
BRANCH  35  37
ATOM     36  O   UNL     1      57.967  30.154  67.133  0.00  0.00    +0.000 OA
ATOM     37  C   UNL     1      58.081  30.937  66.209  0.00  0.00    +0.000 C 
ATOM     38  C   UNL     1      56.989  30.900  65.205  0.00  0.00    +0.000 C 
ENDBRANCH  35  37
ENDBRANCH  20  35
BRANCH   6  39
ATOM     39  C   UNL     1      57.299  36.170  74.143  0.00  0.00    +0.000 C 
BRANCH  39  41
ATOM     40  O   UNL     1      55.208  37.509  74.724  0.00  0.00    +0.000 OA
ATOM     41  C   UNL     1      56.645  37.334  74.805  0.00  0.00    +0.000 C 
ATOM     42  C   UNL     1      55.715  36.975  75.873  0.00  0.00    +0.000 C 
ATOM     43  C   UNL     1      57.324  38.739  74.659  0.00  0.00    +0.000 C 
BRANCH  42  44
ATOM     44  C   UNL     1      55.618  37.730  77.089  0.00  0.00    +0.000 C 
ATOM     45  C   UNL     1      54.731  38.947  77.155  0.00  0.00    +0.000 C 
BRANCH  44  46
ATOM     46  C   UNL     1      55.871  37.074  78.324  0.00  0.00    +0.000 C 
ATOM     47  C   UNL     1      56.106  36.435  79.311  0.00  0.00    +0.000 C 
ATOM     48  C   UNL     1      56.409  35.500  80.491  0.00  0.00    +0.000 C 
ENDBRANCH  44  46
ENDBRANCH  42  44
ENDBRANCH  39  41
BRANCH  39  49
ATOM     49  O   UNL     1      56.794  34.884  74.273  0.00  0.00    +0.000 OA
ATOM     50  H   UNL     1      57.272  34.360  74.944  0.00  0.00    +0.000 HD
ENDBRANCH  39  49
ENDBRANCH   6  39
BRANCH   9  51
ATOM     51  C   UNL     1      61.777  35.069  73.926  0.00  0.00    +0.000 C 
BRANCH  51  52
ATOM     52  O   UNL     1      62.969  35.125  74.520  0.00  0.00    +0.000 OA
ATOM     53  H   UNL     1      63.613  35.594  73.957  0.00  0.00    +0.000 HD
ENDBRANCH  51  52
ENDBRANCH   9  51
TORSDOF 13
ENDMDL
MODEL 2
REMARK VINA RESULT:      -6.2     20.741     25.614
REMARK  Name = 101808841_CandidaspongiolideA.pdbqt.pdb
REMARK  13 active torsions:
REMARK  status: ('A' for Active; 'I' for Inactive)
REMARK    1  A    between atoms: C_6  and  C_39
REMARK    2  A    between atoms: C_9  and  O_27
REMARK    3  A    between atoms: C_9  and  C_51
REMARK    4  A    between atoms: C_10  and  O_29
REMARK    5  A    between atoms: C_14  and  O_31
REMARK    6  A    between atoms: C_15  and  O_33
REMARK    7  A    between atoms: C_20  and  O_35
REMARK    8  A    between atoms: O_35  and  C_37
REMARK    9  A    between atoms: C_39  and  C_41
REMARK   10  A    between atoms: C_39  and  O_49
REMARK   11  A    between atoms: C_42  and  C_44
REMARK   12  A    between atoms: C_44  and  C_46
REMARK   13  A    between atoms: C_51  and  O_52
REMARK                            x       y       z     vdW  Elec       q    Type
REMARK                         _______ _______ _______ _____ _____    ______ ____
ROOT
ATOM      1  O   UNL     1      41.715  20.818  85.317  0.00  0.00    +0.000 OA
ATOM      2  O   UNL     1      39.834  21.710  81.719  0.00  0.00    +0.000 OA
ATOM      3  O   UNL     1      40.227  19.141  85.860  0.00  0.00    +0.000 OA
ATOM      4  O   UNL     1      42.913  27.332  83.272  0.00  0.00    +0.000 OA
ATOM      5  O   UNL     1      44.260  22.062  85.054  0.00  0.00    +0.000 OA
ATOM      6  C   UNL     1      39.797  22.289  84.001  0.00  0.00    +0.000 C 
ATOM      7  C   UNL     1      40.080  22.576  82.560  0.00  0.00    +0.000 C 
ATOM      8  C   UNL     1      40.762  21.527  84.718  0.00  0.00    +0.000 C 
ATOM      9  C   UNL     1      40.762  23.938  82.254  0.00  0.00    +0.000 C 
ATOM     10  C   UNL     1      42.229  23.899  82.645  0.00  0.00    +0.000 C 
ATOM     11  C   UNL     1      42.940  25.052  83.091  0.00  0.00    +0.000 C 
ATOM     12  C   UNL     1      41.360  19.591  85.769  0.00  0.00    +0.000 C 
ATOM     13  C   UNL     1      43.535  26.306  83.524  0.00  0.00    +0.000 C 
ATOM     14  C   UNL     1      42.553  18.783  86.114  0.00  0.00    +0.000 C 
ATOM     15  C   UNL     1      43.913  19.281  86.123  0.00  0.00    +0.000 C 
ATOM     16  C   UNL     1      44.852  26.305  84.241  0.00  0.00    +0.000 C 
ATOM     17  C   UNL     1      44.398  20.469  86.815  0.00  0.00    +0.000 C 
ATOM     18  C   UNL     1      46.237  22.190  86.400  0.00  0.00    +0.000 C 
ATOM     19  C   UNL     1      44.918  21.602  85.989  0.00  0.00    +0.000 C 
ATOM     20  C   UNL     1      46.624  23.502  85.877  0.00  0.00    +0.000 C 
ATOM     21  C   UNL     1      45.607  25.120  84.428  0.00  0.00    +0.000 C 
ATOM     22  C   UNL     1      46.288  24.028  84.573  0.00  0.00    +0.000 C 
ATOM     23  C   UNL     1      45.486  27.557  84.809  0.00  0.00    +0.000 C 
ATOM     24  C   UNL     1      43.784  20.832  88.169  0.00  0.00    +0.000 C 
ATOM     25  C   UNL     1      47.208  21.396  87.266  0.00  0.00    +0.000 C 
ATOM     26  C   UNL     1      46.554  23.251  83.309  0.00  0.00    +0.000 C 
ENDROOT
BRANCH   9  27
ATOM     27  O   UNL     1      40.121  24.963  83.014  0.00  0.00    +0.000 OA
ATOM     28  H   UNL     1      39.213  25.048  82.670  0.00  0.00    +0.000 HD
ENDBRANCH   9  27
BRANCH  10  29
ATOM     29  O   UNL     1      42.904  22.699  82.534  0.00  0.00    +0.000 OA
ATOM     30  H   UNL     1      42.319  21.920  82.482  0.00  0.00    +0.000 HD
ENDBRANCH  10  29
BRANCH  14  31
ATOM     31  O   UNL     1      42.385  17.440  86.402  0.00  0.00    +0.000 OA
ATOM     32  H   UNL     1      42.583  16.890  85.615  0.00  0.00    +0.000 HD
ENDBRANCH  14  31
BRANCH  15  33
ATOM     33  O   UNL     1      44.870  18.310  85.880  0.00  0.00    +0.000 OA
ATOM     34  C   UNL     1      45.200  18.282  84.516  0.00  0.00    +0.000 C 
ENDBRANCH  15  33
BRANCH  20  35
ATOM     35  O   UNL     1      47.691  24.199  86.505  0.00  0.00    +0.000 OA
BRANCH  35  37
ATOM     36  O   UNL     1      49.513  23.373  85.303  0.00  0.00    +0.000 OA
ATOM     37  C   UNL     1      48.827  24.266  85.763  0.00  0.00    +0.000 C 
ATOM     38  C   UNL     1      49.328  25.642  85.525  0.00  0.00    +0.000 C 
ENDBRANCH  35  37
ENDBRANCH  20  35
BRANCH   6  39
ATOM     39  C   UNL     1      38.539  22.686  84.598  0.00  0.00    +0.000 C 
BRANCH  39  41
ATOM     40  O   UNL     1      35.989  22.646  84.604  0.00  0.00    +0.000 OA
ATOM     41  C   UNL     1      37.248  22.065  84.184  0.00  0.00    +0.000 C 
ATOM     42  C   UNL     1      36.416  22.915  83.337  0.00  0.00    +0.000 C 
ATOM     43  C   UNL     1      37.125  20.504  84.264  0.00  0.00    +0.000 C 
BRANCH  42  44
ATOM     44  C   UNL     1      35.668  22.393  82.229  0.00  0.00    +0.000 C 
ATOM     45  C   UNL     1      34.165  22.506  82.211  0.00  0.00    +0.000 C 
BRANCH  44  46
ATOM     46  C   UNL     1      36.302  22.295  80.961  0.00  0.00    +0.000 C 
ATOM     47  C   UNL     1      36.925  22.236  79.938  0.00  0.00    +0.000 C 
ATOM     48  C   UNL     1      37.833  22.224  78.700  0.00  0.00    +0.000 C 
ENDBRANCH  44  46
ENDBRANCH  42  44
ENDBRANCH  39  41
BRANCH  39  49
ATOM     49  O   UNL     1      38.652  23.400  85.782  0.00  0.00    +0.000 OA
ATOM     50  H   UNL     1      39.572  23.663  85.974  0.00  0.00    +0.000 HD
ENDBRANCH  39  49
ENDBRANCH   6  39
BRANCH   9  51
ATOM     51  C   UNL     1      40.655  24.267  80.813  0.00  0.00    +0.000 C 
BRANCH  51  52
ATOM     52  O   UNL     1      40.542  24.583  79.523  0.00  0.00    +0.000 OA
ATOM     53  H   UNL     1      39.704  25.054  79.357  0.00  0.00    +0.000 HD
ENDBRANCH  51  52
ENDBRANCH   9  51
TORSDOF 13
ENDMDL
MODEL 3
REMARK VINA RESULT:      -6.2      1.983      3.259
REMARK  Name = 101808841_CandidaspongiolideA.pdbqt.pdb
REMARK  13 active torsions:
REMARK  status: ('A' for Active; 'I' for Inactive)
REMARK    1  A    between atoms: C_6  and  C_39
REMARK    2  A    between atoms: C_9  and  O_27
REMARK    3  A    between atoms: C_9  and  C_51
REMARK    4  A    between atoms: C_10  and  O_29
REMARK    5  A    between atoms: C_14  and  O_31
REMARK    6  A    between atoms: C_15  and  O_33
REMARK    7  A    between atoms: C_20  and  O_35
REMARK    8  A    between atoms: O_35  and  C_37
REMARK    9  A    between atoms: C_39  and  C_41
REMARK   10  A    between atoms: C_39  and  O_49
REMARK   11  A    between atoms: C_42  and  C_44
REMARK   12  A    between atoms: C_44  and  C_46
REMARK   13  A    between atoms: C_51  and  O_52
REMARK                            x       y       z     vdW  Elec       q    Type
REMARK                         _______ _______ _______ _____ _____    ______ ____
ROOT
ATOM      1  O   UNL     1      57.430  36.101  69.402  0.00  0.00    +0.000 OA
ATOM      2  O   UNL     1      61.304  35.458  70.764  0.00  0.00    +0.000 OA
ATOM      3  O   UNL     1      57.077  37.915  70.782  0.00  0.00    +0.000 OA
ATOM      4  O   UNL     1      59.456  29.527  68.551  0.00  0.00    +0.000 OA
ATOM      5  O   UNL     1      57.326  34.603  66.985  0.00  0.00    +0.000 OA
ATOM      6  C   UNL     1      59.074  34.855  71.222  0.00  0.00    +0.000 C 
ATOM      7  C   UNL     1      60.461  34.559  70.744  0.00  0.00    +0.000 C 
ATOM      8  C   UNL     1      58.192  35.502  70.313  0.00  0.00    +0.000 C 
ATOM      9  C   UNL     1      60.697  33.139  70.161  0.00  0.00    +0.000 C 
ATOM     10  C   UNL     1      60.079  33.020  68.779  0.00  0.00    +0.000 C 
ATOM     11  C   UNL     1      59.561  31.794  68.268  0.00  0.00    +0.000 C 
ATOM     12  C   UNL     1      57.003  37.351  69.699  0.00  0.00    +0.000 C 
ATOM     13  C   UNL     1      59.078  30.479  67.877  0.00  0.00    +0.000 C 
ATOM     14  C   UNL     1      56.450  38.026  68.502  0.00  0.00    +0.000 C 
ATOM     15  C   UNL     1      56.242  37.390  67.217  0.00  0.00    +0.000 C 
ATOM     16  C   UNL     1      58.163  30.334  66.699  0.00  0.00    +0.000 C 
ATOM     17  C   UNL     1      55.519  36.149  66.971  0.00  0.00    +0.000 C 
ATOM     18  C   UNL     1      55.691  34.253  65.271  0.00  0.00    +0.000 C 
ATOM     19  C   UNL     1      56.287  34.980  66.441  0.00  0.00    +0.000 C 
ATOM     20  C   UNL     1      56.186  32.915  64.938  0.00  0.00    +0.000 C 
ATOM     21  C   UNL     1      57.824  31.431  65.868  0.00  0.00    +0.000 C 
ATOM     22  C   UNL     1      57.542  32.445  65.113  0.00  0.00    +0.000 C 
ATOM     23  C   UNL     1      57.541  29.015  66.292  0.00  0.00    +0.000 C 
ATOM     24  C   UNL     1      54.290  35.833  67.825  0.00  0.00    +0.000 C 
ATOM     25  C   UNL     1      54.660  34.929  64.375  0.00  0.00    +0.000 C 
ATOM     26  C   UNL     1      58.725  33.208  64.572  0.00  0.00    +0.000 C 
ENDROOT
BRANCH   9  27
ATOM     27  O   UNL     1      60.078  32.175  71.015  0.00  0.00    +0.000 OA
ATOM     28  H   UNL     1      60.130  31.315  70.559  0.00  0.00    +0.000 HD
ENDBRANCH   9  27
BRANCH  10  29
ATOM     29  O   UNL     1      60.047  34.145  67.978  0.00  0.00    +0.000 OA
ATOM     30  H   UNL     1      60.733  34.804  68.195  0.00  0.00    +0.000 HD
ENDBRANCH  10  29
BRANCH  14  31
ATOM     31  O   UNL     1      56.151  39.375  68.578  0.00  0.00    +0.000 OA
ATOM     32  H   UNL     1      55.706  39.584  69.427  0.00  0.00    +0.000 HD
ENDBRANCH  14  31
BRANCH  15  33
ATOM     33  O   UNL     1      56.303  38.260  66.141  0.00  0.00    +0.000 OA
ATOM     34  C   UNL     1      55.037  38.394  65.551  0.00  0.00    +0.000 C 
ENDBRANCH  15  33
BRANCH  20  35
ATOM     35  O   UNL     1      55.419  32.103  64.060  0.00  0.00    +0.000 OA
BRANCH  35  37
ATOM     36  O   UNL     1      53.472  31.803  65.310  0.00  0.00    +0.000 OA
ATOM     37  C   UNL     1      54.426  31.405  64.670  0.00  0.00    +0.000 C 
ATOM     38  C   UNL     1      54.562  29.931  64.579  0.00  0.00    +0.000 C 
ENDBRANCH  35  37
ENDBRANCH  20  35
BRANCH   6  39
ATOM     39  C   UNL     1      58.695  34.582  72.594  0.00  0.00    +0.000 C 
BRANCH  39  41
ATOM     40  O   UNL     1      59.554  36.785  73.549  0.00  0.00    +0.000 OA
ATOM     41  C   UNL     1      59.239  35.382  73.728  0.00  0.00    +0.000 C 
ATOM     42  C   UNL     1      58.375  36.477  74.162  0.00  0.00    +0.000 C 
ATOM     43  C   UNL     1      60.357  34.733  74.614  0.00  0.00    +0.000 C 
BRANCH  42  44
ATOM     44  C   UNL     1      58.205  36.814  75.546  0.00  0.00    +0.000 C 
ATOM     45  C   UNL     1      58.703  38.138  76.068  0.00  0.00    +0.000 C 
BRANCH  44  46
ATOM     46  C   UNL     1      57.136  36.221  76.270  0.00  0.00    +0.000 C 
ATOM     47  C   UNL     1      56.301  35.648  76.913  0.00  0.00    +0.000 C 
ATOM     48  C   UNL     1      55.328  34.807  77.752  0.00  0.00    +0.000 C 
ENDBRANCH  44  46
ENDBRANCH  42  44
ENDBRANCH  39  41
BRANCH  39  49
ATOM     49  O   UNL     1      57.566  33.790  72.742  0.00  0.00    +0.000 OA
ATOM     50  H   UNL     1      56.749  34.316  72.843  0.00  0.00    +0.000 HD
ENDBRANCH  39  49
ENDBRANCH   6  39
BRANCH   9  51
ATOM     51  C   UNL     1      62.146  32.842  70.069  0.00  0.00    +0.000 C 
BRANCH  51  52
ATOM     52  O   UNL     1      63.453  32.599  69.974  0.00  0.00    +0.000 OA
ATOM     53  H   UNL     1      63.964  33.426  70.055  0.00  0.00    +0.000 HD
ENDBRANCH  51  52
ENDBRANCH   9  51
TORSDOF 13
ENDMDL
MODEL 4
REMARK VINA RESULT:      -6.0     21.017     25.858
REMARK  Name = 101808841_CandidaspongiolideA.pdbqt.pdb
REMARK  13 active torsions:
REMARK  status: ('A' for Active; 'I' for Inactive)
REMARK    1  A    between atoms: C_6  and  C_39
REMARK    2  A    between atoms: C_9  and  O_27
REMARK    3  A    between atoms: C_9  and  C_51
REMARK    4  A    between atoms: C_10  and  O_29
REMARK    5  A    between atoms: C_14  and  O_31
REMARK    6  A    between atoms: C_15  and  O_33
REMARK    7  A    between atoms: C_20  and  O_35
REMARK    8  A    between atoms: O_35  and  C_37
REMARK    9  A    between atoms: C_39  and  C_41
REMARK   10  A    between atoms: C_39  and  O_49
REMARK   11  A    between atoms: C_42  and  C_44
REMARK   12  A    between atoms: C_44  and  C_46
REMARK   13  A    between atoms: C_51  and  O_52
REMARK                            x       y       z     vdW  Elec       q    Type
REMARK                         _______ _______ _______ _____ _____    ______ ____
ROOT
ATOM      1  O   UNL     1      42.380  23.987  88.353  0.00  0.00    +0.000 OA
ATOM      2  O   UNL     1      43.155  27.911  87.217  0.00  0.00    +0.000 OA
ATOM      3  O   UNL     1      43.503  24.180  90.358  0.00  0.00    +0.000 OA
ATOM      4  O   UNL     1      42.222  24.809  81.472  0.00  0.00    +0.000 OA
ATOM      5  O   UNL     1      40.274  23.202  86.609  0.00  0.00    +0.000 OA
ATOM      6  C   UNL     1      44.068  25.745  87.075  0.00  0.00    +0.000 C 
ATOM      7  C   UNL     1      43.415  26.955  86.484  0.00  0.00    +0.000 C 
ATOM      8  C   UNL     1      43.231  24.812  87.749  0.00  0.00    +0.000 C 
ATOM      9  C   UNL     1      43.026  26.860  84.984  0.00  0.00    +0.000 C 
ATOM     10  C   UNL     1      41.802  25.979  84.804  0.00  0.00    +0.000 C 
ATOM     11  C   UNL     1      41.580  25.196  83.633  0.00  0.00    +0.000 C 
ATOM     12  C   UNL     1      42.549  23.817  89.686  0.00  0.00    +0.000 C 
ATOM     13  C   UNL     1      41.483  24.456  82.385  0.00  0.00    +0.000 C 
ATOM     14  C   UNL     1      41.372  23.153  90.294  0.00  0.00    +0.000 C 
ATOM     15  C   UNL     1      40.254  22.611  89.549  0.00  0.00    +0.000 C 
ATOM     16  C   UNL     1      40.512  23.322  82.256  0.00  0.00    +0.000 C 
ATOM     17  C   UNL     1      40.326  21.676  88.433  0.00  0.00    +0.000 C 
ATOM     18  C   UNL     1      38.933  21.236  86.340  0.00  0.00    +0.000 C 
ATOM     19  C   UNL     1      39.861  22.146  87.091  0.00  0.00    +0.000 C 
ATOM     20  C   UNL     1      38.732  21.453  84.905  0.00  0.00    +0.000 C 
ATOM     21  C   UNL     1      39.590  22.998  83.284  0.00  0.00    +0.000 C 
ATOM     22  C   UNL     1      38.747  22.731  84.231  0.00  0.00    +0.000 C 
ATOM     23  C   UNL     1      40.423  22.444  81.026  0.00  0.00    +0.000 C 
ATOM     24  C   UNL     1      41.413  20.600  88.445  0.00  0.00    +0.000 C 
ATOM     25  C   UNL     1      38.131  20.165  87.069  0.00  0.00    +0.000 C 
ATOM     26  C   UNL     1      37.904  23.890  84.702  0.00  0.00    +0.000 C 
ENDROOT
BRANCH   9  27
ATOM     27  O   UNL     1      44.109  26.279  84.256  0.00  0.00    +0.000 OA
ATOM     28  H   UNL     1      43.969  26.491  83.316  0.00  0.00    +0.000 HD
ENDBRANCH   9  27
BRANCH  10  29
ATOM     29  O   UNL     1      40.855  25.963  85.808  0.00  0.00    +0.000 OA
ATOM     30  H   UNL     1      41.217  25.749  86.689  0.00  0.00    +0.000 HD
ENDBRANCH  10  29
BRANCH  14  31
ATOM     31  O   UNL     1      41.289  23.079  91.673  0.00  0.00    +0.000 OA
ATOM     32  H   UNL     1      40.888  23.896  92.039  0.00  0.00    +0.000 HD
ENDBRANCH  14  31
BRANCH  15  33
ATOM     33  O   UNL     1      39.062  22.594  90.255  0.00  0.00    +0.000 OA
ATOM     34  C   UNL     1      38.670  21.273  90.517  0.00  0.00    +0.000 C 
ENDBRANCH  15  33
BRANCH  20  35
ATOM     35  O   UNL     1      38.131  20.420  84.137  0.00  0.00    +0.000 OA
BRANCH  35  37
ATOM     36  O   UNL     1      35.864  20.856  84.477  0.00  0.00    +0.000 OA
ATOM     37  C   UNL     1      36.843  20.666  83.782  0.00  0.00    +0.000 C 
ATOM     38  C   UNL     1      36.592  20.648  82.319  0.00  0.00    +0.000 C 
ENDBRANCH  35  37
ENDBRANCH  20  35
BRANCH   6  39
ATOM     39  C   UNL     1      45.509  25.597  87.045  0.00  0.00    +0.000 C 
BRANCH  39  41
ATOM     40  O   UNL     1      45.750  23.999  85.073  0.00  0.00    +0.000 OA
ATOM     41  C   UNL     1      46.160  24.424  86.396  0.00  0.00    +0.000 C 
ATOM     42  C   UNL     1      46.890  24.742  85.172  0.00  0.00    +0.000 C 
ATOM     43  C   UNL     1      46.412  23.148  87.271  0.00  0.00    +0.000 C 
BRANCH  42  44
ATOM     44  C   UNL     1      48.147  24.128  84.849  0.00  0.00    +0.000 C 
ATOM     45  C   UNL     1      49.380  24.466  85.648  0.00  0.00    +0.000 C 
BRANCH  44  46
ATOM     46  C   UNL     1      48.145  22.860  84.210  0.00  0.00    +0.000 C 
ATOM     47  C   UNL     1      48.059  21.766  83.725  0.00  0.00    +0.000 C 
ATOM     48  C   UNL     1      47.849  20.336  83.205  0.00  0.00    +0.000 C 
ENDBRANCH  44  46
ENDBRANCH  42  44
ENDBRANCH  39  41
BRANCH  39  49
ATOM     49  O   UNL     1      46.221  26.751  87.339  0.00  0.00    +0.000 OA
ATOM     50  H   UNL     1      47.086  26.783  86.885  0.00  0.00    +0.000 HD
ENDBRANCH  39  49
ENDBRANCH   6  39
BRANCH   9  51
ATOM     51  C   UNL     1      42.739  28.204  84.429  0.00  0.00    +0.000 C 
BRANCH  51  52
ATOM     52  O   UNL     1      42.505  29.421  83.939  0.00  0.00    +0.000 OA
ATOM     53  H   UNL     1      43.135  29.632  83.225  0.00  0.00    +0.000 HD
ENDBRANCH  51  52
ENDBRANCH   9  51
TORSDOF 13
ENDMDL
MODEL 5
REMARK VINA RESULT:      -6.0     19.900     24.817
REMARK  Name = 101808841_CandidaspongiolideA.pdbqt.pdb
REMARK  13 active torsions:
REMARK  status: ('A' for Active; 'I' for Inactive)
REMARK    1  A    between atoms: C_6  and  C_39
REMARK    2  A    between atoms: C_9  and  O_27
REMARK    3  A    between atoms: C_9  and  C_51
REMARK    4  A    between atoms: C_10  and  O_29
REMARK    5  A    between atoms: C_14  and  O_31
REMARK    6  A    between atoms: C_15  and  O_33
REMARK    7  A    between atoms: C_20  and  O_35
REMARK    8  A    between atoms: O_35  and  C_37
REMARK    9  A    between atoms: C_39  and  C_41
REMARK   10  A    between atoms: C_39  and  O_49
REMARK   11  A    between atoms: C_42  and  C_44
REMARK   12  A    between atoms: C_44  and  C_46
REMARK   13  A    between atoms: C_51  and  O_52
REMARK                            x       y       z     vdW  Elec       q    Type
REMARK                         _______ _______ _______ _____ _____    ______ ____
ROOT
ATOM      1  O   UNL     1      43.925  20.738  84.434  0.00  0.00    +0.000 OA
ATOM      2  O   UNL     1      40.819  21.622  81.816  0.00  0.00    +0.000 OA
ATOM      3  O   UNL     1      43.244  18.557  84.754  0.00  0.00    +0.000 OA
ATOM      4  O   UNL     1      42.457  27.511  84.291  0.00  0.00    +0.000 OA
ATOM      5  O   UNL     1      45.774  22.856  83.998  0.00  0.00    +0.000 OA
ATOM      6  C   UNL     1      41.347  21.645  84.110  0.00  0.00    +0.000 C 
ATOM      7  C   UNL     1      41.057  22.317  82.805  0.00  0.00    +0.000 C 
ATOM      8  C   UNL     1      42.668  21.158  84.317  0.00  0.00    +0.000 C 
ATOM      9  C   UNL     1      41.179  23.865  82.789  0.00  0.00    +0.000 C 
ATOM     10  C   UNL     1      42.639  24.286  82.804  0.00  0.00    +0.000 C 
ATOM     11  C   UNL     1      43.087  25.496  83.412  0.00  0.00    +0.000 C 
ATOM     12  C   UNL     1      44.106  19.401  84.551  0.00  0.00    +0.000 C 
ATOM     13  C   UNL     1      43.397  26.757  84.065  0.00  0.00    +0.000 C 
ATOM     14  C   UNL     1      45.527  19.034  84.349  0.00  0.00    +0.000 C 
ATOM     15  C   UNL     1      46.612  19.983  84.202  0.00  0.00    +0.000 C 
ATOM     16  C   UNL     1      44.814  27.087  84.427  0.00  0.00    +0.000 C 
ATOM     17  C   UNL     1      46.925  21.089  85.099  0.00  0.00    +0.000 C 
ATOM     18  C   UNL     1      47.950  23.411  84.830  0.00  0.00    +0.000 C 
ATOM     19  C   UNL     1      46.801  22.482  84.568  0.00  0.00    +0.000 C 
ATOM     20  C   UNL     1      47.750  24.853  84.665  0.00  0.00    +0.000 C 
ATOM     21  C   UNL     1      45.900  26.253  84.061  0.00  0.00    +0.000 C 
ATOM     22  C   UNL     1      46.878  25.483  83.701  0.00  0.00    +0.000 C 
ATOM     23  C   UNL     1      45.203  28.333  85.195  0.00  0.00    +0.000 C 
ATOM     24  C   UNL     1      46.699  20.904  86.600  0.00  0.00    +0.000 C 
ATOM     25  C   UNL     1      49.334  22.865  85.163  0.00  0.00    +0.000 C 
ATOM     26  C   UNL     1      46.939  25.147  82.232  0.00  0.00    +0.000 C 
ENDROOT
BRANCH   9  27
ATOM     27  O   UNL     1      40.546  24.396  83.954  0.00  0.00    +0.000 OA
ATOM     28  H   UNL     1      40.940  23.946  84.723  0.00  0.00    +0.000 HD
ENDBRANCH   9  27
BRANCH  10  29
ATOM     29  O   UNL     1      43.560  23.472  82.176  0.00  0.00    +0.000 OA
ATOM     30  H   UNL     1      43.780  22.664  82.677  0.00  0.00    +0.000 HD
ENDBRANCH  10  29
BRANCH  14  31
ATOM     31  O   UNL     1      45.859  17.695  84.237  0.00  0.00    +0.000 OA
ATOM     32  H   UNL     1      46.542  17.452  84.897  0.00  0.00    +0.000 HD
ENDBRANCH  14  31
BRANCH  15  33
ATOM     33  O   UNL     1      47.680  19.508  83.459  0.00  0.00    +0.000 OA
ATOM     34  C   UNL     1      48.808  19.344  84.276  0.00  0.00    +0.000 C 
ENDBRANCH  15  33
BRANCH  20  35
ATOM     35  O   UNL     1      48.711  25.742  85.218  0.00  0.00    +0.000 OA
BRANCH  35  37
ATOM     36  O   UNL     1      47.483  26.369  87.101  0.00  0.00    +0.000 OA
ATOM     37  C   UNL     1      48.504  26.043  86.526  0.00  0.00    +0.000 C 
ATOM     38  C   UNL     1      49.727  26.017  87.366  0.00  0.00    +0.000 C 
ENDBRANCH  35  37
ENDBRANCH  20  35
BRANCH   6  39
ATOM     39  C   UNL     1      40.288  21.415  85.071  0.00  0.00    +0.000 C 
BRANCH  39  41
ATOM     40  O   UNL     1      37.802  21.099  85.548  0.00  0.00    +0.000 OA
ATOM     41  C   UNL     1      38.928  20.977  84.643  0.00  0.00    +0.000 C 
ATOM     42  C   UNL     1      37.941  22.051  84.581  0.00  0.00    +0.000 C 
ATOM     43  C   UNL     1      38.803  19.615  83.878  0.00  0.00    +0.000 C 
BRANCH  42  44
ATOM     44  C   UNL     1      36.959  22.128  83.538  0.00  0.00    +0.000 C 
ATOM     45  C   UNL     1      37.389  22.333  82.107  0.00  0.00    +0.000 C 
BRANCH  44  46
ATOM     46  C   UNL     1      35.708  21.482  83.727  0.00  0.00    +0.000 C 
ATOM     47  C   UNL     1      34.657  20.908  83.787  0.00  0.00    +0.000 C 
ATOM     48  C   UNL     1      33.315  20.164  83.719  0.00  0.00    +0.000 C 
ENDBRANCH  44  46
ENDBRANCH  42  44
ENDBRANCH  39  41
BRANCH  39  49
ATOM     49  O   UNL     1      40.707  21.292  86.388  0.00  0.00    +0.000 OA
ATOM     50  H   UNL     1      41.591  21.681  86.536  0.00  0.00    +0.000 HD
ENDBRANCH  39  49
ENDBRANCH   6  39
BRANCH   9  51
ATOM     51  C   UNL     1      40.526  24.432  81.585  0.00  0.00    +0.000 C 
BRANCH  51  52
ATOM     52  O   UNL     1      39.960  24.958  80.499  0.00  0.00    +0.000 OA
ATOM     53  H   UNL     1      38.993  24.835  80.521  0.00  0.00    +0.000 HD
ENDBRANCH  51  52
ENDBRANCH   9  51
TORSDOF 13
ENDMDL
MODEL 6
REMARK VINA RESULT:      -5.9     41.793     45.198
REMARK  Name = 101808841_CandidaspongiolideA.pdbqt.pdb
REMARK  13 active torsions:
REMARK  status: ('A' for Active; 'I' for Inactive)
REMARK    1  A    between atoms: C_6  and  C_39
REMARK    2  A    between atoms: C_9  and  O_27
REMARK    3  A    between atoms: C_9  and  C_51
REMARK    4  A    between atoms: C_10  and  O_29
REMARK    5  A    between atoms: C_14  and  O_31
REMARK    6  A    between atoms: C_15  and  O_33
REMARK    7  A    between atoms: C_20  and  O_35
REMARK    8  A    between atoms: O_35  and  C_37
REMARK    9  A    between atoms: C_39  and  C_41
REMARK   10  A    between atoms: C_39  and  O_49
REMARK   11  A    between atoms: C_42  and  C_44
REMARK   12  A    between atoms: C_44  and  C_46
REMARK   13  A    between atoms: C_51  and  O_52
REMARK                            x       y       z     vdW  Elec       q    Type
REMARK                         _______ _______ _______ _____ _____    ______ ____
ROOT
ATOM      1  O   UNL     1      19.156  17.116  87.437  0.00  0.00    +0.000 OA
ATOM      2  O   UNL     1      22.619  19.210  88.389  0.00  0.00    +0.000 OA
ATOM      3  O   UNL     1      17.803  18.447  88.748  0.00  0.00    +0.000 OA
ATOM      4  O   UNL     1      24.854  13.233  86.721  0.00  0.00    +0.000 OA
ATOM      5  O   UNL     1      19.903  15.625  85.132  0.00  0.00    +0.000 OA
ATOM      6  C   UNL     1      21.311  17.396  89.127  0.00  0.00    +0.000 C 
ATOM      7  C   UNL     1      22.541  17.986  88.512  0.00  0.00    +0.000 C 
ATOM      8  C   UNL     1      20.172  17.237  88.288  0.00  0.00    +0.000 C 
ATOM      9  C   UNL     1      23.596  16.975  87.985  0.00  0.00    +0.000 C 
ATOM     10  C   UNL     1      23.123  16.339  86.688  0.00  0.00    +0.000 C 
ATOM     11  C   UNL     1      23.478  15.012  86.306  0.00  0.00    +0.000 C 
ATOM     12  C   UNL     1      18.048  17.843  87.713  0.00  0.00    +0.000 C 
ATOM     13  C   UNL     1      23.922  13.653  86.044  0.00  0.00    +0.000 C 
ATOM     14  C   UNL     1      17.130  17.880  86.550  0.00  0.00    +0.000 C 
ATOM     15  C   UNL     1      17.308  17.115  85.333  0.00  0.00    +0.000 C 
ATOM     16  C   UNL     1      23.249  12.833  84.985  0.00  0.00    +0.000 C 
ATOM     17  C   UNL     1      17.528  15.677  85.237  0.00  0.00    +0.000 C 
ATOM     18  C   UNL     1      18.778  14.134  83.633  0.00  0.00    +0.000 C 
ATOM     19  C   UNL     1      18.835  15.200  84.688  0.00  0.00    +0.000 C 
ATOM     20  C   UNL     1      19.993  13.378  83.320  0.00  0.00    +0.000 C 
ATOM     21  C   UNL     1      22.247  13.370  84.139  0.00  0.00    +0.000 C 
ATOM     22  C   UNL     1      21.344  13.888  83.367  0.00  0.00    +0.000 C 
ATOM     23  C   UNL     1      23.588  11.381  84.722  0.00  0.00    +0.000 C 
ATOM     24  C   UNL     1      16.828  14.758  86.240  0.00  0.00    +0.000 C 
ATOM     25  C   UNL     1      17.506  13.905  82.824  0.00  0.00    +0.000 C 
ATOM     26  C   UNL     1      21.741  15.157  82.656  0.00  0.00    +0.000 C 
ENDROOT
BRANCH   9  27
ATOM     27  O   UNL     1      23.777  15.941  88.953  0.00  0.00    +0.000 OA
ATOM     28  H   UNL     1      24.654  15.548  88.791  0.00  0.00    +0.000 HD
ENDBRANCH   9  27
BRANCH  10  29
ATOM     29  O   UNL     1      22.341  17.094  85.837  0.00  0.00    +0.000 OA
ATOM     30  H   UNL     1      22.151  16.659  84.985  0.00  0.00    +0.000 HD
ENDBRANCH  10  29
BRANCH  14  31
ATOM     31  O   UNL     1      16.046  18.739  86.587  0.00  0.00    +0.000 OA
ATOM     32  H   UNL     1      16.341  19.661  86.745  0.00  0.00    +0.000 HD
ENDBRANCH  14  31
BRANCH  15  33
ATOM     33  O   UNL     1      16.745  17.701  84.212  0.00  0.00    +0.000 OA
ATOM     34  C   UNL     1      17.704  18.463  83.527  0.00  0.00    +0.000 C 
ENDBRANCH  15  33
BRANCH  20  35
ATOM     35  O   UNL     1      19.873  12.172  82.579  0.00  0.00    +0.000 OA
BRANCH  35  37
ATOM     36  O   UNL     1      18.229  10.789  83.488  0.00  0.00    +0.000 OA
ATOM     37  C   UNL     1      19.380  11.126  83.291  0.00  0.00    +0.000 C 
ATOM     38  C   UNL     1      20.410  10.303  83.972  0.00  0.00    +0.000 C 
ENDBRANCH  35  37
ENDBRANCH  20  35
BRANCH   6  39
ATOM     39  C   UNL     1      21.264  17.103  90.544  0.00  0.00    +0.000 C 
BRANCH  39  41
ATOM     40  O   UNL     1      19.694  17.595  92.493  0.00  0.00    +0.000 OA
ATOM     41  C   UNL     1      20.663  18.057  91.520  0.00  0.00    +0.000 C 
ATOM     42  C   UNL     1      20.980  17.770  92.916  0.00  0.00    +0.000 C 
ATOM     43  C   UNL     1      20.201  19.457  90.987  0.00  0.00    +0.000 C 
BRANCH  42  44
ATOM     44  C   UNL     1      21.261  18.808  93.866  0.00  0.00    +0.000 C 
ATOM     45  C   UNL     1      20.157  19.362  94.730  0.00  0.00    +0.000 C 
BRANCH  44  46
ATOM     46  C   UNL     1      22.578  18.920  94.388  0.00  0.00    +0.000 C 
ATOM     47  C   UNL     1      23.656  18.962  94.912  0.00  0.00    +0.000 C 
ATOM     48  C   UNL     1      24.972  18.969  95.703  0.00  0.00    +0.000 C 
ENDBRANCH  44  46
ENDBRANCH  42  44
ENDBRANCH  39  41
BRANCH  39  49
ATOM     49  O   UNL     1      21.487  15.774  90.875  0.00  0.00    +0.000 OA
ATOM     50  H   UNL     1      21.063  15.156  90.248  0.00  0.00    +0.000 HD
ENDBRANCH  39  49
ENDBRANCH   6  39
BRANCH   9  51
ATOM     51  C   UNL     1      24.895  17.647  87.747  0.00  0.00    +0.000 C 
BRANCH  51  52
ATOM     52  O   UNL     1      26.053  18.275  87.540  0.00  0.00    +0.000 OA
ATOM     53  H   UNL     1      26.221  18.381  86.586  0.00  0.00    +0.000 HD
ENDBRANCH  51  52
ENDBRANCH   9  51
TORSDOF 13
ENDMDL
MODEL 7
REMARK VINA RESULT:      -5.8     16.275     18.524
REMARK  Name = 101808841_CandidaspongiolideA.pdbqt.pdb
REMARK  13 active torsions:
REMARK  status: ('A' for Active; 'I' for Inactive)
REMARK    1  A    between atoms: C_6  and  C_39
REMARK    2  A    between atoms: C_9  and  O_27
REMARK    3  A    between atoms: C_9  and  C_51
REMARK    4  A    between atoms: C_10  and  O_29
REMARK    5  A    between atoms: C_14  and  O_31
REMARK    6  A    between atoms: C_15  and  O_33
REMARK    7  A    between atoms: C_20  and  O_35
REMARK    8  A    between atoms: O_35  and  C_37
REMARK    9  A    between atoms: C_39  and  C_41
REMARK   10  A    between atoms: C_39  and  O_49
REMARK   11  A    between atoms: C_42  and  C_44
REMARK   12  A    between atoms: C_44  and  C_46
REMARK   13  A    between atoms: C_51  and  O_52
REMARK                            x       y       z     vdW  Elec       q    Type
REMARK                         _______ _______ _______ _____ _____    ______ ____
ROOT
ATOM      1  O   UNL     1      40.024  28.708  73.570  0.00  0.00    +0.000 OA
ATOM      2  O   UNL     1      41.345  32.221  71.781  0.00  0.00    +0.000 OA
ATOM      3  O   UNL     1      38.641  29.801  75.057  0.00  0.00    +0.000 OA
ATOM      4  O   UNL     1      46.251  27.970  70.615  0.00  0.00    +0.000 OA
ATOM      5  O   UNL     1      40.778  26.698  71.703  0.00  0.00    +0.000 OA
ATOM      6  C   UNL     1      41.861  30.757  73.553  0.00  0.00    +0.000 C 
ATOM      7  C   UNL     1      42.129  31.375  72.216  0.00  0.00    +0.000 C 
ATOM      8  C   UNL     1      40.914  29.696  73.606  0.00  0.00    +0.000 C 
ATOM      9  C   UNL     1      43.346  30.812  71.433  0.00  0.00    +0.000 C 
ATOM     10  C   UNL     1      43.024  29.444  70.856  0.00  0.00    +0.000 C 
ATOM     11  C   UNL     1      44.012  28.433  70.670  0.00  0.00    +0.000 C 
ATOM     12  C   UNL     1      38.875  28.906  74.257  0.00  0.00    +0.000 C 
ATOM     13  C   UNL     1      45.121  27.502  70.534  0.00  0.00    +0.000 C 
ATOM     14  C   UNL     1      37.849  27.904  73.883  0.00  0.00    +0.000 C 
ATOM     15  C   UNL     1      38.084  26.765  73.020  0.00  0.00    +0.000 C 
ATOM     16  C   UNL     1      44.856  26.045  70.303  0.00  0.00    +0.000 C 
ATOM     17  C   UNL     1      39.142  25.772  73.161  0.00  0.00    +0.000 C 
ATOM     18  C   UNL     1      40.500  24.323  71.557  0.00  0.00    +0.000 C 
ATOM     19  C   UNL     1      40.179  25.691  72.086  0.00  0.00    +0.000 C 
ATOM     20  C   UNL     1      41.730  24.130  70.785  0.00  0.00    +0.000 C 
ATOM     21  C   UNL     1      43.547  25.539  70.104  0.00  0.00    +0.000 C 
ATOM     22  C   UNL     1      42.343  25.103  69.910  0.00  0.00    +0.000 C 
ATOM     23  C   UNL     1      45.953  25.003  70.249  0.00  0.00    +0.000 C 
ATOM     24  C   UNL     1      39.578  25.359  74.568  0.00  0.00    +0.000 C 
ATOM     25  C   UNL     1      39.517  23.171  71.728  0.00  0.00    +0.000 C 
ATOM     26  C   UNL     1      41.563  25.798  68.822  0.00  0.00    +0.000 C 
ENDROOT
BRANCH   9  27
ATOM     27  O   UNL     1      44.453  30.675  72.325  0.00  0.00    +0.000 OA
ATOM     28  H   UNL     1      44.649  31.563  72.676  0.00  0.00    +0.000 HD
ENDBRANCH   9  27
BRANCH  10  29
ATOM     29  O   UNL     1      41.723  29.186  70.473  0.00  0.00    +0.000 OA
ATOM     30  H   UNL     1      41.553  28.250  70.255  0.00  0.00    +0.000 HD
ENDBRANCH  10  29
BRANCH  14  31
ATOM     31  O   UNL     1      36.554  28.076  74.339  0.00  0.00    +0.000 OA
ATOM     32  H   UNL     1      35.909  27.904  73.621  0.00  0.00    +0.000 HD
ENDBRANCH  14  31
BRANCH  15  33
ATOM     33  O   UNL     1      36.958  26.332  72.339  0.00  0.00    +0.000 OA
ATOM     34  C   UNL     1      36.902  26.921  71.067  0.00  0.00    +0.000 C 
ENDBRANCH  15  33
BRANCH  20  35
ATOM     35  O   UNL     1      42.198  22.806  70.570  0.00  0.00    +0.000 OA
BRANCH  35  37
ATOM     36  O   UNL     1      43.964  22.767  72.094  0.00  0.00    +0.000 OA
ATOM     37  C   UNL     1      42.960  22.313  71.580  0.00  0.00    +0.000 C 
ATOM     38  C   UNL     1      42.523  20.992  72.094  0.00  0.00    +0.000 C 
ENDBRANCH  35  37
ENDBRANCH  20  35
BRANCH   6  39
ATOM     39  C   UNL     1      42.470  31.300  74.750  0.00  0.00    +0.000 C 
BRANCH  39  41
ATOM     40  O   UNL     1      43.112  33.293  76.206  0.00  0.00    +0.000 OA
ATOM     41  C   UNL     1      42.361  32.747  75.094  0.00  0.00    +0.000 C 
ATOM     42  C   UNL     1      43.607  33.496  74.951  0.00  0.00    +0.000 C 
ATOM     43  C   UNL     1      40.934  33.395  75.094  0.00  0.00    +0.000 C 
BRANCH  42  44
ATOM     44  C   UNL     1      43.640  34.831  74.427  0.00  0.00    +0.000 C 
ATOM     45  C   UNL     1      44.394  35.912  75.161  0.00  0.00    +0.000 C 
BRANCH  44  46
ATOM     46  C   UNL     1      43.478  35.023  73.029  0.00  0.00    +0.000 C 
ATOM     47  C   UNL     1      43.257  35.241  71.870  0.00  0.00    +0.000 C 
ATOM     48  C   UNL     1      42.843  35.569  70.429  0.00  0.00    +0.000 C 
ENDBRANCH  44  46
ENDBRANCH  42  44
ENDBRANCH  39  41
BRANCH  39  49
ATOM     49  O   UNL     1      42.846  30.357  75.695  0.00  0.00    +0.000 OA
ATOM     50  H   UNL     1      43.114  29.509  75.292  0.00  0.00    +0.000 HD
ENDBRANCH  39  49
ENDBRANCH   6  39
BRANCH   9  51
ATOM     51  C   UNL     1      43.727  31.723  70.328  0.00  0.00    +0.000 C 
BRANCH  51  52
ATOM     52  O   UNL     1      44.081  32.521  69.320  0.00  0.00    +0.000 OA
ATOM     53  H   UNL     1      44.347  33.398  69.654  0.00  0.00    +0.000 HD
ENDBRANCH  51  52
ENDBRANCH   9  51
TORSDOF 13
ENDMDL
MODEL 8
REMARK VINA RESULT:      -5.7     13.638     18.473
REMARK  Name = 101808841_CandidaspongiolideA.pdbqt.pdb
REMARK  13 active torsions:
REMARK  status: ('A' for Active; 'I' for Inactive)
REMARK    1  A    between atoms: C_6  and  C_39
REMARK    2  A    between atoms: C_9  and  O_27
REMARK    3  A    between atoms: C_9  and  C_51
REMARK    4  A    between atoms: C_10  and  O_29
REMARK    5  A    between atoms: C_14  and  O_31
REMARK    6  A    between atoms: C_15  and  O_33
REMARK    7  A    between atoms: C_20  and  O_35
REMARK    8  A    between atoms: O_35  and  C_37
REMARK    9  A    between atoms: C_39  and  C_41
REMARK   10  A    between atoms: C_39  and  O_49
REMARK   11  A    between atoms: C_42  and  C_44
REMARK   12  A    between atoms: C_44  and  C_46
REMARK   13  A    between atoms: C_51  and  O_52
REMARK                            x       y       z     vdW  Elec       q    Type
REMARK                         _______ _______ _______ _____ _____    ______ ____
ROOT
ATOM      1  O   UNL     1      54.194  39.400  87.728  0.00  0.00    +0.000 OA
ATOM      2  O   UNL     1      56.018  39.087  84.006  0.00  0.00    +0.000 OA
ATOM      3  O   UNL     1      53.519  41.580  87.389  0.00  0.00    +0.000 OA
ATOM      4  O   UNL     1      59.188  34.595  87.648  0.00  0.00    +0.000 OA
ATOM      5  O   UNL     1      53.943  36.693  88.567  0.00  0.00    +0.000 OA
ATOM      6  C   UNL     1      56.477  39.723  86.227  0.00  0.00    +0.000 C 
ATOM      7  C   UNL     1      56.611  38.808  85.050  0.00  0.00    +0.000 C 
ATOM      8  C   UNL     1      55.308  39.592  87.028  0.00  0.00    +0.000 C 
ATOM      9  C   UNL     1      57.428  37.508  85.282  0.00  0.00    +0.000 C 
ATOM     10  C   UNL     1      56.624  36.512  86.101  0.00  0.00    +0.000 C 
ATOM     11  C   UNL     1      57.230  35.577  86.990  0.00  0.00    +0.000 C 
ATOM     12  C   UNL     1      53.319  40.433  87.764  0.00  0.00    +0.000 C 
ATOM     13  C   UNL     1      57.983  34.681  87.854  0.00  0.00    +0.000 C 
ATOM     14  C   UNL     1      52.001  40.000  88.285  0.00  0.00    +0.000 C 
ATOM     15  C   UNL     1      51.721  38.690  88.834  0.00  0.00    +0.000 C 
ATOM     16  C   UNL     1      57.282  33.913  88.933  0.00  0.00    +0.000 C 
ATOM     17  C   UNL     1      52.468  38.012  89.887  0.00  0.00    +0.000 C 
ATOM     18  C   UNL     1      52.994  35.582  90.465  0.00  0.00    +0.000 C 
ATOM     19  C   UNL     1      53.186  36.747  89.537  0.00  0.00    +0.000 C 
ATOM     20  C   UNL     1      53.928  34.455  90.392  0.00  0.00    +0.000 C 
ATOM     21  C   UNL     1      55.873  33.942  89.087  0.00  0.00    +0.000 C 
ATOM     22  C   UNL     1      54.583  33.973  89.197  0.00  0.00    +0.000 C 
ATOM     23  C   UNL     1      58.010  33.038  89.932  0.00  0.00    +0.000 C 
ATOM     24  C   UNL     1      53.064  38.849  91.020  0.00  0.00    +0.000 C 
ATOM     25  C   UNL     1      51.792  35.518  91.399  0.00  0.00    +0.000 C 
ATOM     26  C   UNL     1      53.811  33.640  87.945  0.00  0.00    +0.000 C 
ENDROOT
BRANCH   9  27
ATOM     27  O   UNL     1      58.618  37.827  86.004  0.00  0.00    +0.000 OA
ATOM     28  H   UNL     1      59.265  37.123  85.814  0.00  0.00    +0.000 HD
ENDBRANCH   9  27
BRANCH  10  29
ATOM     29  O   UNL     1      55.252  36.499  85.950  0.00  0.00    +0.000 OA
ATOM     30  H   UNL     1      54.778  36.058  86.680  0.00  0.00    +0.000 HD
ENDBRANCH  10  29
BRANCH  14  31
ATOM     31  O   UNL     1      50.933  40.877  88.204  0.00  0.00    +0.000 OA
ATOM     32  H   UNL     1      50.218  40.499  87.649  0.00  0.00    +0.000 HD
ENDBRANCH  14  31
BRANCH  15  33
ATOM     33  O   UNL     1      50.400  38.293  88.701  0.00  0.00    +0.000 OA
ATOM     34  C   UNL     1      49.783  38.224  89.959  0.00  0.00    +0.000 C 
ENDBRANCH  15  33
BRANCH  20  35
ATOM     35  O   UNL     1      53.954  33.522  91.463  0.00  0.00    +0.000 OA
BRANCH  35  37
ATOM     36  O   UNL     1      55.880  34.274  92.545  0.00  0.00    +0.000 OA
ATOM     37  C   UNL     1      54.722  33.904  92.516  0.00  0.00    +0.000 C 
ATOM     38  C   UNL     1      54.054  33.800  93.837  0.00  0.00    +0.000 C 
ENDBRANCH  35  37
ENDBRANCH  20  35
BRANCH   6  39
ATOM     39  C   UNL     1      57.455  40.765  86.464  0.00  0.00    +0.000 C 
BRANCH  39  41
ATOM     40  O   UNL     1      57.901  43.074  85.477  0.00  0.00    +0.000 OA
ATOM     41  C   UNL     1      57.107  42.208  86.326  0.00  0.00    +0.000 C 
ATOM     42  C   UNL     1      56.721  42.608  84.976  0.00  0.00    +0.000 C 
ATOM     43  C   UNL     1      56.729  42.999  87.626  0.00  0.00    +0.000 C 
BRANCH  42  44
ATOM     44  C   UNL     1      55.657  43.539  84.728  0.00  0.00    +0.000 C 
ATOM     45  C   UNL     1      55.973  44.971  84.377  0.00  0.00    +0.000 C 
BRANCH  44  46
ATOM     46  C   UNL     1      54.407  43.044  84.268  0.00  0.00    +0.000 C 
ATOM     47  C   UNL     1      53.393  42.626  83.785  0.00  0.00    +0.000 C 
ATOM     48  C   UNL     1      52.150  42.122  83.036  0.00  0.00    +0.000 C 
ENDBRANCH  44  46
ENDBRANCH  42  44
ENDBRANCH  39  41
BRANCH  39  49
ATOM     49  O   UNL     1      58.593  40.356  87.145  0.00  0.00    +0.000 OA
ATOM     50  H   UNL     1      59.091  41.105  87.525  0.00  0.00    +0.000 HD
ENDBRANCH  39  49
ENDBRANCH   6  39
BRANCH   9  51
ATOM     51  C   UNL     1      57.799  36.883  83.991  0.00  0.00    +0.000 C 
BRANCH  51  52
ATOM     52  O   UNL     1      58.143  36.298  82.843  0.00  0.00    +0.000 OA
ATOM     53  H   UNL     1      57.360  35.920  82.401  0.00  0.00    +0.000 HD
ENDBRANCH  51  52
ENDBRANCH   9  51
TORSDOF 13
ENDMDL
MODEL 9
REMARK VINA RESULT:      -5.7     41.308     44.816
REMARK  Name = 101808841_CandidaspongiolideA.pdbqt.pdb
REMARK  13 active torsions:
REMARK  status: ('A' for Active; 'I' for Inactive)
REMARK    1  A    between atoms: C_6  and  C_39
REMARK    2  A    between atoms: C_9  and  O_27
REMARK    3  A    between atoms: C_9  and  C_51
REMARK    4  A    between atoms: C_10  and  O_29
REMARK    5  A    between atoms: C_14  and  O_31
REMARK    6  A    between atoms: C_15  and  O_33
REMARK    7  A    between atoms: C_20  and  O_35
REMARK    8  A    between atoms: O_35  and  C_37
REMARK    9  A    between atoms: C_39  and  C_41
REMARK   10  A    between atoms: C_39  and  O_49
REMARK   11  A    between atoms: C_42  and  C_44
REMARK   12  A    between atoms: C_44  and  C_46
REMARK   13  A    between atoms: C_51  and  O_52
REMARK                            x       y       z     vdW  Elec       q    Type
REMARK                         _______ _______ _______ _____ _____    ______ ____
ROOT
ATOM      1  O   UNL     1      19.717  17.516  88.204  0.00  0.00    +0.000 OA
ATOM      2  O   UNL     1      23.511  19.124  88.748  0.00  0.00    +0.000 OA
ATOM      3  O   UNL     1      18.776  18.752  89.909  0.00  0.00    +0.000 OA
ATOM      4  O   UNL     1      24.714  13.287  85.924  0.00  0.00    +0.000 OA
ATOM      5  O   UNL     1      19.872  16.325  85.625  0.00  0.00    +0.000 OA
ATOM      6  C   UNL     1      22.150  17.346  89.477  0.00  0.00    +0.000 C 
ATOM      7  C   UNL     1      23.315  17.908  88.724  0.00  0.00    +0.000 C 
ATOM      8  C   UNL     1      20.872  17.417  88.855  0.00  0.00    +0.000 C 
ATOM      9  C   UNL     1      24.137  16.897  87.879  0.00  0.00    +0.000 C 
ATOM     10  C   UNL     1      23.375  16.506  86.624  0.00  0.00    +0.000 C 
ATOM     11  C   UNL     1      23.502  15.225  86.011  0.00  0.00    +0.000 C 
ATOM     12  C   UNL     1      18.765  18.290  88.776  0.00  0.00    +0.000 C 
ATOM     13  C   UNL     1      23.733  13.885  85.495  0.00  0.00    +0.000 C 
ATOM     14  C   UNL     1      17.669  18.583  87.823  0.00  0.00    +0.000 C 
ATOM     15  C   UNL     1      17.542  17.995  86.505  0.00  0.00    +0.000 C 
ATOM     16  C   UNL     1      22.795  13.296  84.485  0.00  0.00    +0.000 C 
ATOM     17  C   UNL     1      17.573  16.574  86.183  0.00  0.00    +0.000 C 
ATOM     18  C   UNL     1      18.337  15.182  84.184  0.00  0.00    +0.000 C 
ATOM     19  C   UNL     1      18.701  16.069  85.339  0.00  0.00    +0.000 C 
ATOM     20  C   UNL     1      19.383  14.375  83.552  0.00  0.00    +0.000 C 
ATOM     21  C   UNL     1      21.729  14.042  83.921  0.00  0.00    +0.000 C 
ATOM     22  C   UNL     1      20.772  14.748  83.408  0.00  0.00    +0.000 C 
ATOM     23  C   UNL     1      22.912  11.875  83.976  0.00  0.00    +0.000 C 
ATOM     24  C   UNL     1      16.958  15.582  87.172  0.00  0.00    +0.000 C 
ATOM     25  C   UNL     1      16.927  15.191  83.607  0.00  0.00    +0.000 C 
ATOM     26  C   UNL     1      21.183  16.068  82.807  0.00  0.00    +0.000 C 
ENDROOT
BRANCH   9  27
ATOM     27  O   UNL     1      24.364  15.717  88.652  0.00  0.00    +0.000 OA
ATOM     28  H   UNL     1      23.620  15.638  89.278  0.00  0.00    +0.000 HD
ENDBRANCH   9  27
BRANCH  10  29
ATOM     29  O   UNL     1      22.549  17.447  86.041  0.00  0.00    +0.000 OA
ATOM     30  H   UNL     1      22.164  17.163  85.191  0.00  0.00    +0.000 HD
ENDBRANCH  10  29
BRANCH  14  31
ATOM     31  O   UNL     1      16.715  19.521  88.175  0.00  0.00    +0.000 OA
ATOM     32  H   UNL     1      15.924  19.442  87.602  0.00  0.00    +0.000 HD
ENDBRANCH  14  31
BRANCH  15  33
ATOM     33  O   UNL     1      16.864  18.790  85.597  0.00  0.00    +0.000 OA
ATOM     34  C   UNL     1      17.770  19.558  84.850  0.00  0.00    +0.000 C 
ENDBRANCH  15  33
BRANCH  20  35
ATOM     35  O   UNL     1      18.998  13.308  82.695  0.00  0.00    +0.000 OA
BRANCH  35  37
ATOM     36  O   UNL     1      17.383  11.969  83.716  0.00  0.00    +0.000 OA
ATOM     37  C   UNL     1      18.513  12.219  83.345  0.00  0.00    +0.000 C 
ATOM     38  C   UNL     1      19.538  11.205  83.698  0.00  0.00    +0.000 C 
ENDBRANCH  35  37
ENDBRANCH  20  35
BRANCH   6  39
ATOM     39  C   UNL     1      22.318  16.849  90.828  0.00  0.00    +0.000 C 
BRANCH  39  41
ATOM     40  O   UNL     1      23.077  17.831  93.055  0.00  0.00    +0.000 OA
ATOM     41  C   UNL     1      22.075  17.719  92.014  0.00  0.00    +0.000 C 
ATOM     42  C   UNL     1      23.003  18.839  92.139  0.00  0.00    +0.000 C 
ATOM     43  C   UNL     1      20.663  17.659  92.691  0.00  0.00    +0.000 C 
BRANCH  42  44
ATOM     44  C   UNL     1      22.578  20.140  92.573  0.00  0.00    +0.000 C 
ATOM     45  C   UNL     1      23.072  20.698  93.883  0.00  0.00    +0.000 C 
BRANCH  44  46
ATOM     46  C   UNL     1      22.187  21.094  91.596  0.00  0.00    +0.000 C 
ATOM     47  C   UNL     1      21.953  21.934  90.773  0.00  0.00    +0.000 C 
ATOM     48  C   UNL     1      21.784  23.068  89.751  0.00  0.00    +0.000 C 
ENDBRANCH  44  46
ENDBRANCH  42  44
ENDBRANCH  39  41
BRANCH  39  49
ATOM     49  O   UNL     1      22.373  15.468  90.941  0.00  0.00    +0.000 OA
ATOM     50  H   UNL     1      21.744  15.018  90.345  0.00  0.00    +0.000 HD
ENDBRANCH  39  49
ENDBRANCH   6  39
BRANCH   9  51
ATOM     51  C   UNL     1      25.444  17.477  87.489  0.00  0.00    +0.000 C 
BRANCH  51  52
ATOM     52  O   UNL     1      26.627  17.974  87.130  0.00  0.00    +0.000 OA
ATOM     53  H   UNL     1      27.183  18.140  87.914  0.00  0.00    +0.000 HD
ENDBRANCH  51  52
ENDBRANCH   9  51
TORSDOF 13
ENDMDL
