MODEL 1
REMARK VINA RESULT:      -6.2      0.000      0.000
REMARK  Name = 102471178_CandidaspongiolideCore.pdbqt.pdb
REMARK  13 active torsions:
REMARK  status: ('A' for Active; 'I' for Inactive)
REMARK    1  A    between atoms: C_6  and  C_39
REMARK    2  A    between atoms: C_8  and  O_27
REMARK    3  A    between atoms: C_8  and  C_51
REMARK    4  A    between atoms: C_10  and  O_29
REMARK    5  A    between atoms: C_15  and  O_31
REMARK    6  A    between atoms: C_16  and  O_33
REMARK    7  A    between atoms: C_21  and  O_35
REMARK    8  A    between atoms: O_35  and  C_37
REMARK    9  A    between atoms: C_39  and  C_41
REMARK   10  A    between atoms: C_39  and  O_49
REMARK   11  A    between atoms: C_42  and  C_44
REMARK   12  A    between atoms: C_44  and  C_46
REMARK   13  A    between atoms: C_51  and  O_52
REMARK                            x       y       z     vdW  Elec       q    Type
REMARK                         _______ _______ _______ _____ _____    ______ ____
ROOT
ATOM      1  O   UNL     1      43.983  26.899  87.256  0.00  0.00    +0.000 OA
ATOM      2  O   UNL     1      44.264  24.837  86.285  0.00  0.00    +0.000 OA
ATOM      3  O   UNL     1      46.723  20.775  84.908  0.00  0.00    +0.000 OA
ATOM      4  O   UNL     1      42.084  26.570  88.433  0.00  0.00    +0.000 OA
ATOM      5  O   UNL     1      40.938  24.035  86.277  0.00  0.00    +0.000 OA
ATOM      6  C   UNL     1      46.156  26.186  86.880  0.00  0.00    +0.000 C 
ATOM      7  C   UNL     1      47.104  25.667  85.955  0.00  0.00    +0.000 C 
ATOM      8  C   UNL     1      48.152  25.284  85.005  0.00  0.00    +0.000 C 
ATOM      9  C   UNL     1      44.707  25.871  86.770  0.00  0.00    +0.000 C 
ATOM     10  C   UNL     1      48.601  23.851  85.197  0.00  0.00    +0.000 C 
ATOM     11  C   UNL     1      47.725  22.762  85.455  0.00  0.00    +0.000 C 
ATOM     12  C   UNL     1      46.762  21.710  85.700  0.00  0.00    +0.000 C 
ATOM     13  C   UNL     1      42.659  26.679  87.356  0.00  0.00    +0.000 C 
ATOM     14  C   UNL     1      45.821  21.800  86.858  0.00  0.00    +0.000 C 
ATOM     15  C   UNL     1      41.869  26.890  86.117  0.00  0.00    +0.000 C 
ATOM     16  C   UNL     1      42.218  26.352  84.818  0.00  0.00    +0.000 C 
ATOM     17  C   UNL     1      41.824  25.046  84.307  0.00  0.00    +0.000 C 
ATOM     18  C   UNL     1      44.529  21.228  86.755  0.00  0.00    +0.000 C 
ATOM     19  C   UNL     1      42.402  22.653  85.022  0.00  0.00    +0.000 C 
ATOM     20  C   UNL     1      46.070  22.725  88.041  0.00  0.00    +0.000 C 
ATOM     21  C   UNL     1      42.268  21.578  85.999  0.00  0.00    +0.000 C 
ATOM     22  C   UNL     1      41.640  23.918  85.271  0.00  0.00    +0.000 C 
ATOM     23  C   UNL     1      43.333  20.761  86.564  0.00  0.00    +0.000 C 
ATOM     24  C   UNL     1      41.302  24.876  82.883  0.00  0.00    +0.000 C 
ATOM     25  C   UNL     1      43.507  22.570  83.978  0.00  0.00    +0.000 C 
ATOM     26  C   UNL     1      43.101  19.340  87.009  0.00  0.00    +0.000 C 
ENDROOT
BRANCH   8  27
ATOM     27  O   UNL     1      49.258  26.148  85.279  0.00  0.00    +0.000 OA
ATOM     28  H   UNL     1      49.887  25.973  84.551  0.00  0.00    +0.000 HD
ENDBRANCH   8  27
BRANCH  10  29
ATOM     29  O   UNL     1      49.956  23.593  85.059  0.00  0.00    +0.000 OA
ATOM     30  H   UNL     1      50.176  22.663  85.254  0.00  0.00    +0.000 HD
ENDBRANCH  10  29
BRANCH  15  31
ATOM     31  O   UNL     1      40.521  27.182  86.254  0.00  0.00    +0.000 OA
ATOM     32  H   UNL     1      39.979  26.380  86.093  0.00  0.00    +0.000 HD
ENDBRANCH  15  31
BRANCH  16  33
ATOM     33  O   UNL     1      42.502  27.296  83.847  0.00  0.00    +0.000 OA
ATOM     34  C   UNL     1      43.897  27.405  83.700  0.00  0.00    +0.000 C 
ENDBRANCH  16  33
BRANCH  21  35
ATOM     35  O   UNL     1      40.929  21.204  86.279  0.00  0.00    +0.000 OA
BRANCH  35  37
ATOM     36  O   UNL     1      39.374  21.421  84.545  0.00  0.00    +0.000 OA
ATOM     37  C   UNL     1      40.239  20.830  85.167  0.00  0.00    +0.000 C 
ATOM     38  C   UNL     1      40.634  19.510  84.610  0.00  0.00    +0.000 C 
ENDBRANCH  35  37
ENDBRANCH  21  35
BRANCH   6  39
ATOM     39  C   UNL     1      46.663  26.961  87.989  0.00  0.00    +0.000 C 
BRANCH  39  41
ATOM     40  O   UNL     1      48.431  25.268  88.701  0.00  0.00    +0.000 OA
ATOM     41  C   UNL     1      47.489  26.310  89.044  0.00  0.00    +0.000 C 
ATOM     42  C   UNL     1      48.917  26.537  88.844  0.00  0.00    +0.000 C 
ATOM     43  C   UNL     1      46.835  25.987  90.435  0.00  0.00    +0.000 C 
BRANCH  42  44
ATOM     44  C   UNL     1      49.857  26.767  89.899  0.00  0.00    +0.000 C 
ATOM     45  C   UNL     1      50.330  25.618  90.759  0.00  0.00    +0.000 C 
BRANCH  44  46
ATOM     46  C   UNL     1      50.695  27.910  89.880  0.00  0.00    +0.000 C 
ATOM     47  C   UNL     1      51.405  28.876  89.914  0.00  0.00    +0.000 C 
ATOM     48  C   UNL     1      52.324  30.100  90.026  0.00  0.00    +0.000 C 
ENDBRANCH  44  46
ENDBRANCH  42  44
ENDBRANCH  39  41
BRANCH  39  49
ATOM     49  O   UNL     1      46.286  28.293  88.046  0.00  0.00    +0.000 OA
ATOM     50  H   UNL     1      46.083  28.617  88.945  0.00  0.00    +0.000 HD
ENDBRANCH  39  49
ENDBRANCH   6  39
BRANCH   8  51
ATOM     51  C   UNL     1      47.743  25.510  83.610  0.00  0.00    +0.000 C 
BRANCH  51  52
ATOM     52  O   UNL     1      47.407  25.739  82.339  0.00  0.00    +0.000 OA
ATOM     53  H   UNL     1      48.191  25.687  81.756  0.00  0.00    +0.000 HD
ENDBRANCH  51  52
ENDBRANCH   8  51
TORSDOF 13
ENDMDL
MODEL 2
REMARK VINA RESULT:      -6.0      2.700      5.692
REMARK  Name = 102471178_CandidaspongiolideCore.pdbqt.pdb
REMARK  13 active torsions:
REMARK  status: ('A' for Active; 'I' for Inactive)
REMARK    1  A    between atoms: C_6  and  C_39
REMARK    2  A    between atoms: C_8  and  O_27
REMARK    3  A    between atoms: C_8  and  C_51
REMARK    4  A    between atoms: C_10  and  O_29
REMARK    5  A    between atoms: C_15  and  O_31
REMARK    6  A    between atoms: C_16  and  O_33
REMARK    7  A    between atoms: C_21  and  O_35
REMARK    8  A    between atoms: O_35  and  C_37
REMARK    9  A    between atoms: C_39  and  C_41
REMARK   10  A    between atoms: C_39  and  O_49
REMARK   11  A    between atoms: C_42  and  C_44
REMARK   12  A    between atoms: C_44  and  C_46
REMARK   13  A    between atoms: C_51  and  O_52
REMARK                            x       y       z     vdW  Elec       q    Type
REMARK                         _______ _______ _______ _____ _____    ______ ____
ROOT
ATOM      1  O   UNL     1      45.817  23.551  87.629  0.00  0.00    +0.000 OA
ATOM      2  O   UNL     1      43.980  23.578  86.251  0.00  0.00    +0.000 OA
ATOM      3  O   UNL     1      41.178  25.080  82.465  0.00  0.00    +0.000 OA
ATOM      4  O   UNL     1      46.243  21.337  87.744  0.00  0.00    +0.000 OA
ATOM      5  O   UNL     1      42.898  20.447  87.107  0.00  0.00    +0.000 OA
ATOM      6  C   UNL     1      45.555  25.386  86.237  0.00  0.00    +0.000 C 
ATOM      7  C   UNL     1      44.703  26.426  85.772  0.00  0.00    +0.000 C 
ATOM      8  C   UNL     1      43.922  27.602  85.379  0.00  0.00    +0.000 C 
ATOM      9  C   UNL     1      45.014  24.075  86.680  0.00  0.00    +0.000 C 
ATOM     10  C   UNL     1      43.412  27.500  83.958  0.00  0.00    +0.000 C 
ATOM     11  C   UNL     1      42.877  26.318  83.379  0.00  0.00    +0.000 C 
ATOM     12  C   UNL     1      42.334  25.074  82.873  0.00  0.00    +0.000 C 
ATOM     13  C   UNL     1      45.524  22.293  88.008  0.00  0.00    +0.000 C 
ATOM     14  C   UNL     1      43.153  23.824  82.899  0.00  0.00    +0.000 C 
ATOM     15  C   UNL     1      44.457  22.154  89.030  0.00  0.00    +0.000 C 
ATOM     16  C   UNL     1      43.168  22.813  88.969  0.00  0.00    +0.000 C 
ATOM     17  C   UNL     1      41.978  22.290  88.310  0.00  0.00    +0.000 C 
ATOM     18  C   UNL     1      42.513  22.572  83.064  0.00  0.00    +0.000 C 
ATOM     19  C   UNL     1      41.417  21.815  85.854  0.00  0.00    +0.000 C 
ATOM     20  C   UNL     1      44.668  23.846  83.048  0.00  0.00    +0.000 C 
ATOM     21  C   UNL     1      41.630  21.000  84.663  0.00  0.00    +0.000 C 
ATOM     22  C   UNL     1      42.142  21.421  87.105  0.00  0.00    +0.000 C 
ATOM     23  C   UNL     1      41.874  21.469  83.306  0.00  0.00    +0.000 C 
ATOM     24  C   UNL     1      40.611  22.346  88.984  0.00  0.00    +0.000 C 
ATOM     25  C   UNL     1      40.728  23.165  85.714  0.00  0.00    +0.000 C 
ATOM     26  C   UNL     1      41.445  20.677  82.098  0.00  0.00    +0.000 C 
ENDROOT
BRANCH   8  27
ATOM     27  O   UNL     1      44.822  28.710  85.461  0.00  0.00    +0.000 OA
ATOM     28  H   UNL     1      44.237  29.491  85.527  0.00  0.00    +0.000 HD
ENDBRANCH   8  27
BRANCH  10  29
ATOM     29  O   UNL     1      43.427  28.660  83.200  0.00  0.00    +0.000 OA
ATOM     30  H   UNL     1      44.328  28.905  82.919  0.00  0.00    +0.000 HD
ENDBRANCH  10  29
BRANCH  15  31
ATOM     31  O   UNL     1      44.460  21.010  89.812  0.00  0.00    +0.000 OA
ATOM     32  H   UNL     1      43.845  21.111  90.570  0.00  0.00    +0.000 HD
ENDBRANCH  15  31
BRANCH  16  33
ATOM     33  O   UNL     1      42.921  23.718  89.986  0.00  0.00    +0.000 OA
ATOM     34  C   UNL     1      43.000  25.025  89.474  0.00  0.00    +0.000 C 
ENDBRANCH  16  33
BRANCH  21  35
ATOM     35  O   UNL     1      41.401  19.614  84.854  0.00  0.00    +0.000 OA
BRANCH  35  37
ATOM     36  O   UNL     1      39.086  19.613  84.519  0.00  0.00    +0.000 OA
ATOM     37  C   UNL     1      40.100  19.324  85.129  0.00  0.00    +0.000 C 
ATOM     38  C   UNL     1      39.896  18.493  86.345  0.00  0.00    +0.000 C 
ENDBRANCH  35  37
ENDBRANCH  21  35
BRANCH   6  39
ATOM     39  C   UNL     1      46.981  25.618  86.180  0.00  0.00    +0.000 C 
BRANCH  39  41
ATOM     40  O   UNL     1      49.221  24.776  85.299  0.00  0.00    +0.000 OA
ATOM     41  C   UNL     1      47.802  24.983  85.112  0.00  0.00    +0.000 C 
ATOM     42  C   UNL     1      48.390  23.719  85.545  0.00  0.00    +0.000 C 
ATOM     43  C   UNL     1      47.522  25.355  83.612  0.00  0.00    +0.000 C 
BRANCH  42  44
ATOM     44  C   UNL     1      48.531  22.564  84.712  0.00  0.00    +0.000 C 
ATOM     45  C   UNL     1      49.886  21.920  84.529  0.00  0.00    +0.000 C 
BRANCH  44  46
ATOM     46  C   UNL     1      47.413  21.739  84.429  0.00  0.00    +0.000 C 
ATOM     47  C   UNL     1      46.478  21.045  84.142  0.00  0.00    +0.000 C 
ATOM     48  C   UNL     1      45.307  20.155  83.707  0.00  0.00    +0.000 C 
ENDBRANCH  44  46
ENDBRANCH  42  44
ENDBRANCH  39  41
BRANCH  39  49
ATOM     49  O   UNL     1      47.532  26.386  87.193  0.00  0.00    +0.000 OA
ATOM     50  H   UNL     1      47.697  25.901  88.024  0.00  0.00    +0.000 HD
ENDBRANCH  39  49
ENDBRANCH   6  39
BRANCH   8  51
ATOM     51  C   UNL     1      42.808  27.860  86.306  0.00  0.00    +0.000 C 
BRANCH  51  52
ATOM     52  O   UNL     1      41.800  28.136  87.134  0.00  0.00    +0.000 OA
ATOM     53  H   UNL     1      42.065  27.998  88.066  0.00  0.00    +0.000 HD
ENDBRANCH  51  52
ENDBRANCH   8  51
TORSDOF 13
ENDMDL
MODEL 3
REMARK VINA RESULT:      -5.9      2.525      4.615
REMARK  Name = 102471178_CandidaspongiolideCore.pdbqt.pdb
REMARK  13 active torsions:
REMARK  status: ('A' for Active; 'I' for Inactive)
REMARK    1  A    between atoms: C_6  and  C_39
REMARK    2  A    between atoms: C_8  and  O_27
REMARK    3  A    between atoms: C_8  and  C_51
REMARK    4  A    between atoms: C_10  and  O_29
REMARK    5  A    between atoms: C_15  and  O_31
REMARK    6  A    between atoms: C_16  and  O_33
REMARK    7  A    between atoms: C_21  and  O_35
REMARK    8  A    between atoms: O_35  and  C_37
REMARK    9  A    between atoms: C_39  and  C_41
REMARK   10  A    between atoms: C_39  and  O_49
REMARK   11  A    between atoms: C_42  and  C_44
REMARK   12  A    between atoms: C_44  and  C_46
REMARK   13  A    between atoms: C_51  and  O_52
REMARK                            x       y       z     vdW  Elec       q    Type
REMARK                         _______ _______ _______ _____ _____    ______ ____
ROOT
ATOM      1  O   UNL     1      44.247  25.334  88.966  0.00  0.00    +0.000 OA
ATOM      2  O   UNL     1      44.488  24.511  86.835  0.00  0.00    +0.000 OA
ATOM      3  O   UNL     1      46.463  21.751  83.240  0.00  0.00    +0.000 OA
ATOM      4  O   UNL     1      42.014  25.161  89.249  0.00  0.00    +0.000 OA
ATOM      5  O   UNL     1      41.346  25.390  85.801  0.00  0.00    +0.000 OA
ATOM      6  C   UNL     1      46.212  24.207  88.474  0.00  0.00    +0.000 C 
ATOM      7  C   UNL     1      47.330  24.070  87.604  0.00  0.00    +0.000 C 
ATOM      8  C   UNL     1      48.573  23.994  86.832  0.00  0.00    +0.000 C 
ATOM      9  C   UNL     1      44.893  24.680  87.978  0.00  0.00    +0.000 C 
ATOM     10  C   UNL     1      48.626  22.761  85.955  0.00  0.00    +0.000 C 
ATOM     11  C   UNL     1      47.529  22.261  85.204  0.00  0.00    +0.000 C 
ATOM     12  C   UNL     1      46.364  21.829  84.460  0.00  0.00    +0.000 C 
ATOM     13  C   UNL     1      42.975  25.681  88.696  0.00  0.00    +0.000 C 
ATOM     14  C   UNL     1      45.080  21.538  85.166  0.00  0.00    +0.000 C 
ATOM     15  C   UNL     1      42.793  26.941  87.932  0.00  0.00    +0.000 C 
ATOM     16  C   UNL     1      43.516  27.282  86.724  0.00  0.00    +0.000 C 
ATOM     17  C   UNL     1      43.113  26.933  85.368  0.00  0.00    +0.000 C 
ATOM     18  C   UNL     1      43.850  21.775  84.505  0.00  0.00    +0.000 C 
ATOM     19  C   UNL     1      42.893  24.693  84.141  0.00  0.00    +0.000 C 
ATOM     20  C   UNL     1      45.016  21.271  86.663  0.00  0.00    +0.000 C 
ATOM     21  C   UNL     1      42.182  23.430  83.971  0.00  0.00    +0.000 C 
ATOM     22  C   UNL     1      42.352  25.666  85.143  0.00  0.00    +0.000 C 
ATOM     23  C   UNL     1      42.761  22.097  83.877  0.00  0.00    +0.000 C 
ATOM     24  C   UNL     1      43.172  27.955  84.236  0.00  0.00    +0.000 C 
ATOM     25  C   UNL     1      44.282  24.847  83.536  0.00  0.00    +0.000 C 
ATOM     26  C   UNL     1      42.105  20.995  83.087  0.00  0.00    +0.000 C 
ENDROOT
BRANCH   8  27
ATOM     27  O   UNL     1      49.624  23.912  87.797  0.00  0.00    +0.000 OA
ATOM     28  H   UNL     1      49.663  22.964  88.033  0.00  0.00    +0.000 HD
ENDBRANCH   8  27
BRANCH  10  29
ATOM     29  O   UNL     1      49.849  22.118  85.851  0.00  0.00    +0.000 OA
ATOM     30  H   UNL     1      50.516  22.664  85.395  0.00  0.00    +0.000 HD
ENDBRANCH  10  29
BRANCH  15  31
ATOM     31  O   UNL     1      41.583  27.605  88.062  0.00  0.00    +0.000 OA
ATOM     32  H   UNL     1      41.018  27.444  87.277  0.00  0.00    +0.000 HD
ENDBRANCH  15  31
BRANCH  16  33
ATOM     33  O   UNL     1      44.334  28.393  86.821  0.00  0.00    +0.000 OA
ATOM     34  C   UNL     1      45.678  27.978  86.864  0.00  0.00    +0.000 C 
ENDBRANCH  16  33
BRANCH  21  35
ATOM     35  O   UNL     1      40.796  23.570  83.704  0.00  0.00    +0.000 OA
BRANCH  35  37
ATOM     36  O   UNL     1      41.032  24.905  81.797  0.00  0.00    +0.000 OA
ATOM     37  C   UNL     1      40.540  23.991  82.434  0.00  0.00    +0.000 C 
ATOM     38  C   UNL     1      39.528  23.181  81.707  0.00  0.00    +0.000 C 
ENDBRANCH  35  37
ENDBRANCH  21  35
BRANCH   6  39
ATOM     39  C   UNL     1      46.380  23.784  89.845  0.00  0.00    +0.000 C 
BRANCH  39  41
ATOM     40  O   UNL     1      45.420  22.263  91.653  0.00  0.00    +0.000 OA
ATOM     41  C   UNL     1      45.862  22.460  90.290  0.00  0.00    +0.000 C 
ATOM     42  C   UNL     1      44.465  22.528  90.712  0.00  0.00    +0.000 C 
ATOM     43  C   UNL     1      46.563  21.153  89.774  0.00  0.00    +0.000 C 
BRANCH  42  44
ATOM     44  C   UNL     1      43.492  21.510  90.457  0.00  0.00    +0.000 C 
ATOM     45  C   UNL     1      43.072  20.566  91.561  0.00  0.00    +0.000 C 
BRANCH  44  46
ATOM     46  C   UNL     1      42.585  21.635  89.375  0.00  0.00    +0.000 C 
ATOM     47  C   UNL     1      41.856  21.742  88.428  0.00  0.00    +0.000 C 
ATOM     48  C   UNL     1      40.981  21.866  87.175  0.00  0.00    +0.000 C 
ENDBRANCH  44  46
ENDBRANCH  42  44
ENDBRANCH  39  41
BRANCH  39  49
ATOM     49  O   UNL     1      46.972  24.687  90.712  0.00  0.00    +0.000 OA
ATOM     50  H   UNL     1      47.891  24.468  90.958  0.00  0.00    +0.000 HD
ENDBRANCH  39  49
ENDBRANCH   6  39
BRANCH   8  51
ATOM     51  C   UNL     1      48.797  25.205  86.026  0.00  0.00    +0.000 C 
BRANCH  51  52
ATOM     52  O   UNL     1      48.965  26.292  85.272  0.00  0.00    +0.000 OA
ATOM     53  H   UNL     1      49.911  26.429  85.062  0.00  0.00    +0.000 HD
ENDBRANCH  51  52
ENDBRANCH   8  51
TORSDOF 13
ENDMDL
MODEL 4
REMARK VINA RESULT:      -5.8      2.642      7.407
REMARK  Name = 102471178_CandidaspongiolideCore.pdbqt.pdb
REMARK  13 active torsions:
REMARK  status: ('A' for Active; 'I' for Inactive)
REMARK    1  A    between atoms: C_6  and  C_39
REMARK    2  A    between atoms: C_8  and  O_27
REMARK    3  A    between atoms: C_8  and  C_51
REMARK    4  A    between atoms: C_10  and  O_29
REMARK    5  A    between atoms: C_15  and  O_31
REMARK    6  A    between atoms: C_16  and  O_33
REMARK    7  A    between atoms: C_21  and  O_35
REMARK    8  A    between atoms: O_35  and  C_37
REMARK    9  A    between atoms: C_39  and  C_41
REMARK   10  A    between atoms: C_39  and  O_49
REMARK   11  A    between atoms: C_42  and  C_44
REMARK   12  A    between atoms: C_44  and  C_46
REMARK   13  A    between atoms: C_51  and  O_52
REMARK                            x       y       z     vdW  Elec       q    Type
REMARK                         _______ _______ _______ _____ _____    ______ ____
ROOT
ATOM      1  O   UNL     1      47.122  25.697  85.186  0.00  0.00    +0.000 OA
ATOM      2  O   UNL     1      46.331  24.655  87.074  0.00  0.00    +0.000 OA
ATOM      3  O   UNL     1      43.113  23.676  90.697  0.00  0.00    +0.000 OA
ATOM      4  O   UNL     1      47.846  23.928  83.984  0.00  0.00    +0.000 OA
ATOM      5  O   UNL     1      48.418  21.954  86.842  0.00  0.00    +0.000 OA
ATOM      6  C   UNL     1      45.319  26.674  86.267  0.00  0.00    +0.000 C 
ATOM      7  C   UNL     1      44.772  27.158  87.487  0.00  0.00    +0.000 C 
ATOM      8  C   UNL     1      44.227  27.809  88.682  0.00  0.00    +0.000 C 
ATOM      9  C   UNL     1      46.293  25.551  86.240  0.00  0.00    +0.000 C 
ATOM     10  C   UNL     1      43.101  27.012  89.303  0.00  0.00    +0.000 C 
ATOM     11  C   UNL     1      43.101  25.599  89.450  0.00  0.00    +0.000 C 
ATOM     12  C   UNL     1      43.190  24.159  89.573  0.00  0.00    +0.000 C 
ATOM     13  C   UNL     1      47.955  24.665  84.957  0.00  0.00    +0.000 C 
ATOM     14  C   UNL     1      43.415  23.309  88.365  0.00  0.00    +0.000 C 
ATOM     15  C   UNL     1      49.203  24.647  85.760  0.00  0.00    +0.000 C 
ATOM     16  C   UNL     1      49.261  24.835  87.195  0.00  0.00    +0.000 C 
ATOM     17  C   UNL     1      49.139  23.781  88.194  0.00  0.00    +0.000 C 
ATOM     18  C   UNL     1      44.142  22.100  88.487  0.00  0.00    +0.000 C 
ATOM     19  C   UNL     1      47.208  22.235  88.864  0.00  0.00    +0.000 C 
ATOM     20  C   UNL     1      43.155  23.815  86.952  0.00  0.00    +0.000 C 
ATOM     21  C   UNL     1      46.339  21.111  88.531  0.00  0.00    +0.000 C 
ATOM     22  C   UNL     1      48.289  22.591  87.889  0.00  0.00    +0.000 C 
ATOM     23  C   UNL     1      44.889  21.051  88.651  0.00  0.00    +0.000 C 
ATOM     24  C   UNL     1      50.084  23.711  89.390  0.00  0.00    +0.000 C 
ATOM     25  C   UNL     1      46.812  23.164  90.003  0.00  0.00    +0.000 C 
ATOM     26  C   UNL     1      44.162  19.759  88.922  0.00  0.00    +0.000 C 
ENDROOT
BRANCH   8  27
ATOM     27  O   UNL     1      43.707  29.063  88.236  0.00  0.00    +0.000 OA
ATOM     28  H   UNL     1      42.746  28.905  88.140  0.00  0.00    +0.000 HD
ENDBRANCH   8  27
BRANCH  10  29
ATOM     29  O   UNL     1      42.026  27.730  89.804  0.00  0.00    +0.000 OA
ATOM     30  H   UNL     1      41.922  27.617  90.767  0.00  0.00    +0.000 HD
ENDBRANCH  10  29
BRANCH  15  31
ATOM     31  O   UNL     1      50.291  23.958  85.245  0.00  0.00    +0.000 OA
ATOM     32  H   UNL     1      51.044  23.989  85.873  0.00  0.00    +0.000 HD
ENDBRANCH  15  31
BRANCH  16  33
ATOM     33  O   UNL     1      49.950  25.959  87.615  0.00  0.00    +0.000 OA
ATOM     34  C   UNL     1      49.073  26.808  88.313  0.00  0.00    +0.000 C 
ENDBRANCH  16  33
BRANCH  21  35
ATOM     35  O   UNL     1      47.028  19.910  88.222  0.00  0.00    +0.000 OA
BRANCH  35  37
ATOM     36  O   UNL     1      47.311  19.117  90.404  0.00  0.00    +0.000 OA
ATOM     37  C   UNL     1      47.704  19.396  89.286  0.00  0.00    +0.000 C 
ATOM     38  C   UNL     1      49.136  19.100  89.022  0.00  0.00    +0.000 C 
ENDBRANCH  35  37
ENDBRANCH  21  35
BRANCH   6  39
ATOM     39  C   UNL     1      44.826  27.257  85.039  0.00  0.00    +0.000 C 
BRANCH  39  41
ATOM     40  O   UNL     1      43.423  26.861  82.947  0.00  0.00    +0.000 OA
ATOM     41  C   UNL     1      43.624  26.687  84.369  0.00  0.00    +0.000 C 
ATOM     42  C   UNL     1      43.974  25.684  83.367  0.00  0.00    +0.000 C 
ATOM     43  C   UNL     1      42.238  26.750  85.104  0.00  0.00    +0.000 C 
BRANCH  42  44
ATOM     44  C   UNL     1      43.230  24.485  83.127  0.00  0.00    +0.000 C 
ATOM     45  C   UNL     1      42.144  24.464  82.077  0.00  0.00    +0.000 C 
BRANCH  44  46
ATOM     46  C   UNL     1      43.761  23.222  83.492  0.00  0.00    +0.000 C 
ATOM     47  C   UNL     1      44.170  22.146  83.828  0.00  0.00    +0.000 C 
ATOM     48  C   UNL     1      44.629  20.756  84.288  0.00  0.00    +0.000 C 
ENDBRANCH  44  46
ENDBRANCH  42  44
ENDBRANCH  39  41
BRANCH  39  49
ATOM     49  O   UNL     1      45.560  28.302  84.503  0.00  0.00    +0.000 OA
ATOM     50  H   UNL     1      46.489  28.339  84.801  0.00  0.00    +0.000 HD
ENDBRANCH  39  49
ENDBRANCH   6  39
BRANCH   8  51
ATOM     51  C   UNL     1      45.271  28.087  89.683  0.00  0.00    +0.000 C 
BRANCH  51  52
ATOM     52  O   UNL     1      46.185  28.356  90.616  0.00  0.00    +0.000 OA
ATOM     53  H   UNL     1      45.779  28.379  91.506  0.00  0.00    +0.000 HD
ENDBRANCH  51  52
ENDBRANCH   8  51
TORSDOF 13
ENDMDL
MODEL 5
REMARK VINA RESULT:      -5.6     21.944     26.344
REMARK  Name = 102471178_CandidaspongiolideCore.pdbqt.pdb
REMARK  13 active torsions:
REMARK  status: ('A' for Active; 'I' for Inactive)
REMARK    1  A    between atoms: C_6  and  C_39
REMARK    2  A    between atoms: C_8  and  O_27
REMARK    3  A    between atoms: C_8  and  C_51
REMARK    4  A    between atoms: C_10  and  O_29
REMARK    5  A    between atoms: C_15  and  O_31
REMARK    6  A    between atoms: C_16  and  O_33
REMARK    7  A    between atoms: C_21  and  O_35
REMARK    8  A    between atoms: O_35  and  C_37
REMARK    9  A    between atoms: C_39  and  C_41
REMARK   10  A    between atoms: C_39  and  O_49
REMARK   11  A    between atoms: C_42  and  C_44
REMARK   12  A    between atoms: C_44  and  C_46
REMARK   13  A    between atoms: C_51  and  O_52
REMARK                            x       y       z     vdW  Elec       q    Type
REMARK                         _______ _______ _______ _____ _____    ______ ____
ROOT
ATOM      1  O   UNL     1      18.284  17.925  89.825  0.00  0.00    +0.000 OA
ATOM      2  O   UNL     1      19.717  18.914  88.328  0.00  0.00    +0.000 OA
ATOM      3  O   UNL     1      22.542  22.517  86.463  0.00  0.00    +0.000 OA
ATOM      4  O   UNL     1      19.283  15.922  90.124  0.00  0.00    +0.000 OA
ATOM      5  O   UNL     1      20.818  15.978  86.958  0.00  0.00    +0.000 OA
ATOM      6  C   UNL     1      18.527  20.227  89.944  0.00  0.00    +0.000 C 
ATOM      7  C   UNL     1      18.506  21.472  89.255  0.00  0.00    +0.000 C 
ATOM      8  C   UNL     1      18.343  22.784  88.625  0.00  0.00    +0.000 C 
ATOM      9  C   UNL     1      18.932  18.967  89.266  0.00  0.00    +0.000 C 
ATOM     10  C   UNL     1      19.666  23.491  88.425  0.00  0.00    +0.000 C 
ATOM     11  C   UNL     1      20.856  22.858  87.978  0.00  0.00    +0.000 C 
ATOM     12  C   UNL     1      22.018  22.136  87.504  0.00  0.00    +0.000 C 
ATOM     13  C   UNL     1      18.675  16.707  89.406  0.00  0.00    +0.000 C 
ATOM     14  C   UNL     1      22.522  20.940  88.246  0.00  0.00    +0.000 C 
ATOM     15  C   UNL     1      18.065  16.228  88.140  0.00  0.00    +0.000 C 
ATOM     16  C   UNL     1      17.977  17.008  86.923  0.00  0.00    +0.000 C 
ATOM     17  C   UNL     1      18.992  17.072  85.881  0.00  0.00    +0.000 C 
ATOM     18  C   UNL     1      23.143  19.886  87.533  0.00  0.00    +0.000 C 
ATOM     19  C   UNL     1      21.384  17.993  85.837  0.00  0.00    +0.000 C 
ATOM     20  C   UNL     1      22.143  20.661  89.694  0.00  0.00    +0.000 C 
ATOM     21  C   UNL     1      22.774  17.871  86.265  0.00  0.00    +0.000 C 
ATOM     22  C   UNL     1      20.430  16.919  86.262  0.00  0.00    +0.000 C 
ATOM     23  C   UNL     1      23.623  18.920  86.812  0.00  0.00    +0.000 C 
ATOM     24  C   UNL     1      18.619  16.979  84.404  0.00  0.00    +0.000 C 
ATOM     25  C   UNL     1      20.904  19.313  85.250  0.00  0.00    +0.000 C 
ATOM     26  C   UNL     1      25.118  18.921  86.618  0.00  0.00    +0.000 C 
ENDROOT
BRANCH   8  27
ATOM     27  O   UNL     1      17.548  23.552  89.532  0.00  0.00    +0.000 OA
ATOM     28  H   UNL     1      17.776  24.481  89.326  0.00  0.00    +0.000 HD
ENDBRANCH   8  27
BRANCH  10  29
ATOM     29  O   UNL     1      19.687  24.859  88.650  0.00  0.00    +0.000 OA
ATOM     30  H   UNL     1      18.939  25.315  88.223  0.00  0.00    +0.000 HD
ENDBRANCH  10  29
BRANCH  15  31
ATOM     31  O   UNL     1      18.011  14.859  87.929  0.00  0.00    +0.000 OA
ATOM     32  H   UNL     1      17.792  14.666  86.992  0.00  0.00    +0.000 HD
ENDBRANCH  15  31
BRANCH  16  33
ATOM     33  O   UNL     1      16.691  17.300  86.503  0.00  0.00    +0.000 OA
ATOM     34  C   UNL     1      16.427  18.663  86.726  0.00  0.00    +0.000 C 
ENDBRANCH  16  33
BRANCH  21  35
ATOM     35  O   UNL     1      23.379  16.630  85.943  0.00  0.00    +0.000 OA
BRANCH  35  37
ATOM     36  O   UNL     1      23.591  15.982  88.181  0.00  0.00    +0.000 OA
ATOM     37  C   UNL     1      23.954  16.024  87.019  0.00  0.00    +0.000 C 
ATOM     38  C   UNL     1      25.197  15.270  86.711  0.00  0.00    +0.000 C 
ENDBRANCH  35  37
ENDBRANCH  21  35
BRANCH   6  39
ATOM     39  C   UNL     1      18.224  20.243  91.357  0.00  0.00    +0.000 C 
BRANCH  39  41
ATOM     40  O   UNL     1      19.088  20.045  93.747  0.00  0.00    +0.000 OA
ATOM     41  C   UNL     1      19.321  20.369  92.357  0.00  0.00    +0.000 C 
ATOM     42  C   UNL     1      19.664  19.085  92.963  0.00  0.00    +0.000 C 
ATOM     43  C   UNL     1      20.305  21.588  92.262  0.00  0.00    +0.000 C 
BRANCH  42  44
ATOM     44  C   UNL     1      20.995  18.676  93.294  0.00  0.00    +0.000 C 
ATOM     45  C   UNL     1      21.600  19.061  94.624  0.00  0.00    +0.000 C 
BRANCH  44  46
ATOM     46  C   UNL     1      21.588  17.564  92.644  0.00  0.00    +0.000 C 
ATOM     47  C   UNL     1      22.099  16.652  92.056  0.00  0.00    +0.000 C 
ATOM     48  C   UNL     1      22.776  15.533  91.254  0.00  0.00    +0.000 C 
ENDBRANCH  44  46
ENDBRANCH  42  44
ENDBRANCH  39  41
BRANCH  39  49
ATOM     49  O   UNL     1      16.898  20.069  91.716  0.00  0.00    +0.000 OA
ATOM     50  H   UNL     1      16.387  19.499  91.110  0.00  0.00    +0.000 HD
ENDBRANCH  39  49
ENDBRANCH   6  39
BRANCH   8  51
ATOM     51  C   UNL     1      17.611  22.698  87.351  0.00  0.00    +0.000 C 
BRANCH  51  52
ATOM     52  O   UNL     1      16.969  22.582  86.188  0.00  0.00    +0.000 OA
ATOM     53  H   UNL     1      16.071  22.967  86.244  0.00  0.00    +0.000 HD
ENDBRANCH  51  52
ENDBRANCH   8  51
TORSDOF 13
ENDMDL
MODEL 6
REMARK VINA RESULT:      -5.6      2.683      4.952
REMARK  Name = 102471178_CandidaspongiolideCore.pdbqt.pdb
REMARK  13 active torsions:
REMARK  status: ('A' for Active; 'I' for Inactive)
REMARK    1  A    between atoms: C_6  and  C_39
REMARK    2  A    between atoms: C_8  and  O_27
REMARK    3  A    between atoms: C_8  and  C_51
REMARK    4  A    between atoms: C_10  and  O_29
REMARK    5  A    between atoms: C_15  and  O_31
REMARK    6  A    between atoms: C_16  and  O_33
REMARK    7  A    between atoms: C_21  and  O_35
REMARK    8  A    between atoms: O_35  and  C_37
REMARK    9  A    between atoms: C_39  and  C_41
REMARK   10  A    between atoms: C_39  and  O_49
REMARK   11  A    between atoms: C_42  and  C_44
REMARK   12  A    between atoms: C_44  and  C_46
REMARK   13  A    between atoms: C_51  and  O_52
REMARK                            x       y       z     vdW  Elec       q    Type
REMARK                         _______ _______ _______ _____ _____    ______ ____
ROOT
ATOM      1  O   UNL     1      43.589  24.395  82.788  0.00  0.00    +0.000 OA
ATOM      2  O   UNL     1      42.891  22.700  84.172  0.00  0.00    +0.000 OA
ATOM      3  O   UNL     1      43.391  19.017  87.432  0.00  0.00    +0.000 OA
ATOM      4  O   UNL     1      42.139  26.034  83.343  0.00  0.00    +0.000 OA
ATOM      5  O   UNL     1      39.648  23.772  84.374  0.00  0.00    +0.000 OA
ATOM      6  C   UNL     1      45.199  22.915  83.556  0.00  0.00    +0.000 C 
ATOM      7  C   UNL     1      45.604  21.560  83.715  0.00  0.00    +0.000 C 
ATOM      8  C   UNL     1      46.133  20.195  83.761  0.00  0.00    +0.000 C 
ATOM      9  C   UNL     1      43.765  23.306  83.564  0.00  0.00    +0.000 C 
ATOM     10  C   UNL     1      46.141  19.631  85.165  0.00  0.00    +0.000 C 
ATOM     11  C   UNL     1      45.088  19.800  86.105  0.00  0.00    +0.000 C 
ATOM     12  C   UNL     1      43.964  20.008  86.993  0.00  0.00    +0.000 C 
ATOM     13  C   UNL     1      42.360  24.944  82.830  0.00  0.00    +0.000 C 
ATOM     14  C   UNL     1      43.502  21.392  87.318  0.00  0.00    +0.000 C 
ATOM     15  C   UNL     1      41.340  24.322  81.950  0.00  0.00    +0.000 C 
ATOM     16  C   UNL     1      41.086  22.899  81.862  0.00  0.00    +0.000 C 
ATOM     17  C   UNL     1      40.162  22.149  82.703  0.00  0.00    +0.000 C 
ATOM     18  C   UNL     1      42.129  21.627  87.576  0.00  0.00    +0.000 C 
ATOM     19  C   UNL     1      40.141  21.605  85.209  0.00  0.00    +0.000 C 
ATOM     20  C   UNL     1      44.380  22.616  87.101  0.00  0.00    +0.000 C 
ATOM     21  C   UNL     1      39.979  22.069  86.582  0.00  0.00    +0.000 C 
ATOM     22  C   UNL     1      39.934  22.602  84.109  0.00  0.00    +0.000 C 
ATOM     23  C   UNL     1      40.849  21.790  87.716  0.00  0.00    +0.000 C 
ATOM     24  C   UNL     1      39.205  21.121  82.107  0.00  0.00    +0.000 C 
ATOM     25  C   UNL     1      40.788  20.250  84.956  0.00  0.00    +0.000 C 
ATOM     26  C   UNL     1      40.327  21.722  89.128  0.00  0.00    +0.000 C 
ENDROOT
BRANCH   8  27
ATOM     27  O   UNL     1      47.483  20.288  83.300  0.00  0.00    +0.000 OA
ATOM     28  H   UNL     1      47.401  20.579  82.370  0.00  0.00    +0.000 HD
ENDBRANCH   8  27
BRANCH  10  29
ATOM     29  O   UNL     1      47.233  18.859  85.526  0.00  0.00    +0.000 OA
ATOM     30  H   UNL     1      47.781  19.290  86.209  0.00  0.00    +0.000 HD
ENDBRANCH  10  29
BRANCH  15  31
ATOM     31  O   UNL     1      40.263  25.104  81.560  0.00  0.00    +0.000 OA
ATOM     32  H   UNL     1      39.627  25.205  82.299  0.00  0.00    +0.000 HD
ENDBRANCH  15  31
BRANCH  16  33
ATOM     33  O   UNL     1      41.344  22.330  80.628  0.00  0.00    +0.000 OA
ATOM     34  C   UNL     1      41.616  23.346  79.695  0.00  0.00    +0.000 C 
ENDBRANCH  16  33
BRANCH  21  35
ATOM     35  O   UNL     1      38.744  22.716  86.840  0.00  0.00    +0.000 OA
BRANCH  35  37
ATOM     36  O   UNL     1      37.479  20.798  87.284  0.00  0.00    +0.000 OA
ATOM     37  C   UNL     1      37.676  21.876  86.751  0.00  0.00    +0.000 C 
ATOM     38  C   UNL     1      36.567  22.376  85.898  0.00  0.00    +0.000 C 
ENDBRANCH  35  37
ENDBRANCH  21  35
BRANCH   6  39
ATOM     39  C   UNL     1      46.239  23.915  83.474  0.00  0.00    +0.000 C 
BRANCH  39  41
ATOM     40  O   UNL     1      47.776  25.540  84.698  0.00  0.00    +0.000 OA
ATOM     41  C   UNL     1      46.969  24.340  84.701  0.00  0.00    +0.000 C 
ATOM     42  C   UNL     1      46.508  25.633  85.197  0.00  0.00    +0.000 C 
ATOM     43  C   UNL     1      47.658  23.249  85.596  0.00  0.00    +0.000 C 
BRANCH  42  44
ATOM     44  C   UNL     1      46.368  25.966  86.582  0.00  0.00    +0.000 C 
ATOM     45  C   UNL     1      47.518  26.601  87.330  0.00  0.00    +0.000 C 
BRANCH  44  46
ATOM     46  C   UNL     1      45.083  26.151  87.153  0.00  0.00    +0.000 C 
ATOM     47  C   UNL     1      44.003  26.356  87.632  0.00  0.00    +0.000 C 
ATOM     48  C   UNL     1      42.628  26.687  88.226  0.00  0.00    +0.000 C 
ENDBRANCH  44  46
ENDBRANCH  42  44
ENDBRANCH  39  41
BRANCH  39  49
ATOM     49  O   UNL     1      46.460  24.489  82.233  0.00  0.00    +0.000 OA
ATOM     50  H   UNL     1      45.743  25.076  81.925  0.00  0.00    +0.000 HD
ENDBRANCH  39  49
ENDBRANCH   6  39
BRANCH   8  51
ATOM     51  C   UNL     1      45.410  19.292  82.850  0.00  0.00    +0.000 C 
BRANCH  51  52
ATOM     52  O   UNL     1      44.751  18.507  81.997  0.00  0.00    +0.000 OA
ATOM     53  H   UNL     1      44.925  18.773  81.072  0.00  0.00    +0.000 HD
ENDBRANCH  51  52
ENDBRANCH   8  51
TORSDOF 13
ENDMDL
MODEL 7
REMARK VINA RESULT:      -5.6      2.089      7.844
REMARK  Name = 102471178_CandidaspongiolideCore.pdbqt.pdb
REMARK  13 active torsions:
REMARK  status: ('A' for Active; 'I' for Inactive)
REMARK    1  A    between atoms: C_6  and  C_39
REMARK    2  A    between atoms: C_8  and  O_27
REMARK    3  A    between atoms: C_8  and  C_51
REMARK    4  A    between atoms: C_10  and  O_29
REMARK    5  A    between atoms: C_15  and  O_31
REMARK    6  A    between atoms: C_16  and  O_33
REMARK    7  A    between atoms: C_21  and  O_35
REMARK    8  A    between atoms: O_35  and  C_37
REMARK    9  A    between atoms: C_39  and  C_41
REMARK   10  A    between atoms: C_39  and  O_49
REMARK   11  A    between atoms: C_42  and  C_44
REMARK   12  A    between atoms: C_44  and  C_46
REMARK   13  A    between atoms: C_51  and  O_52
REMARK                            x       y       z     vdW  Elec       q    Type
REMARK                         _______ _______ _______ _____ _____    ______ ____
ROOT
ATOM      1  O   UNL     1      46.106  22.690  85.771  0.00  0.00    +0.000 OA
ATOM      2  O   UNL     1      45.757  24.540  87.087  0.00  0.00    +0.000 OA
ATOM      3  O   UNL     1      43.304  28.460  88.833  0.00  0.00    +0.000 OA
ATOM      4  O   UNL     1      46.828  21.196  87.303  0.00  0.00    +0.000 OA
ATOM      5  O   UNL     1      48.081  23.688  89.451  0.00  0.00    +0.000 OA
ATOM      6  C   UNL     1      44.400  24.132  85.152  0.00  0.00    +0.000 C 
ATOM      7  C   UNL     1      44.005  25.469  84.867  0.00  0.00    +0.000 C 
ATOM      8  C   UNL     1      43.589  26.798  84.413  0.00  0.00    +0.000 C 
ATOM      9  C   UNL     1      45.481  23.831  86.128  0.00  0.00    +0.000 C 
ATOM     10  C   UNL     1      42.678  27.483  85.409  0.00  0.00    +0.000 C 
ATOM     11  C   UNL     1      42.866  27.462  86.817  0.00  0.00    +0.000 C 
ATOM     12  C   UNL     1      43.142  27.401  88.237  0.00  0.00    +0.000 C 
ATOM     13  C   UNL     1      47.006  22.222  86.655  0.00  0.00    +0.000 C 
ATOM     14  C   UNL     1      43.267  26.082  88.929  0.00  0.00    +0.000 C 
ATOM     15  C   UNL     1      48.361  22.823  86.585  0.00  0.00    +0.000 C 
ATOM     16  C   UNL     1      48.628  24.246  86.531  0.00  0.00    +0.000 C 
ATOM     17  C   UNL     1      48.793  25.122  87.683  0.00  0.00    +0.000 C 
ATOM     18  C   UNL     1      44.140  25.954  90.036  0.00  0.00    +0.000 C 
ATOM     19  C   UNL     1      47.189  25.886  89.531  0.00  0.00    +0.000 C 
ATOM     20  C   UNL     1      42.724  24.793  88.328  0.00  0.00    +0.000 C 
ATOM     21  C   UNL     1      46.415  25.556  90.723  0.00  0.00    +0.000 C 
ATOM     22  C   UNL     1      48.049  24.810  88.941  0.00  0.00    +0.000 C 
ATOM     23  C   UNL     1      45.020  25.882  90.987  0.00  0.00    +0.000 C 
ATOM     24  C   UNL     1      49.920  26.149  87.743  0.00  0.00    +0.000 C 
ATOM     25  C   UNL     1      46.876  27.171  88.778  0.00  0.00    +0.000 C 
ATOM     26  C   UNL     1      44.502  26.106  92.384  0.00  0.00    +0.000 C 
ENDROOT
BRANCH   8  27
ATOM     27  O   UNL     1      42.860  26.584  83.202  0.00  0.00    +0.000 OA
ATOM     28  H   UNL     1      41.921  26.646  83.471  0.00  0.00    +0.000 HD
ENDBRANCH   8  27
BRANCH  10  29
ATOM     29  O   UNL     1      41.622  28.217  84.893  0.00  0.00    +0.000 OA
ATOM     30  H   UNL     1      40.864  28.255  85.506  0.00  0.00    +0.000 HD
ENDBRANCH  10  29
BRANCH  15  31
ATOM     31  O   UNL     1      49.424  22.076  87.069  0.00  0.00    +0.000 OA
ATOM     32  H   UNL     1      49.403  21.169  86.696  0.00  0.00    +0.000 HD
ENDBRANCH  15  31
BRANCH  16  33
ATOM     33  O   UNL     1      49.240  24.687  85.371  0.00  0.00    +0.000 OA
ATOM     34  C   UNL     1      48.288  25.328  84.559  0.00  0.00    +0.000 C 
ENDBRANCH  16  33
BRANCH  21  35
ATOM     35  O   UNL     1      47.179  25.011  91.785  0.00  0.00    +0.000 OA
BRANCH  35  37
ATOM     36  O   UNL     1      47.902  27.021  92.738  0.00  0.00    +0.000 OA
ATOM     37  C   UNL     1      48.074  25.896  92.305  0.00  0.00    +0.000 C 
ATOM     38  C   UNL     1      49.468  25.388  92.387  0.00  0.00    +0.000 C 
ENDBRANCH  35  37
ENDBRANCH  21  35
BRANCH   6  39
ATOM     39  C   UNL     1      43.651  23.068  84.525  0.00  0.00    +0.000 C 
BRANCH  39  41
ATOM     40  O   UNL     1      42.368  20.923  85.030  0.00  0.00    +0.000 OA
ATOM     41  C   UNL     1      42.618  22.322  85.296  0.00  0.00    +0.000 C 
ATOM     42  C   UNL     1      43.193  21.229  86.075  0.00  0.00    +0.000 C 
ATOM     43  C   UNL     1      41.264  23.036  85.649  0.00  0.00    +0.000 C 
BRANCH  42  44
ATOM     44  C   UNL     1      42.761  20.854  87.387  0.00  0.00    +0.000 C 
ATOM     45  C   UNL     1      41.899  19.628  87.581  0.00  0.00    +0.000 C 
BRANCH  44  46
ATOM     46  C   UNL     1      43.466  21.301  88.533  0.00  0.00    +0.000 C 
ATOM     47  C   UNL     1      44.046  21.639  89.527  0.00  0.00    +0.000 C 
ATOM     48  C   UNL     1      44.772  22.008  90.827  0.00  0.00    +0.000 C 
ENDBRANCH  44  46
ENDBRANCH  42  44
ENDBRANCH  39  41
BRANCH  39  49
ATOM     49  O   UNL     1      43.991  22.746  83.221  0.00  0.00    +0.000 OA
ATOM     50  H   UNL     1      44.216  23.513  82.661  0.00  0.00    +0.000 HD
ENDBRANCH  39  49
ENDBRANCH   6  39
BRANCH   8  51
ATOM     51  C   UNL     1      44.740  27.659  84.097  0.00  0.00    +0.000 C 
BRANCH  51  52
ATOM     52  O   UNL     1      45.803  28.404  83.790  0.00  0.00    +0.000 OA
ATOM     53  H   UNL     1      46.153  28.168  82.907  0.00  0.00    +0.000 HD
ENDBRANCH  51  52
ENDBRANCH   8  51
TORSDOF 13
ENDMDL
MODEL 8
REMARK VINA RESULT:      -5.5     22.234     26.024
REMARK  Name = 102471178_CandidaspongiolideCore.pdbqt.pdb
REMARK  13 active torsions:
REMARK  status: ('A' for Active; 'I' for Inactive)
REMARK    1  A    between atoms: C_6  and  C_39
REMARK    2  A    between atoms: C_8  and  O_27
REMARK    3  A    between atoms: C_8  and  C_51
REMARK    4  A    between atoms: C_10  and  O_29
REMARK    5  A    between atoms: C_15  and  O_31
REMARK    6  A    between atoms: C_16  and  O_33
REMARK    7  A    between atoms: C_21  and  O_35
REMARK    8  A    between atoms: O_35  and  C_37
REMARK    9  A    between atoms: C_39  and  C_41
REMARK   10  A    between atoms: C_39  and  O_49
REMARK   11  A    between atoms: C_42  and  C_44
REMARK   12  A    between atoms: C_44  and  C_46
REMARK   13  A    between atoms: C_51  and  O_52
REMARK                            x       y       z     vdW  Elec       q    Type
REMARK                         _______ _______ _______ _____ _____    ______ ____
ROOT
ATOM      1  O   UNL     1      18.061  17.695  88.684  0.00  0.00    +0.000 OA
ATOM      2  O   UNL     1      20.007  17.966  87.496  0.00  0.00    +0.000 OA
ATOM      3  O   UNL     1      24.285  20.099  86.232  0.00  0.00    +0.000 OA
ATOM      4  O   UNL     1      18.142  15.489  89.155  0.00  0.00    +0.000 OA
ATOM      5  O   UNL     1      20.123  14.747  86.342  0.00  0.00    +0.000 OA
ATOM      6  C   UNL     1      19.144  19.737  88.863  0.00  0.00    +0.000 C 
ATOM      7  C   UNL     1      19.727  20.848  88.191  0.00  0.00    +0.000 C 
ATOM      8  C   UNL     1      20.196  22.079  87.551  0.00  0.00    +0.000 C 
ATOM      9  C   UNL     1      19.148  18.375  88.266  0.00  0.00    +0.000 C 
ATOM     10  C   UNL     1      21.702  22.218  87.613  0.00  0.00    +0.000 C 
ATOM     11  C   UNL     1      22.617  21.153  87.398  0.00  0.00    +0.000 C 
ATOM     12  C   UNL     1      23.477  20.015  87.151  0.00  0.00    +0.000 C 
ATOM     13  C   UNL     1      18.023  16.395  88.339  0.00  0.00    +0.000 C 
ATOM     14  C   UNL     1      23.340  18.771  87.967  0.00  0.00    +0.000 C 
ATOM     15  C   UNL     1      17.513  16.098  86.977  0.00  0.00    +0.000 C 
ATOM     16  C   UNL     1      17.951  16.770  85.771  0.00  0.00    +0.000 C 
ATOM     17  C   UNL     1      19.083  16.374  84.943  0.00  0.00    +0.000 C 
ATOM     18  C   UNL     1      23.627  17.514  87.379  0.00  0.00    +0.000 C 
ATOM     19  C   UNL     1      21.611  16.317  85.364  0.00  0.00    +0.000 C 
ATOM     20  C   UNL     1      22.630  18.753  89.313  0.00  0.00    +0.000 C 
ATOM     21  C   UNL     1      22.745  15.708  86.050  0.00  0.00    +0.000 C 
ATOM     22  C   UNL     1      20.257  15.715  85.591  0.00  0.00    +0.000 C 
ATOM     23  C   UNL     1      23.819  16.392  86.756  0.00  0.00    +0.000 C 
ATOM     24  C   UNL     1      18.974  16.331  83.421  0.00  0.00    +0.000 C 
ATOM     25  C   UNL     1      21.788  17.678  84.706  0.00  0.00    +0.000 C 
ATOM     26  C   UNL     1      25.208  15.815  86.852  0.00  0.00    +0.000 C 
ENDROOT
BRANCH   8  27
ATOM     27  O   UNL     1      19.608  23.150  88.294  0.00  0.00    +0.000 OA
ATOM     28  H   UNL     1      19.072  22.702  88.979  0.00  0.00    +0.000 HD
ENDBRANCH   8  27
BRANCH  10  29
ATOM     29  O   UNL     1      22.206  23.487  87.848  0.00  0.00    +0.000 OA
ATOM     30  H   UNL     1      22.244  23.700  88.799  0.00  0.00    +0.000 HD
ENDBRANCH  10  29
BRANCH  15  31
ATOM     31  O   UNL     1      16.977  14.841  86.749  0.00  0.00    +0.000 OA
ATOM     32  H   UNL     1      16.451  14.837  85.921  0.00  0.00    +0.000 HD
ENDBRANCH  15  31
BRANCH  16  33
ATOM     33  O   UNL     1      16.974  17.497  85.114  0.00  0.00    +0.000 OA
ATOM     34  C   UNL     1      17.133  18.863  85.411  0.00  0.00    +0.000 C 
ENDBRANCH  16  33
BRANCH  21  35
ATOM     35  O   UNL     1      22.875  14.311  85.841  0.00  0.00    +0.000 OA
BRANCH  35  37
ATOM     36  O   UNL     1      22.154  13.461  83.784  0.00  0.00    +0.000 OA
ATOM     37  C   UNL     1      22.972  13.978  84.524  0.00  0.00    +0.000 C 
ATOM     38  C   UNL     1      24.267  14.336  83.890  0.00  0.00    +0.000 C 
ENDBRANCH  35  37
ENDBRANCH  21  35
BRANCH   6  39
ATOM     39  C   UNL     1      18.622  19.962  90.191  0.00  0.00    +0.000 C 
BRANCH  39  41
ATOM     40  O   UNL     1      19.052  20.094  92.701  0.00  0.00    +0.000 OA
ATOM     41  C   UNL     1      19.551  20.123  91.344  0.00  0.00    +0.000 C 
ATOM     42  C   UNL     1      19.582  18.939  92.198  0.00  0.00    +0.000 C 
ATOM     43  C   UNL     1      20.722  21.165  91.241  0.00  0.00    +0.000 C 
BRANCH  42  44
ATOM     44  C   UNL     1      20.760  18.425  92.829  0.00  0.00    +0.000 C 
ATOM     45  C   UNL     1      21.032  18.722  94.286  0.00  0.00    +0.000 C 
BRANCH  44  46
ATOM     46  C   UNL     1      21.430  17.297  92.293  0.00  0.00    +0.000 C 
ATOM     47  C   UNL     1      22.027  16.373  91.814  0.00  0.00    +0.000 C 
ATOM     48  C   UNL     1      22.838  15.238  91.176  0.00  0.00    +0.000 C 
ENDBRANCH  44  46
ENDBRANCH  42  44
ENDBRANCH  39  41
BRANCH  39  49
ATOM     49  O   UNL     1      17.244  19.948  90.335  0.00  0.00    +0.000 OA
ATOM     50  H   UNL     1      16.909  19.273  90.956  0.00  0.00    +0.000 HD
ENDBRANCH  39  49
ENDBRANCH   6  39
BRANCH   8  51
ATOM     51  C   UNL     1      19.729  22.191  86.159  0.00  0.00    +0.000 C 
BRANCH  51  52
ATOM     52  O   UNL     1      19.290  22.332  84.908  0.00  0.00    +0.000 OA
ATOM     53  H   UNL     1      19.218  21.464  84.462  0.00  0.00    +0.000 HD
ENDBRANCH  51  52
ENDBRANCH   8  51
TORSDOF 13
ENDMDL
MODEL 9
REMARK VINA RESULT:      -5.4      2.452      7.645
REMARK  Name = 102471178_CandidaspongiolideCore.pdbqt.pdb
REMARK  13 active torsions:
REMARK  status: ('A' for Active; 'I' for Inactive)
REMARK    1  A    between atoms: C_6  and  C_39
REMARK    2  A    between atoms: C_8  and  O_27
REMARK    3  A    between atoms: C_8  and  C_51
REMARK    4  A    between atoms: C_10  and  O_29
REMARK    5  A    between atoms: C_15  and  O_31
REMARK    6  A    between atoms: C_16  and  O_33
REMARK    7  A    between atoms: C_21  and  O_35
REMARK    8  A    between atoms: O_35  and  C_37
REMARK    9  A    between atoms: C_39  and  C_41
REMARK   10  A    between atoms: C_39  and  O_49
REMARK   11  A    between atoms: C_42  and  C_44
REMARK   12  A    between atoms: C_44  and  C_46
REMARK   13  A    between atoms: C_51  and  O_52
REMARK                            x       y       z     vdW  Elec       q    Type
REMARK                         _______ _______ _______ _____ _____    ______ ____
ROOT
ATOM      1  O   UNL     1      46.348  26.353  85.846  0.00  0.00    +0.000 OA
ATOM      2  O   UNL     1      46.147  24.443  87.106  0.00  0.00    +0.000 OA
ATOM      3  O   UNL     1      43.798  20.961  89.715  0.00  0.00    +0.000 OA
ATOM      4  O   UNL     1      47.662  25.625  84.161  0.00  0.00    +0.000 OA
ATOM      5  O   UNL     1      49.135  23.098  86.118  0.00  0.00    +0.000 OA
ATOM      6  C   UNL     1      44.363  26.042  87.004  0.00  0.00    +0.000 C 
ATOM      7  C   UNL     1      43.732  25.759  88.247  0.00  0.00    +0.000 C 
ATOM      8  C   UNL     1      43.035  25.626  89.528  0.00  0.00    +0.000 C 
ATOM      9  C   UNL     1      45.706  25.498  86.669  0.00  0.00    +0.000 C 
ATOM     10  C   UNL     1      42.362  24.279  89.676  0.00  0.00    +0.000 C 
ATOM     11  C   UNL     1      42.942  23.043  89.284  0.00  0.00    +0.000 C 
ATOM     12  C   UNL     1      43.613  21.830  88.869  0.00  0.00    +0.000 C 
ATOM     13  C   UNL     1      47.514  25.907  85.344  0.00  0.00    +0.000 C 
ATOM     14  C   UNL     1      44.100  21.675  87.464  0.00  0.00    +0.000 C 
ATOM     15  C   UNL     1      48.703  26.072  86.217  0.00  0.00    +0.000 C 
ATOM     16  C   UNL     1      48.755  25.697  87.615  0.00  0.00    +0.000 C 
ATOM     17  C   UNL     1      49.124  24.384  88.127  0.00  0.00    +0.000 C 
ATOM     18  C   UNL     1      45.260  20.904  87.207  0.00  0.00    +0.000 C 
ATOM     19  C   UNL     1      48.023  22.075  87.949  0.00  0.00    +0.000 C 
ATOM     20  C   UNL     1      43.583  22.541  86.323  0.00  0.00    +0.000 C 
ATOM     21  C   UNL     1      47.668  20.925  87.125  0.00  0.00    +0.000 C 
ATOM     22  C   UNL     1      48.814  23.174  87.306  0.00  0.00    +0.000 C 
ATOM     23  C   UNL     1      46.375  20.259  87.050  0.00  0.00    +0.000 C 
ATOM     24  C   UNL     1      50.078  24.233  89.309  0.00  0.00    +0.000 C 
ATOM     25  C   UNL     1      47.345  22.255  89.301  0.00  0.00    +0.000 C 
ATOM     26  C   UNL     1      46.249  18.791  86.736  0.00  0.00    +0.000 C 
ENDROOT
BRANCH   8  27
ATOM     27  O   UNL     1      42.028  26.641  89.528  0.00  0.00    +0.000 OA
ATOM     28  H   UNL     1      41.365  26.324  88.881  0.00  0.00    +0.000 HD
ENDBRANCH   8  27
BRANCH  10  29
ATOM     29  O   UNL     1      41.116  24.263  90.284  0.00  0.00    +0.000 OA
ATOM     30  H   UNL     1      40.410  23.984  89.672  0.00  0.00    +0.000 HD
ENDBRANCH  10  29
BRANCH  15  31
ATOM     31  O   UNL     1      49.947  26.123  85.608  0.00  0.00    +0.000 OA
ATOM     32  H   UNL     1      49.965  26.825  84.922  0.00  0.00    +0.000 HD
ENDBRANCH  15  31
BRANCH  16  33
ATOM     33  O   UNL     1      48.951  26.743  88.499  0.00  0.00    +0.000 OA
ATOM     34  C   UNL     1      47.730  27.062  89.119  0.00  0.00    +0.000 C 
ENDBRANCH  16  33
BRANCH  21  35
ATOM     35  O   UNL     1      48.766  20.313  86.469  0.00  0.00    +0.000 OA
BRANCH  35  37
ATOM     36  O   UNL     1      49.467  18.911  88.206  0.00  0.00    +0.000 OA
ATOM     37  C   UNL     1      49.650  19.742  87.334  0.00  0.00    +0.000 C 
ATOM     38  C   UNL     1      51.059  20.177  87.154  0.00  0.00    +0.000 C 
ENDBRANCH  35  37
ENDBRANCH  21  35
BRANCH   6  39
ATOM     39  C   UNL     1      43.613  26.809  86.035  0.00  0.00    +0.000 C 
BRANCH  39  41
ATOM     40  O   UNL     1      42.615  26.793  83.689  0.00  0.00    +0.000 OA
ATOM     41  C   UNL     1      42.874  26.118  84.942  0.00  0.00    +0.000 C 
ATOM     42  C   UNL     1      43.692  25.954  83.743  0.00  0.00    +0.000 C 
ATOM     43  C   UNL     1      41.651  25.203  85.305  0.00  0.00    +0.000 C 
BRANCH  42  44
ATOM     44  C   UNL     1      43.668  24.798  82.899  0.00  0.00    +0.000 C 
ATOM     45  C   UNL     1      44.711  23.716  83.063  0.00  0.00    +0.000 C 
BRANCH  44  46
ATOM     46  C   UNL     1      42.473  24.408  82.243  0.00  0.00    +0.000 C 
ATOM     47  C   UNL     1      41.444  24.125  81.696  0.00  0.00    +0.000 C 
ATOM     48  C   UNL     1      40.111  23.832  80.996  0.00  0.00    +0.000 C 
ENDBRANCH  44  46
ENDBRANCH  42  44
ENDBRANCH  39  41
BRANCH  39  49
ATOM     49  O   UNL     1      43.677  28.188  86.142  0.00  0.00    +0.000 OA
ATOM     50  H   UNL     1      42.817  28.642  86.049  0.00  0.00    +0.000 HD
ENDBRANCH  39  49
ENDBRANCH   6  39
BRANCH   8  51
ATOM     51  C   UNL     1      43.927  25.882  90.671  0.00  0.00    +0.000 C 
BRANCH  51  52
ATOM     52  O   UNL     1      44.759  26.140  91.681  0.00  0.00    +0.000 OA
ATOM     53  H   UNL     1      44.266  26.440  92.472  0.00  0.00    +0.000 HD
ENDBRANCH  51  52
ENDBRANCH   8  51
TORSDOF 13
ENDMDL
