MODEL 1
REMARK VINA RESULT:      -4.7      0.000      0.000
REMARK  Name = 10281_Thymoquinone.pdbqt.pdb
REMARK  1 active torsions:
REMARK  status: ('A' for Active; 'I' for Inactive)
REMARK    1  A    between atoms: C_3  and  C_10
REMARK                            x       y       z     vdW  Elec       q    Type
REMARK                         _______ _______ _______ _____ _____    ______ ____
ROOT
ATOM      1  O   UNL     1      60.004  34.737  77.247  0.00  0.00    +0.000 OA
ATOM      2  O   UNL     1      57.398  39.441  77.102  0.00  0.00    +0.000 OA
ATOM      3  C   UNL     1      58.377  36.177  78.308  0.00  0.00    +0.000 C 
ATOM      4  C   UNL     1      59.385  35.782  77.268  0.00  0.00    +0.000 C 
ATOM      5  C   UNL     1      57.881  37.363  78.057  0.00  0.00    +0.000 C 
ATOM      6  C   UNL     1      59.068  37.990  75.991  0.00  0.00    +0.000 C 
ATOM      7  C   UNL     1      58.038  38.408  77.044  0.00  0.00    +0.000 C 
ATOM      8  C   UNL     1      59.558  36.807  76.246  0.00  0.00    +0.000 C 
ATOM      9  C   UNL     1      59.493  38.790  74.803  0.00  0.00    +0.000 C 
ENDROOT
BRANCH   3  10
ATOM     10  C   UNL     1      58.072  35.305  79.393  0.00  0.00    +0.000 C 
ATOM     11  C   UNL     1      57.087  34.175  79.217  0.00  0.00    +0.000 C 
ATOM     12  C   UNL     1      58.997  35.207  80.581  0.00  0.00    +0.000 C 
ENDBRANCH   3  10
TORSDOF 1
ENDMDL
MODEL 2
REMARK VINA RESULT:      -4.6     14.562     16.882
REMARK  Name = 10281_Thymoquinone.pdbqt.pdb
REMARK  1 active torsions:
REMARK  status: ('A' for Active; 'I' for Inactive)
REMARK    1  A    between atoms: C_3  and  C_10
REMARK                            x       y       z     vdW  Elec       q    Type
REMARK                         _______ _______ _______ _____ _____    ______ ____
ROOT
ATOM      1  O   UNL     1      52.758  22.065  79.874  0.00  0.00    +0.000 OA
ATOM      2  O   UNL     1      52.805  20.854  74.633  0.00  0.00    +0.000 OA
ATOM      3  C   UNL     1      52.438  20.355  78.193  0.00  0.00    +0.000 C 
ATOM      4  C   UNL     1      52.752  21.731  78.706  0.00  0.00    +0.000 C 
ATOM      5  C   UNL     1      52.514  20.310  76.886  0.00  0.00    +0.000 C 
ATOM      6  C   UNL     1      53.140  22.627  76.328  0.00  0.00    +0.000 C 
ATOM      7  C   UNL     1      52.821  21.229  75.789  0.00  0.00    +0.000 C 
ATOM      8  C   UNL     1      53.062  22.665  77.630  0.00  0.00    +0.000 C 
ATOM      9  C   UNL     1      53.501  23.827  75.514  0.00  0.00    +0.000 C 
ENDROOT
BRANCH   3  10
ATOM     10  C   UNL     1      52.106  19.302  79.095  0.00  0.00    +0.000 C 
ATOM     11  C   UNL     1      53.189  18.558  79.837  0.00  0.00    +0.000 C 
ATOM     12  C   UNL     1      50.709  19.180  79.650  0.00  0.00    +0.000 C 
ENDBRANCH   3  10
TORSDOF 1
ENDMDL
MODEL 3
REMARK VINA RESULT:      -4.6      2.120      2.158
REMARK  Name = 10281_Thymoquinone.pdbqt.pdb
REMARK  1 active torsions:
REMARK  status: ('A' for Active; 'I' for Inactive)
REMARK    1  A    between atoms: C_3  and  C_10
REMARK                            x       y       z     vdW  Elec       q    Type
REMARK                         _______ _______ _______ _____ _____    ______ ____
ROOT
ATOM      1  O   UNL     1      59.054  35.433  76.651  0.00  0.00    +0.000 OA
ATOM      2  O   UNL     1      54.391  38.112  76.495  0.00  0.00    +0.000 OA
ATOM      3  C   UNL     1      57.062  36.093  77.855  0.00  0.00    +0.000 C 
ATOM      4  C   UNL     1      57.991  36.020  76.677  0.00  0.00    +0.000 C 
ATOM      5  C   UNL     1      55.996  36.799  77.573  0.00  0.00    +0.000 C 
ATOM      6  C   UNL     1      56.417  37.453  75.235  0.00  0.00    +0.000 C 
ATOM      7  C   UNL     1      55.460  37.537  76.427  0.00  0.00    +0.000 C 
ATOM      8  C   UNL     1      57.477  36.748  75.522  0.00  0.00    +0.000 C 
ATOM      9  C   UNL     1      56.214  38.077  73.892  0.00  0.00    +0.000 C 
ENDROOT
BRANCH   3  10
ATOM     10  C   UNL     1      57.392  35.445  79.081  0.00  0.00    +0.000 C 
ATOM     11  C   UNL     1      57.061  33.988  79.292  0.00  0.00    +0.000 C 
ATOM     12  C   UNL     1      58.425  36.038  80.008  0.00  0.00    +0.000 C 
ENDBRANCH   3  10
TORSDOF 1
ENDMDL
MODEL 4
REMARK VINA RESULT:      -4.3     57.746     59.093
REMARK  Name = 10281_Thymoquinone.pdbqt.pdb
REMARK  1 active torsions:
REMARK  status: ('A' for Active; 'I' for Inactive)
REMARK    1  A    between atoms: C_3  and  C_10
REMARK                            x       y       z     vdW  Elec       q    Type
REMARK                         _______ _______ _______ _____ _____    ______ ____
ROOT
ATOM      1  O   UNL     1      11.472   5.104 100.553  0.00  0.00    +0.000 OA
ATOM      2  O   UNL     1      14.894   5.624  96.435  0.00  0.00    +0.000 OA
ATOM      3  C   UNL     1      13.011   6.552  99.377  0.00  0.00    +0.000 C 
ATOM      4  C   UNL     1      12.256   5.282  99.642  0.00  0.00    +0.000 C 
ATOM      5  C   UNL     1      13.779   6.433  98.323  0.00  0.00    +0.000 C 
ATOM      6  C   UNL     1      13.324   4.117  97.615  0.00  0.00    +0.000 C 
ATOM      7  C   UNL     1      14.103   5.405  97.332  0.00  0.00    +0.000 C 
ATOM      8  C   UNL     1      12.561   4.242  98.667  0.00  0.00    +0.000 C 
ATOM      9  C   UNL     1      13.389   2.852  96.822  0.00  0.00    +0.000 C 
ENDROOT
BRANCH   3  10
ATOM     10  C   UNL     1      12.848   7.685 100.226  0.00  0.00    +0.000 C 
ATOM     11  C   UNL     1      11.607   8.539 100.138  0.00  0.00    +0.000 C 
ATOM     12  C   UNL     1      13.666   7.823 101.487  0.00  0.00    +0.000 C 
ENDBRANCH   3  10
TORSDOF 1
ENDMDL
MODEL 5
REMARK VINA RESULT:      -4.1     17.582     18.574
REMARK  Name = 10281_Thymoquinone.pdbqt.pdb
REMARK  1 active torsions:
REMARK  status: ('A' for Active; 'I' for Inactive)
REMARK    1  A    between atoms: C_3  and  C_10
REMARK                            x       y       z     vdW  Elec       q    Type
REMARK                         _______ _______ _______ _____ _____    ______ ____
ROOT
ATOM      1  O   UNL     1      45.642  28.386  85.969  0.00  0.00    +0.000 OA
ATOM      2  O   UNL     1      45.800  23.894  83.012  0.00  0.00    +0.000 OA
ATOM      3  C   UNL     1      44.487  26.968  84.386  0.00  0.00    +0.000 C 
ATOM      4  C   UNL     1      45.619  27.386  85.279  0.00  0.00    +0.000 C 
ATOM      5  C   UNL     1      44.760  25.845  83.771  0.00  0.00    +0.000 C 
ATOM      6  C   UNL     1      47.009  25.322  84.633  0.00  0.00    +0.000 C 
ATOM      7  C   UNL     1      45.864  24.884  83.716  0.00  0.00    +0.000 C 
ATOM      8  C   UNL     1      46.730  26.443  85.242  0.00  0.00    +0.000 C 
ATOM      9  C   UNL     1      48.300  24.599  84.843  0.00  0.00    +0.000 C 
ENDROOT
BRANCH   3  10
ATOM     10  C   UNL     1      43.310  27.765  84.284  0.00  0.00    +0.000 C 
ATOM     11  C   UNL     1      42.179  27.594  85.270  0.00  0.00    +0.000 C 
ATOM     12  C   UNL     1      43.319  29.051  83.495  0.00  0.00    +0.000 C 
ENDBRANCH   3  10
TORSDOF 1
ENDMDL
MODEL 6
REMARK VINA RESULT:      -3.8     43.820     46.360
REMARK  Name = 10281_Thymoquinone.pdbqt.pdb
REMARK  1 active torsions:
REMARK  status: ('A' for Active; 'I' for Inactive)
REMARK    1  A    between atoms: C_3  and  C_10
REMARK                            x       y       z     vdW  Elec       q    Type
REMARK                         _______ _______ _______ _____ _____    ______ ____
ROOT
ATOM      1  O   UNL     1      22.280  11.687  86.371  0.00  0.00    +0.000 OA
ATOM      2  O   UNL     1      21.969   6.322  86.622  0.00  0.00    +0.000 OA
ATOM      3  C   UNL     1      23.256   9.645  87.225  0.00  0.00    +0.000 C 
ATOM      4  C   UNL     1      22.263  10.476  86.464  0.00  0.00    +0.000 C 
ATOM      5  C   UNL     1      22.970   8.370  87.138  0.00  0.00    +0.000 C 
ATOM      6  C   UNL     1      20.947   8.393  85.732  0.00  0.00    +0.000 C 
ATOM      7  C   UNL     1      21.950   7.532  86.504  0.00  0.00    +0.000 C 
ATOM      8  C   UNL     1      21.237   9.663  85.823  0.00  0.00    +0.000 C 
ATOM      9  C   UNL     1      19.769   7.898  84.956  0.00  0.00    +0.000 C 
ENDROOT
BRANCH   3  10
ATOM     10  C   UNL     1      24.335  10.261  87.924  0.00  0.00    +0.000 C 
ATOM     11  C   UNL     1      24.449  10.136  89.423  0.00  0.00    +0.000 C 
ATOM     12  C   UNL     1      25.586  10.678  87.190  0.00  0.00    +0.000 C 
ENDBRANCH   3  10
TORSDOF 1
ENDMDL
MODEL 7
REMARK VINA RESULT:      -3.8     44.588     45.680
REMARK  Name = 10281_Thymoquinone.pdbqt.pdb
REMARK  1 active torsions:
REMARK  status: ('A' for Active; 'I' for Inactive)
REMARK    1  A    between atoms: C_3  and  C_10
REMARK                            x       y       z     vdW  Elec       q    Type
REMARK                         _______ _______ _______ _____ _____    ______ ____
ROOT
ATOM      1  O   UNL     1      21.381  15.847  90.718  0.00  0.00    +0.000 OA
ATOM      2  O   UNL     1      17.864  19.568  92.370  0.00  0.00    +0.000 OA
ATOM      3  C   UNL     1      19.396  17.125  90.191  0.00  0.00    +0.000 C 
ATOM      4  C   UNL     1      20.556  16.681  91.034  0.00  0.00    +0.000 C 
ATOM      5  C   UNL     1      18.685  18.036  90.808  0.00  0.00    +0.000 C 
ATOM      6  C   UNL     1      19.898  18.277  92.939  0.00  0.00    +0.000 C 
ATOM      7  C   UNL     1      18.710  18.740  92.091  0.00  0.00    +0.000 C 
ATOM      8  C   UNL     1      20.602  17.369  92.319  0.00  0.00    +0.000 C 
ATOM      9  C   UNL     1      20.254  18.767  94.305  0.00  0.00    +0.000 C 
ENDROOT
BRANCH   3  10
ATOM     10  C   UNL     1      19.180  16.563  88.899  0.00  0.00    +0.000 C 
ATOM     11  C   UNL     1      17.888  15.853  88.577  0.00  0.00    +0.000 C 
ATOM     12  C   UNL     1      20.010  17.008  87.720  0.00  0.00    +0.000 C 
ENDBRANCH   3  10
TORSDOF 1
ENDMDL
MODEL 8
REMARK VINA RESULT:      -3.8     57.742     59.926
REMARK  Name = 10281_Thymoquinone.pdbqt.pdb
REMARK  1 active torsions:
REMARK  status: ('A' for Active; 'I' for Inactive)
REMARK    1  A    between atoms: C_3  and  C_10
REMARK                            x       y       z     vdW  Elec       q    Type
REMARK                         _______ _______ _______ _____ _____    ______ ____
ROOT
ATOM      1  O   UNL     1       7.011  14.018 100.176  0.00  0.00    +0.000 OA
ATOM      2  O   UNL     1       5.978  14.403  94.910  0.00  0.00    +0.000 OA
ATOM      3  C   UNL     1       7.347  15.278  98.138  0.00  0.00    +0.000 C 
ATOM      4  C   UNL     1       6.813  14.159  98.985  0.00  0.00    +0.000 C 
ATOM      5  C   UNL     1       6.960  15.153  96.893  0.00  0.00    +0.000 C 
ATOM      6  C   UNL     1       5.614  13.091  96.978  0.00  0.00    +0.000 C 
ATOM      7  C   UNL     1       6.152  14.225  96.100  0.00  0.00    +0.000 C 
ATOM      8  C   UNL     1       6.003  13.221  98.217  0.00  0.00    +0.000 C 
ATOM      9  C   UNL     1       4.751  11.958  96.527  0.00  0.00    +0.000 C 
ENDROOT
BRANCH   3  10
ATOM     10  C   UNL     1       8.165  16.295  98.710  0.00  0.00    +0.000 C 
ATOM     11  C   UNL     1       7.544  17.452  99.454  0.00  0.00    +0.000 C 
ATOM     12  C   UNL     1       9.633  16.048  98.962  0.00  0.00    +0.000 C 
ENDBRANCH   3  10
TORSDOF 1
ENDMDL
MODEL 9
REMARK VINA RESULT:      -3.8      8.133     10.167
REMARK  Name = 10281_Thymoquinone.pdbqt.pdb
REMARK  1 active torsions:
REMARK  status: ('A' for Active; 'I' for Inactive)
REMARK    1  A    between atoms: C_3  and  C_10
REMARK                            x       y       z     vdW  Elec       q    Type
REMARK                         _______ _______ _______ _____ _____    ______ ____
ROOT
ATOM      1  O   UNL     1      58.760  34.025  70.696  0.00  0.00    +0.000 OA
ATOM      2  O   UNL     1      61.219  29.244  70.517  0.00  0.00    +0.000 OA
ATOM      3  C   UNL     1      59.561  32.217  69.304  0.00  0.00    +0.000 C 
ATOM      4  C   UNL     1      59.308  32.946  70.591  0.00  0.00    +0.000 C 
ATOM      5  C   UNL     1      60.172  31.078  69.518  0.00  0.00    +0.000 C 
ATOM      6  C   UNL     1      60.409  31.077  71.970  0.00  0.00    +0.000 C 
ATOM      7  C   UNL     1      60.675  30.321  70.665  0.00  0.00    +0.000 C 
ATOM      8  C   UNL     1      59.801  32.211  71.750  0.00  0.00    +0.000 C 
ATOM      9  C   UNL     1      60.776  30.623  73.346  0.00  0.00    +0.000 C 
ENDROOT
BRANCH   3  10
ATOM     10  C   UNL     1      59.154  32.779  68.059  0.00  0.00    +0.000 C 
ATOM     11  C   UNL     1      59.934  33.910  67.435  0.00  0.00    +0.000 C 
ATOM     12  C   UNL     1      58.228  32.020  67.140  0.00  0.00    +0.000 C 
ENDBRANCH   3  10
TORSDOF 1
ENDMDL
