MODEL 1
REMARK VINA RESULT:      -7.3      0.000      0.000
REMARK  Name = 10288191_Binimetinib.pdbqt.pdb
REMARK  6 active torsions:
REMARK  status: ('A' for Active; 'I' for Inactive)
REMARK    1  A    between atoms: C_6  and  N_21
REMARK    2  A    between atoms: C_7  and  C_14
REMARK    3  A    between atoms: N_13  and  O_16
REMARK    4  A    between atoms: O_16  and  C_17
REMARK    5  A    between atoms: C_18  and  O_19
REMARK    6  A    between atoms: N_21  and  C_25
REMARK                            x       y       z     vdW  Elec       q    Type
REMARK                         _______ _______ _______ _____ _____    ______ ____
ROOT
ATOM      1  F   UNL     1      60.915  35.117  77.514  0.00  0.00    +0.000 F 
ATOM      2  N   UNL     1      57.530  35.951  80.390  0.00  0.00    +0.000 N 
ATOM      3  N   UNL     1      59.664  35.440  80.161  0.00  0.00    +0.000 NA
ATOM      4  C   UNL     1      57.730  35.921  79.040  0.00  0.00    +0.000 A 
ATOM      5  C   UNL     1      59.079  35.602  78.918  0.00  0.00    +0.000 A 
ATOM      6  C   UNL     1      58.839  35.700  76.474  0.00  0.00    +0.000 A 
ATOM      7  C   UNL     1      57.465  36.009  76.654  0.00  0.00    +0.000 A 
ATOM      8  C   UNL     1      56.899  36.122  77.937  0.00  0.00    +0.000 A 
ATOM      9  C   UNL     1      59.631  35.490  77.627  0.00  0.00    +0.000 A 
ATOM     10  C   UNL     1      58.697  35.661  81.030  0.00  0.00    +0.000 A 
ATOM     11  C   UNL     1      56.298  36.258  81.038  0.00  0.00    +0.000 C 
ENDROOT
BRANCH   7  14
ATOM     12  O   UNL     1      56.234  35.228  74.798  0.00  0.00    +0.000 OA
ATOM     13  N   UNL     1      56.115  37.486  75.243  0.00  0.00    +0.000 N 
ATOM     14  C   UNL     1      56.550  36.198  75.482  0.00  0.00    +0.000 C 
ATOM     15  H   UNL     1      56.637  38.294  75.558  0.00  0.00    +0.000 HD
BRANCH  13  16
ATOM     16  O   UNL     1      55.499  37.654  73.984  0.00  0.00    +0.000 OA
BRANCH  16  17
ATOM     17  C   UNL     1      56.252  38.524  73.314  0.00  0.00    +0.000 C 
ATOM     18  C   UNL     1      57.130  39.519  72.548  0.00  0.00    +0.000 C 
BRANCH  18  19
ATOM     19  O   UNL     1      57.898  40.378  71.886  0.00  0.00    +0.000 OA
ATOM     20  H   UNL     1      58.323  39.935  71.132  0.00  0.00    +0.000 HD
ENDBRANCH  18  19
ENDBRANCH  16  17
ENDBRANCH  13  16
ENDBRANCH   7  14
BRANCH   6  21
ATOM     21  N   UNL     1      59.396  35.637  75.170  0.00  0.00    +0.000 N 
ATOM     22  H   UNL     1      59.951  36.471  74.924  0.00  0.00    +0.000 HD
BRANCH  21  25
ATOM     23 BR   UNL     1      60.548  30.856  71.564  0.00  0.00    +0.000 Br
ATOM     24  F   UNL     1      58.236  35.360  72.684  0.00  0.00    +0.000 F 
ATOM     25  C   UNL     1      59.716  34.538  74.345  0.00  0.00    +0.000 A 
ATOM     26  C   UNL     1      59.089  34.408  73.095  0.00  0.00    +0.000 A 
ATOM     27  C   UNL     1      60.579  33.514  74.741  0.00  0.00    +0.000 A 
ATOM     28  C   UNL     1      59.328  33.322  72.258  0.00  0.00    +0.000 A 
ATOM     29  C   UNL     1      60.833  32.419  73.916  0.00  0.00    +0.000 A 
ATOM     30  C   UNL     1      60.205  32.333  72.680  0.00  0.00    +0.000 A 
ENDBRANCH  21  25
ENDBRANCH   6  21
TORSDOF 6
ENDMDL
MODEL 2
REMARK VINA RESULT:      -6.9      2.429      5.600
REMARK  Name = 10288191_Binimetinib.pdbqt.pdb
REMARK  6 active torsions:
REMARK  status: ('A' for Active; 'I' for Inactive)
REMARK    1  A    between atoms: C_6  and  N_21
REMARK    2  A    between atoms: C_7  and  C_14
REMARK    3  A    between atoms: N_13  and  O_16
REMARK    4  A    between atoms: O_16  and  C_17
REMARK    5  A    between atoms: C_18  and  O_19
REMARK    6  A    between atoms: N_21  and  C_25
REMARK                            x       y       z     vdW  Elec       q    Type
REMARK                         _______ _______ _______ _____ _____    ______ ____
ROOT
ATOM      1  F   UNL     1      60.362  38.730  74.007  0.00  0.00    +0.000 F 
ATOM      2  N   UNL     1      56.380  40.538  72.866  0.00  0.00    +0.000 N 
ATOM      3  N   UNL     1      58.577  40.690  72.724  0.00  0.00    +0.000 NA
ATOM      4  C   UNL     1      56.842  39.452  73.551  0.00  0.00    +0.000 A 
ATOM      5  C   UNL     1      58.225  39.564  73.446  0.00  0.00    +0.000 A 
ATOM      6  C   UNL     1      58.452  37.496  74.755  0.00  0.00    +0.000 A 
ATOM      7  C   UNL     1      57.036  37.436  74.845  0.00  0.00    +0.000 A 
ATOM      8  C   UNL     1      56.220  38.412  74.244  0.00  0.00    +0.000 A 
ATOM      9  C   UNL     1      59.029  38.581  74.055  0.00  0.00    +0.000 A 
ATOM     10  C   UNL     1      57.434  41.256  72.386  0.00  0.00    +0.000 A 
ATOM     11  C   UNL     1      55.008  40.867  72.661  0.00  0.00    +0.000 C 
ENDROOT
BRANCH   7  14
ATOM     12  O   UNL     1      56.180  35.250  75.082  0.00  0.00    +0.000 OA
ATOM     13  N   UNL     1      55.943  36.656  76.892  0.00  0.00    +0.000 N 
ATOM     14  C   UNL     1      56.350  36.346  75.610  0.00  0.00    +0.000 C 
ATOM     15  H   UNL     1      55.759  37.609  77.179  0.00  0.00    +0.000 HD
BRANCH  13  16
ATOM     16  O   UNL     1      55.064  35.706  77.456  0.00  0.00    +0.000 OA
BRANCH  16  17
ATOM     17  C   UNL     1      55.575  35.383  78.643  0.00  0.00    +0.000 C 
ATOM     18  C   UNL     1      56.164  35.026  80.011  0.00  0.00    +0.000 C 
BRANCH  18  19
ATOM     19  O   UNL     1      56.674  34.724  81.200  0.00  0.00    +0.000 OA
ATOM     20  H   UNL     1      55.964  34.649  81.860  0.00  0.00    +0.000 HD
ENDBRANCH  18  19
ENDBRANCH  16  17
ENDBRANCH  13  16
ENDBRANCH   7  14
BRANCH   6  21
ATOM     21  N   UNL     1      59.251  36.475  75.330  0.00  0.00    +0.000 N 
ATOM     22  H   UNL     1      59.225  36.471  76.362  0.00  0.00    +0.000 HD
BRANCH  21  25
ATOM     23 BR   UNL     1      61.401  31.197  73.160  0.00  0.00    +0.000 Br
ATOM     24  F   UNL     1      61.095  34.961  76.714  0.00  0.00    +0.000 F 
ATOM     25  C   UNL     1      59.697  35.239  74.818  0.00  0.00    +0.000 A 
ATOM     26  C   UNL     1      60.658  34.502  75.530  0.00  0.00    +0.000 A 
ATOM     27  C   UNL     1      59.286  34.734  73.582  0.00  0.00    +0.000 A 
ATOM     28  C   UNL     1      61.170  33.300  75.052  0.00  0.00    +0.000 A 
ATOM     29  C   UNL     1      59.787  33.531  73.086  0.00  0.00    +0.000 A 
ATOM     30  C   UNL     1      60.725  32.823  73.827  0.00  0.00    +0.000 A 
ENDBRANCH  21  25
ENDBRANCH   6  21
TORSDOF 6
ENDMDL
MODEL 3
REMARK VINA RESULT:      -6.4      3.793      6.215
REMARK  Name = 10288191_Binimetinib.pdbqt.pdb
REMARK  6 active torsions:
REMARK  status: ('A' for Active; 'I' for Inactive)
REMARK    1  A    between atoms: C_6  and  N_21
REMARK    2  A    between atoms: C_7  and  C_14
REMARK    3  A    between atoms: N_13  and  O_16
REMARK    4  A    between atoms: O_16  and  C_17
REMARK    5  A    between atoms: C_18  and  O_19
REMARK    6  A    between atoms: N_21  and  C_25
REMARK                            x       y       z     vdW  Elec       q    Type
REMARK                         _______ _______ _______ _____ _____    ______ ____
ROOT
ATOM      1  F   UNL     1      61.840  38.627  75.051  0.00  0.00    +0.000 F 
ATOM      2  N   UNL     1      57.509  38.581  73.757  0.00  0.00    +0.000 N 
ATOM      3  N   UNL     1      59.514  39.448  73.442  0.00  0.00    +0.000 NA
ATOM      4  C   UNL     1      58.306  37.936  74.659  0.00  0.00    +0.000 A 
ATOM      5  C   UNL     1      59.562  38.492  74.440  0.00  0.00    +0.000 A 
ATOM      6  C   UNL     1      60.468  37.038  76.202  0.00  0.00    +0.000 A 
ATOM      7  C   UNL     1      59.163  36.513  76.395  0.00  0.00    +0.000 A 
ATOM      8  C   UNL     1      58.072  36.957  75.626  0.00  0.00    +0.000 A 
ATOM      9  C   UNL     1      60.645  38.041  75.220  0.00  0.00    +0.000 A 
ATOM     10  C   UNL     1      58.254  39.474  73.049  0.00  0.00    +0.000 A 
ATOM     11  C   UNL     1      56.116  38.347  73.567  0.00  0.00    +0.000 C 
ENDROOT
BRANCH   7  14
ATOM     12  O   UNL     1      59.682  34.566  77.623  0.00  0.00    +0.000 OA
ATOM     13  N   UNL     1      57.720  35.642  78.171  0.00  0.00    +0.000 N 
ATOM     14  C   UNL     1      58.886  35.485  77.449  0.00  0.00    +0.000 C 
ATOM     15  H   UNL     1      56.928  36.153  77.803  0.00  0.00    +0.000 HD
BRANCH  13  16
ATOM     16  O   UNL     1      57.369  34.511  78.939  0.00  0.00    +0.000 OA
BRANCH  16  17
ATOM     17  C   UNL     1      57.320  34.921  80.205  0.00  0.00    +0.000 C 
ATOM     18  C   UNL     1      57.265  35.379  81.667  0.00  0.00    +0.000 C 
BRANCH  18  19
ATOM     19  O   UNL     1      57.219  35.768  82.936  0.00  0.00    +0.000 OA
ATOM     20  H   UNL     1      56.500  36.411  83.063  0.00  0.00    +0.000 HD
ENDBRANCH  18  19
ENDBRANCH  16  17
ENDBRANCH  13  16
ENDBRANCH   7  14
BRANCH   6  21
ATOM     21  N   UNL     1      61.561  36.541  76.960  0.00  0.00    +0.000 N 
ATOM     22  H   UNL     1      61.308  36.309  77.933  0.00  0.00    +0.000 HD
BRANCH  21  25
ATOM     23 BR   UNL     1      66.774  33.965  75.123  0.00  0.00    +0.000 Br
ATOM     24  F   UNL     1      63.958  37.904  76.979  0.00  0.00    +0.000 F 
ATOM     25  C   UNL     1      62.755  35.902  76.566  0.00  0.00    +0.000 A 
ATOM     26  C   UNL     1      63.957  36.628  76.559  0.00  0.00    +0.000 A 
ATOM     27  C   UNL     1      62.797  34.586  76.101  0.00  0.00    +0.000 A 
ATOM     28  C   UNL     1      65.157  36.066  76.136  0.00  0.00    +0.000 A 
ATOM     29  C   UNL     1      63.990  34.004  75.674  0.00  0.00    +0.000 A 
ATOM     30  C   UNL     1      65.162  34.750  75.696  0.00  0.00    +0.000 A 
ENDBRANCH  21  25
ENDBRANCH   6  21
TORSDOF 6
ENDMDL
MODEL 4
REMARK VINA RESULT:      -6.3      2.956      6.022
REMARK  Name = 10288191_Binimetinib.pdbqt.pdb
REMARK  6 active torsions:
REMARK  status: ('A' for Active; 'I' for Inactive)
REMARK    1  A    between atoms: C_6  and  N_21
REMARK    2  A    between atoms: C_7  and  C_14
REMARK    3  A    between atoms: N_13  and  O_16
REMARK    4  A    between atoms: O_16  and  C_17
REMARK    5  A    between atoms: C_18  and  O_19
REMARK    6  A    between atoms: N_21  and  C_25
REMARK                            x       y       z     vdW  Elec       q    Type
REMARK                         _______ _______ _______ _____ _____    ______ ____
ROOT
ATOM      1  F   UNL     1      59.154  37.823  73.058  0.00  0.00    +0.000 F 
ATOM      2  N   UNL     1      56.179  41.226  73.074  0.00  0.00    +0.000 N 
ATOM      3  N   UNL     1      57.993  40.374  72.151  0.00  0.00    +0.000 NA
ATOM      4  C   UNL     1      56.378  40.049  73.736  0.00  0.00    +0.000 A 
ATOM      5  C   UNL     1      57.521  39.528  73.138  0.00  0.00    +0.000 A 
ATOM      6  C   UNL     1      57.366  37.582  74.631  0.00  0.00    +0.000 A 
ATOM      7  C   UNL     1      56.212  38.165  75.218  0.00  0.00    +0.000 A 
ATOM      8  C   UNL     1      55.708  39.402  74.776  0.00  0.00    +0.000 A 
ATOM      9  C   UNL     1      58.015  38.290  73.593  0.00  0.00    +0.000 A 
ATOM     10  C   UNL     1      57.154  41.392  72.138  0.00  0.00    +0.000 A 
ATOM     11  C   UNL     1      55.106  42.136  73.306  0.00  0.00    +0.000 C 
ENDROOT
BRANCH   7  14
ATOM     12  O   UNL     1      54.373  37.040  76.178  0.00  0.00    +0.000 OA
ATOM     13  N   UNL     1      56.169  37.452  77.560  0.00  0.00    +0.000 N 
ATOM     14  C   UNL     1      55.497  37.501  76.355  0.00  0.00    +0.000 C 
ATOM     15  H   UNL     1      56.895  38.117  77.795  0.00  0.00    +0.000 HD
BRANCH  13  16
ATOM     16  O   UNL     1      55.355  37.080  78.652  0.00  0.00    +0.000 OA
BRANCH  16  17
ATOM     17  C   UNL     1      55.865  35.947  79.129  0.00  0.00    +0.000 C 
ATOM     18  C   UNL     1      56.462  34.643  79.669  0.00  0.00    +0.000 C 
BRANCH  18  19
ATOM     19  O   UNL     1      56.985  33.513  80.131  0.00  0.00    +0.000 OA
ATOM     20  H   UNL     1      57.907  33.658  80.404  0.00  0.00    +0.000 HD
ENDBRANCH  18  19
ENDBRANCH  16  17
ENDBRANCH  13  16
ENDBRANCH   7  14
BRANCH   6  21
ATOM     21  N   UNL     1      57.827  36.312  75.064  0.00  0.00    +0.000 N 
ATOM     22  H   UNL     1      57.272  35.528  74.688  0.00  0.00    +0.000 HD
BRANCH  21  25
ATOM     23 BR   UNL     1      63.249  34.238  76.933  0.00  0.00    +0.000 Br
ATOM     24  F   UNL     1      59.418  34.718  73.472  0.00  0.00    +0.000 F 
ATOM     25  C   UNL     1      59.094  35.882  75.513  0.00  0.00    +0.000 A 
ATOM     26  C   UNL     1      59.872  35.049  74.692  0.00  0.00    +0.000 A 
ATOM     27  C   UNL     1      59.595  36.183  76.781  0.00  0.00    +0.000 A 
ATOM     28  C   UNL     1      61.107  34.556  75.099  0.00  0.00    +0.000 A 
ATOM     29  C   UNL     1      60.832  35.700  77.208  0.00  0.00    +0.000 A 
ATOM     30  C   UNL     1      61.579  34.890  76.361  0.00  0.00    +0.000 A 
ENDBRANCH  21  25
ENDBRANCH   6  21
TORSDOF 6
ENDMDL
MODEL 5
REMARK VINA RESULT:      -6.2      2.621      5.639
REMARK  Name = 10288191_Binimetinib.pdbqt.pdb
REMARK  6 active torsions:
REMARK  status: ('A' for Active; 'I' for Inactive)
REMARK    1  A    between atoms: C_6  and  N_21
REMARK    2  A    between atoms: C_7  and  C_14
REMARK    3  A    between atoms: N_13  and  O_16
REMARK    4  A    between atoms: O_16  and  C_17
REMARK    5  A    between atoms: C_18  and  O_19
REMARK    6  A    between atoms: N_21  and  C_25
REMARK                            x       y       z     vdW  Elec       q    Type
REMARK                         _______ _______ _______ _____ _____    ______ ____
ROOT
ATOM      1  F   UNL     1      58.743  36.602  71.513  0.00  0.00    +0.000 F 
ATOM      2  N   UNL     1      56.441  40.219  72.944  0.00  0.00    +0.000 N 
ATOM      3  N   UNL     1      57.655  39.332  71.328  0.00  0.00    +0.000 NA
ATOM      4  C   UNL     1      56.726  38.958  73.383  0.00  0.00    +0.000 A 
ATOM      5  C   UNL     1      57.486  38.417  72.351  0.00  0.00    +0.000 A 
ATOM      6  C   UNL     1      57.662  36.326  73.630  0.00  0.00    +0.000 A 
ATOM      7  C   UNL     1      56.895  36.930  74.661  0.00  0.00    +0.000 A 
ATOM      8  C   UNL     1      56.421  38.250  74.547  0.00  0.00    +0.000 A 
ATOM      9  C   UNL     1      57.956  37.096  72.481  0.00  0.00    +0.000 A 
ATOM     10  C   UNL     1      57.006  40.413  71.720  0.00  0.00    +0.000 A 
ATOM     11  C   UNL     1      55.656  41.182  73.642  0.00  0.00    +0.000 C 
ENDROOT
BRANCH   7  14
ATOM     12  O   UNL     1      55.797  35.254  75.907  0.00  0.00    +0.000 OA
ATOM     13  N   UNL     1      57.214  36.648  77.072  0.00  0.00    +0.000 N 
ATOM     14  C   UNL     1      56.582  36.198  75.930  0.00  0.00    +0.000 C 
ATOM     15  H   UNL     1      57.552  37.598  77.157  0.00  0.00    +0.000 HD
BRANCH  13  16
ATOM     16  O   UNL     1      56.677  36.119  78.266  0.00  0.00    +0.000 OA
BRANCH  16  17
ATOM     17  C   UNL     1      57.674  35.476  78.871  0.00  0.00    +0.000 C 
ATOM     18  C   UNL     1      58.814  34.725  79.568  0.00  0.00    +0.000 C 
BRANCH  18  19
ATOM     19  O   UNL     1      59.797  34.067  80.173  0.00  0.00    +0.000 OA
ATOM     20  H   UNL     1      60.248  34.649  80.808  0.00  0.00    +0.000 HD
ENDBRANCH  18  19
ENDBRANCH  16  17
ENDBRANCH  13  16
ENDBRANCH   7  14
BRANCH   6  21
ATOM     21  N   UNL     1      58.089  34.978  73.750  0.00  0.00    +0.000 N 
ATOM     22  H   UNL     1      57.317  34.298  73.667  0.00  0.00    +0.000 HD
BRANCH  21  25
ATOM     23 BR   UNL     1      63.402  32.151  72.768  0.00  0.00    +0.000 Br
ATOM     24  F   UNL     1      58.346  32.930  71.922  0.00  0.00    +0.000 F 
ATOM     25  C   UNL     1      59.342  34.373  73.519  0.00  0.00    +0.000 A 
ATOM     26  C   UNL     1      59.439  33.313  72.602  0.00  0.00    +0.000 A 
ATOM     27  C   UNL     1      60.499  34.725  74.219  0.00  0.00    +0.000 A 
ATOM     28  C   UNL     1      60.637  32.647  72.367  0.00  0.00    +0.000 A 
ATOM     29  C   UNL     1      61.710  34.070  73.997  0.00  0.00    +0.000 A 
ATOM     30  C   UNL     1      61.768  33.035  73.071  0.00  0.00    +0.000 A 
ENDBRANCH  21  25
ENDBRANCH   6  21
TORSDOF 6
ENDMDL
MODEL 6
REMARK VINA RESULT:      -6.2      3.513      5.666
REMARK  Name = 10288191_Binimetinib.pdbqt.pdb
REMARK  6 active torsions:
REMARK  status: ('A' for Active; 'I' for Inactive)
REMARK    1  A    between atoms: C_6  and  N_21
REMARK    2  A    between atoms: C_7  and  C_14
REMARK    3  A    between atoms: N_13  and  O_16
REMARK    4  A    between atoms: O_16  and  C_17
REMARK    5  A    between atoms: C_18  and  O_19
REMARK    6  A    between atoms: N_21  and  C_25
REMARK                            x       y       z     vdW  Elec       q    Type
REMARK                         _______ _______ _______ _____ _____    ______ ____
ROOT
ATOM      1  F   UNL     1      63.600  32.662  74.629  0.00  0.00    +0.000 F 
ATOM      2  N   UNL     1      64.487  36.797  76.225  0.00  0.00    +0.000 N 
ATOM      3  N   UNL     1      65.317  34.932  75.388  0.00  0.00    +0.000 NA
ATOM      4  C   UNL     1      63.394  36.017  75.979  0.00  0.00    +0.000 A 
ATOM      5  C   UNL     1      63.938  34.851  75.450  0.00  0.00    +0.000 A 
ATOM      6  C   UNL     1      61.666  33.939  75.228  0.00  0.00    +0.000 A 
ATOM      7  C   UNL     1      61.163  35.144  75.787  0.00  0.00    +0.000 A 
ATOM      8  C   UNL     1      62.021  36.192  76.167  0.00  0.00    +0.000 A 
ATOM      9  C   UNL     1      63.066  33.809  75.077  0.00  0.00    +0.000 A 
ATOM     10  C   UNL     1      65.615  36.126  75.863  0.00  0.00    +0.000 A 
ATOM     11  C   UNL     1      64.458  38.119  76.757  0.00  0.00    +0.000 C 
ENDROOT
BRANCH   7  14
ATOM     12  O   UNL     1      58.939  35.462  75.066  0.00  0.00    +0.000 OA
ATOM     13  N   UNL     1      59.285  35.370  77.342  0.00  0.00    +0.000 N 
ATOM     14  C   UNL     1      59.697  35.339  76.025  0.00  0.00    +0.000 C 
ATOM     15  H   UNL     1      59.915  35.627  78.093  0.00  0.00    +0.000 HD
BRANCH  13  16
ATOM     16  O   UNL     1      57.963  35.835  77.515  0.00  0.00    +0.000 OA
BRANCH  16  17
ATOM     17  C   UNL     1      57.615  35.511  78.759  0.00  0.00    +0.000 C 
ATOM     18  C   UNL     1      57.225  35.133  80.192  0.00  0.00    +0.000 C 
BRANCH  18  19
ATOM     19  O   UNL     1      56.896  34.804  81.436  0.00  0.00    +0.000 OA
ATOM     20  H   UNL     1      56.837  35.601  81.990  0.00  0.00    +0.000 HD
ENDBRANCH  18  19
ENDBRANCH  16  17
ENDBRANCH  13  16
ENDBRANCH   7  14
BRANCH   6  21
ATOM     21  N   UNL     1      60.776  32.916  74.811  0.00  0.00    +0.000 N 
ATOM     22  H   UNL     1      59.963  32.805  75.436  0.00  0.00    +0.000 HD
BRANCH  21  25
ATOM     23 BR   UNL     1      59.974  30.392  69.318  0.00  0.00    +0.000 Br
ATOM     24  F   UNL     1      61.702  30.389  74.207  0.00  0.00    +0.000 F 
ATOM     25  C   UNL     1      60.538  32.347  73.543  0.00  0.00    +0.000 A 
ATOM     26  C   UNL     1      61.045  31.069  73.253  0.00  0.00    +0.000 A 
ATOM     27  C   UNL     1      59.880  33.025  72.515  0.00  0.00    +0.000 A 
ATOM     28  C   UNL     1      60.883  30.476  72.005  0.00  0.00    +0.000 A 
ATOM     29  C   UNL     1      59.706  32.447  71.257  0.00  0.00    +0.000 A 
ATOM     30  C   UNL     1      60.210  31.175  71.013  0.00  0.00    +0.000 A 
ENDBRANCH  21  25
ENDBRANCH   6  21
TORSDOF 6
ENDMDL
MODEL 7
REMARK VINA RESULT:      -6.0      3.328      4.689
REMARK  Name = 10288191_Binimetinib.pdbqt.pdb
REMARK  6 active torsions:
REMARK  status: ('A' for Active; 'I' for Inactive)
REMARK    1  A    between atoms: C_6  and  N_21
REMARK    2  A    between atoms: C_7  and  C_14
REMARK    3  A    between atoms: N_13  and  O_16
REMARK    4  A    between atoms: O_16  and  C_17
REMARK    5  A    between atoms: C_18  and  O_19
REMARK    6  A    between atoms: N_21  and  C_25
REMARK                            x       y       z     vdW  Elec       q    Type
REMARK                         _______ _______ _______ _____ _____    ______ ____
ROOT
ATOM      1  F   UNL     1      57.628  35.448  72.999  0.00  0.00    +0.000 F 
ATOM      2  N   UNL     1      56.486  36.468  77.252  0.00  0.00    +0.000 N 
ATOM      3  N   UNL     1      55.783  36.152  75.184  0.00  0.00    +0.000 NA
ATOM      4  C   UNL     1      57.612  36.136  76.556  0.00  0.00    +0.000 A 
ATOM      5  C   UNL     1      57.147  35.938  75.259  0.00  0.00    +0.000 A 
ATOM      6  C   UNL     1      59.443  35.405  74.560  0.00  0.00    +0.000 A 
ATOM      7  C   UNL     1      59.867  35.634  75.896  0.00  0.00    +0.000 A 
ATOM      8  C   UNL     1      58.957  36.001  76.904  0.00  0.00    +0.000 A 
ATOM      9  C   UNL     1      58.070  35.574  74.260  0.00  0.00    +0.000 A 
ATOM     10  C   UNL     1      55.415  36.470  76.411  0.00  0.00    +0.000 A 
ATOM     11  C   UNL     1      56.428  36.750  78.648  0.00  0.00    +0.000 C 
ENDROOT
BRANCH   7  14
ATOM     12  O   UNL     1      61.787  34.421  76.537  0.00  0.00    +0.000 OA
ATOM     13  N   UNL     1      62.027  36.704  76.332  0.00  0.00    +0.000 N 
ATOM     14  C   UNL     1      61.311  35.524  76.283  0.00  0.00    +0.000 C 
ATOM     15  H   UNL     1      61.575  37.598  76.478  0.00  0.00    +0.000 HD
BRANCH  13  16
ATOM     16  O   UNL     1      63.281  36.582  76.968  0.00  0.00    +0.000 OA
BRANCH  16  17
ATOM     17  C   UNL     1      64.021  37.599  76.529  0.00  0.00    +0.000 C 
ATOM     18  C   UNL     1      64.865  38.770  76.013  0.00  0.00    +0.000 C 
BRANCH  18  19
ATOM     19  O   UNL     1      65.590  39.786  75.560  0.00  0.00    +0.000 OA
ATOM     20  H   UNL     1      65.907  40.329  76.302  0.00  0.00    +0.000 HD
ENDBRANCH  18  19
ENDBRANCH  16  17
ENDBRANCH  13  16
ENDBRANCH   7  14
BRANCH   6  21
ATOM     21  N   UNL     1      60.373  34.992  73.572  0.00  0.00    +0.000 N 
ATOM     22  H   UNL     1      61.296  35.443  73.669  0.00  0.00    +0.000 HD
BRANCH  21  25
ATOM     23 BR   UNL     1      60.515  29.996  70.079  0.00  0.00    +0.000 Br
ATOM     24  F   UNL     1      60.345  35.126  70.818  0.00  0.00    +0.000 F 
ATOM     25  C   UNL     1      60.447  33.818  72.794  0.00  0.00    +0.000 A 
ATOM     26  C   UNL     1      60.403  33.913  71.393  0.00  0.00    +0.000 A 
ATOM     27  C   UNL     1      60.487  32.537  73.350  0.00  0.00    +0.000 A 
ATOM     28  C   UNL     1      60.425  32.789  70.575  0.00  0.00    +0.000 A 
ATOM     29  C   UNL     1      60.511  31.397  72.547  0.00  0.00    +0.000 A 
ATOM     30  C   UNL     1      60.481  31.533  71.164  0.00  0.00    +0.000 A 
ENDBRANCH  21  25
ENDBRANCH   6  21
TORSDOF 6
ENDMDL
MODEL 8
REMARK VINA RESULT:      -6.0      3.538      6.833
REMARK  Name = 10288191_Binimetinib.pdbqt.pdb
REMARK  6 active torsions:
REMARK  status: ('A' for Active; 'I' for Inactive)
REMARK    1  A    between atoms: C_6  and  N_21
REMARK    2  A    between atoms: C_7  and  C_14
REMARK    3  A    between atoms: N_13  and  O_16
REMARK    4  A    between atoms: O_16  and  C_17
REMARK    5  A    between atoms: C_18  and  O_19
REMARK    6  A    between atoms: N_21  and  C_25
REMARK                            x       y       z     vdW  Elec       q    Type
REMARK                         _______ _______ _______ _____ _____    ______ ____
ROOT
ATOM      1  F   UNL     1      58.230  35.399  72.041  0.00  0.00    +0.000 F 
ATOM      2  N   UNL     1      61.609  33.717  74.529  0.00  0.00    +0.000 N 
ATOM      3  N   UNL     1      60.665  33.817  72.537  0.00  0.00    +0.000 NA
ATOM      4  C   UNL     1      60.544  34.555  74.697  0.00  0.00    +0.000 A 
ATOM      5  C   UNL     1      59.968  34.608  73.432  0.00  0.00    +0.000 A 
ATOM      6  C   UNL     1      58.264  36.143  74.316  0.00  0.00    +0.000 A 
ATOM      7  C   UNL     1      58.882  36.043  75.590  0.00  0.00    +0.000 A 
ATOM      8  C   UNL     1      60.026  35.249  75.792  0.00  0.00    +0.000 A 
ATOM      9  C   UNL     1      58.821  35.404  73.246  0.00  0.00    +0.000 A 
ATOM     10  C   UNL     1      61.655  33.294  73.235  0.00  0.00    +0.000 A 
ATOM     11  C   UNL     1      62.544  33.353  75.541  0.00  0.00    +0.000 C 
ENDROOT
BRANCH   7  14
ATOM     12  O   UNL     1      58.540  37.956  76.929  0.00  0.00    +0.000 OA
ATOM     13  N   UNL     1      57.584  35.993  77.666  0.00  0.00    +0.000 N 
ATOM     14  C   UNL     1      58.323  36.755  76.784  0.00  0.00    +0.000 C 
ATOM     15  H   UNL     1      57.709  34.991  77.741  0.00  0.00    +0.000 HD
BRANCH  13  16
ATOM     16  O   UNL     1      57.328  36.635  78.898  0.00  0.00    +0.000 OA
BRANCH  16  17
ATOM     17  C   UNL     1      57.962  35.924  79.828  0.00  0.00    +0.000 C 
ATOM     18  C   UNL     1      58.683  35.110  80.908  0.00  0.00    +0.000 C 
BRANCH  18  19
ATOM     19  O   UNL     1      59.302  34.406  81.849  0.00  0.00    +0.000 OA
ATOM     20  H   UNL     1      58.775  34.403  82.666  0.00  0.00    +0.000 HD
ENDBRANCH  18  19
ENDBRANCH  16  17
ENDBRANCH  13  16
ENDBRANCH   7  14
BRANCH   6  21
ATOM     21  N   UNL     1      57.138  36.985  74.129  0.00  0.00    +0.000 N 
ATOM     22  H   UNL     1      56.359  36.772  74.772  0.00  0.00    +0.000 HD
BRANCH  21  25
ATOM     23 BR   UNL     1      56.409  42.579  71.813  0.00  0.00    +0.000 Br
ATOM     24  F   UNL     1      55.593  38.900  75.374  0.00  0.00    +0.000 F 
ATOM     25  C   UNL     1      57.023  38.282  73.586  0.00  0.00    +0.000 A 
ATOM     26  C   UNL     1      56.207  39.230  74.227  0.00  0.00    +0.000 A 
ATOM     27  C   UNL     1      57.626  38.661  72.385  0.00  0.00    +0.000 A 
ATOM     28  C   UNL     1      56.018  40.509  73.713  0.00  0.00    +0.000 A 
ATOM     29  C   UNL     1      57.450  39.939  71.855  0.00  0.00    +0.000 A 
ATOM     30  C   UNL     1      56.647  40.853  72.525  0.00  0.00    +0.000 A 
ENDBRANCH  21  25
ENDBRANCH   6  21
TORSDOF 6
ENDMDL
MODEL 9
REMARK VINA RESULT:      -5.9      4.544      6.264
REMARK  Name = 10288191_Binimetinib.pdbqt.pdb
REMARK  6 active torsions:
REMARK  status: ('A' for Active; 'I' for Inactive)
REMARK    1  A    between atoms: C_6  and  N_21
REMARK    2  A    between atoms: C_7  and  C_14
REMARK    3  A    between atoms: N_13  and  O_16
REMARK    4  A    between atoms: O_16  and  C_17
REMARK    5  A    between atoms: C_18  and  O_19
REMARK    6  A    between atoms: N_21  and  C_25
REMARK                            x       y       z     vdW  Elec       q    Type
REMARK                         _______ _______ _______ _____ _____    ______ ____
ROOT
ATOM      1  F   UNL     1      59.979  39.539  75.283  0.00  0.00    +0.000 F 
ATOM      2  N   UNL     1      56.668  37.352  77.447  0.00  0.00    +0.000 N 
ATOM      3  N   UNL     1      57.388  39.284  76.659  0.00  0.00    +0.000 NA
ATOM      4  C   UNL     1      57.867  37.058  76.866  0.00  0.00    +0.000 A 
ATOM      5  C   UNL     1      58.301  38.285  76.373  0.00  0.00    +0.000 A 
ATOM      6  C   UNL     1      60.321  37.181  75.513  0.00  0.00    +0.000 A 
ATOM      7  C   UNL     1      59.840  35.957  76.048  0.00  0.00    +0.000 A 
ATOM      8  C   UNL     1      58.611  35.884  76.728  0.00  0.00    +0.000 A 
ATOM      9  C   UNL     1      59.535  38.343  75.697  0.00  0.00    +0.000 A 
ATOM     10  C   UNL     1      56.409  38.682  77.309  0.00  0.00    +0.000 A 
ATOM     11  C   UNL     1      55.804  36.414  78.084  0.00  0.00    +0.000 C 
ENDROOT
BRANCH   7  14
ATOM     12  O   UNL     1      61.472  34.426  76.799  0.00  0.00    +0.000 OA
ATOM     13  N   UNL     1      60.374  33.893  74.844  0.00  0.00    +0.000 N 
ATOM     14  C   UNL     1      60.637  34.693  75.938  0.00  0.00    +0.000 C 
ATOM     15  H   UNL     1      59.979  34.267  73.991  0.00  0.00    +0.000 HD
BRANCH  13  16
ATOM     16  O   UNL     1      61.333  32.878  74.637  0.00  0.00    +0.000 OA
BRANCH  16  17
ATOM     17  C   UNL     1      60.827  32.070  73.708  0.00  0.00    +0.000 C 
ATOM     18  C   UNL     1      60.237  31.134  72.648  0.00  0.00    +0.000 C 
BRANCH  18  19
ATOM     19  O   UNL     1      59.720  30.319  71.734  0.00  0.00    +0.000 OA
ATOM     20  H   UNL     1      59.121  29.680  72.156  0.00  0.00    +0.000 HD
ENDBRANCH  18  19
ENDBRANCH  16  17
ENDBRANCH  13  16
ENDBRANCH   7  14
BRANCH   6  21
ATOM     21  N   UNL     1      61.542  37.218  74.792  0.00  0.00    +0.000 N 
ATOM     22  H   UNL     1      61.445  36.913  73.811  0.00  0.00    +0.000 HD
BRANCH  21  25
ATOM     23 BR   UNL     1      66.563  40.511  75.860  0.00  0.00    +0.000 Br
ATOM     24  F   UNL     1      63.189  36.727  76.949  0.00  0.00    +0.000 F 
ATOM     25  C   UNL     1      62.718  37.974  74.987  0.00  0.00    +0.000 A 
ATOM     26  C   UNL     1      63.524  37.720  76.109  0.00  0.00    +0.000 A 
ATOM     27  C   UNL     1      63.092  39.029  74.153  0.00  0.00    +0.000 A 
ATOM     28  C   UNL     1      64.669  38.463  76.380  0.00  0.00    +0.000 A 
ATOM     29  C   UNL     1      64.237  39.784  74.405  0.00  0.00    +0.000 A 
ATOM     30  C   UNL     1      65.017  39.494  75.518  0.00  0.00    +0.000 A 
ENDBRANCH  21  25
ENDBRANCH   6  21
TORSDOF 6
ENDMDL
