MODEL 1
REMARK VINA RESULT:      -6.6      0.000      0.000
REMARK  Name = 10639_Physcion.pdbqt.pdb
REMARK  3 active torsions:
REMARK  status: ('A' for Active; 'I' for Inactive)
REMARK    1  A    between atoms: C_10  and  O_18
REMARK    2  A    between atoms: C_12  and  O_20
REMARK    3  A    between atoms: C_15  and  O_22
REMARK                            x       y       z     vdW  Elec       q    Type
REMARK                         _______ _______ _______ _____ _____    ______ ____
ROOT
ATOM      1  O   UNL     1      61.332  34.210  76.061  0.00  0.00    +0.000 OA
ATOM      2  O   UNL     1      57.989  34.757  71.949  0.00  0.00    +0.000 OA
ATOM      3  C   UNL     1      58.918  35.687  73.882  0.00  0.00    +0.000 A 
ATOM      4  C   UNL     1      59.794  35.535  74.954  0.00  0.00    +0.000 A 
ATOM      5  C   UNL     1      60.422  33.200  74.099  0.00  0.00    +0.000 A 
ATOM      6  C   UNL     1      59.537  33.380  73.035  0.00  0.00    +0.000 A 
ATOM      7  C   UNL     1      60.576  34.288  75.100  0.00  0.00    +0.000 C 
ATOM      8  C   UNL     1      58.760  34.619  72.889  0.00  0.00    +0.000 C 
ATOM      9  C   UNL     1      58.173  36.858  73.729  0.00  0.00    +0.000 A 
ATOM     10  C   UNL     1      59.915  36.581  75.879  0.00  0.00    +0.000 A 
ATOM     11  C   UNL     1      58.304  37.887  74.655  0.00  0.00    +0.000 A 
ATOM     12  C   UNL     1      61.130  31.994  74.175  0.00  0.00    +0.000 A 
ATOM     13  C   UNL     1      59.359  32.384  72.069  0.00  0.00    +0.000 A 
ATOM     14  C   UNL     1      59.173  37.754  75.732  0.00  0.00    +0.000 A 
ATOM     15  C   UNL     1      60.066  31.188  72.151  0.00  0.00    +0.000 A 
ATOM     16  C   UNL     1      60.952  31.001  73.210  0.00  0.00    +0.000 A 
ATOM     17  C   UNL     1      57.502  39.143  74.488  0.00  0.00    +0.000 C 
ENDROOT
BRANCH  10  18
ATOM     18  O   UNL     1      60.748  36.526  76.964  0.00  0.00    +0.000 OA
ATOM     19  H   UNL     1      61.462  37.197  76.852  0.00  0.00    +0.000 HD
ENDBRANCH  10  18
BRANCH  12  20
ATOM     20  O   UNL     1      62.013  31.746  75.187  0.00  0.00    +0.000 OA
ATOM     21  H   UNL     1      62.149  30.787  75.283  0.00  0.00    +0.000 HD
ENDBRANCH  12  20
BRANCH  15  22
ATOM     22  O   UNL     1      59.821  30.276  71.155  0.00  0.00    +0.000 OA
ATOM     23  C   UNL     1      60.950  29.868  70.432  0.00  0.00    +0.000 C 
ENDBRANCH  15  22
TORSDOF 3
ENDMDL
MODEL 2
REMARK VINA RESULT:      -6.5      1.247      5.902
REMARK  Name = 10639_Physcion.pdbqt.pdb
REMARK  3 active torsions:
REMARK  status: ('A' for Active; 'I' for Inactive)
REMARK    1  A    between atoms: C_10  and  O_18
REMARK    2  A    between atoms: C_12  and  O_20
REMARK    3  A    between atoms: C_15  and  O_22
REMARK                            x       y       z     vdW  Elec       q    Type
REMARK                         _______ _______ _______ _____ _____    ______ ____
ROOT
ATOM      1  O   UNL     1      61.222  34.329  76.227  0.00  0.00    +0.000 OA
ATOM      2  O   UNL     1      57.877  34.930  72.124  0.00  0.00    +0.000 OA
ATOM      3  C   UNL     1      59.504  33.623  73.176  0.00  0.00    +0.000 A 
ATOM      4  C   UNL     1      60.376  33.475  74.252  0.00  0.00    +0.000 A 
ATOM      5  C   UNL     1      59.567  35.713  75.207  0.00  0.00    +0.000 A 
ATOM      6  C   UNL     1      58.703  35.835  74.117  0.00  0.00    +0.000 A 
ATOM      7  C   UNL     1      60.437  34.513  75.303  0.00  0.00    +0.000 C 
ATOM      8  C   UNL     1      58.640  34.804  73.071  0.00  0.00    +0.000 C 
ATOM      9  C   UNL     1      59.434  32.653  72.174  0.00  0.00    +0.000 A 
ATOM     10  C   UNL     1      61.184  32.330  74.312  0.00  0.00    +0.000 A 
ATOM     11  C   UNL     1      60.241  31.523  72.248  0.00  0.00    +0.000 A 
ATOM     12  C   UNL     1      59.572  36.734  76.165  0.00  0.00    +0.000 A 
ATOM     13  C   UNL     1      57.864  36.947  73.984  0.00  0.00    +0.000 A 
ATOM     14  C   UNL     1      61.118  31.357  73.314  0.00  0.00    +0.000 A 
ATOM     15  C   UNL     1      57.875  37.958  74.940  0.00  0.00    +0.000 A 
ATOM     16  C   UNL     1      58.735  37.843  76.030  0.00  0.00    +0.000 A 
ATOM     17  C   UNL     1      60.163  30.483  71.171  0.00  0.00    +0.000 C 
ENDROOT
BRANCH  10  18
ATOM     18  O   UNL     1      62.070  32.095  75.328  0.00  0.00    +0.000 OA
ATOM     19  H   UNL     1      62.490  31.214  75.187  0.00  0.00    +0.000 HD
ENDBRANCH  10  18
BRANCH  12  20
ATOM     20  O   UNL     1      60.390  36.684  77.257  0.00  0.00    +0.000 OA
ATOM     21  H   UNL     1      60.399  35.782  77.625  0.00  0.00    +0.000 HD
ENDBRANCH  12  20
BRANCH  15  22
ATOM     22  O   UNL     1      57.016  39.005  74.717  0.00  0.00    +0.000 OA
ATOM     23  C   UNL     1      56.234  39.375  75.820  0.00  0.00    +0.000 C 
ENDBRANCH  15  22
TORSDOF 3
ENDMDL
MODEL 3
REMARK VINA RESULT:      -6.2      4.256      6.140
REMARK  Name = 10639_Physcion.pdbqt.pdb
REMARK  3 active torsions:
REMARK  status: ('A' for Active; 'I' for Inactive)
REMARK    1  A    between atoms: C_10  and  O_18
REMARK    2  A    between atoms: C_12  and  O_20
REMARK    3  A    between atoms: C_15  and  O_22
REMARK                            x       y       z     vdW  Elec       q    Type
REMARK                         _______ _______ _______ _____ _____    ______ ____
ROOT
ATOM      1  O   UNL     1      59.037  35.346  76.855  0.00  0.00    +0.000 OA
ATOM      2  O   UNL     1      60.241  39.524  73.777  0.00  0.00    +0.000 OA
ATOM      3  C   UNL     1      60.998  37.827  75.196  0.00  0.00    +0.000 A 
ATOM      4  C   UNL     1      60.674  36.736  75.998  0.00  0.00    +0.000 A 
ATOM      5  C   UNL     1      58.196  37.055  75.417  0.00  0.00    +0.000 A 
ATOM      6  C   UNL     1      58.550  38.144  74.620  0.00  0.00    +0.000 A 
ATOM      7  C   UNL     1      59.264  36.313  76.137  0.00  0.00    +0.000 C 
ATOM      8  C   UNL     1      59.952  38.567  74.481  0.00  0.00    +0.000 C 
ATOM      9  C   UNL     1      62.324  38.241  75.053  0.00  0.00    +0.000 A 
ATOM     10  C   UNL     1      61.705  36.058  76.663  0.00  0.00    +0.000 A 
ATOM     11  C   UNL     1      63.336  37.558  75.719  0.00  0.00    +0.000 A 
ATOM     12  C   UNL     1      56.841  36.710  75.503  0.00  0.00    +0.000 A 
ATOM     13  C   UNL     1      57.581  38.874  73.924  0.00  0.00    +0.000 A 
ATOM     14  C   UNL     1      63.033  36.466  76.525  0.00  0.00    +0.000 A 
ATOM     15  C   UNL     1      56.237  38.525  74.013  0.00  0.00    +0.000 A 
ATOM     16  C   UNL     1      55.875  37.439  74.807  0.00  0.00    +0.000 A 
ATOM     17  C   UNL     1      64.759  38.004  75.565  0.00  0.00    +0.000 C 
ENDROOT
BRANCH  10  18
ATOM     18  O   UNL     1      61.486  34.976  77.473  0.00  0.00    +0.000 OA
ATOM     19  H   UNL     1      62.048  34.228  77.163  0.00  0.00    +0.000 HD
ENDBRANCH  10  18
BRANCH  12  20
ATOM     20  O   UNL     1      56.420  35.657  76.262  0.00  0.00    +0.000 OA
ATOM     21  H   UNL     1      56.021  35.982  77.089  0.00  0.00    +0.000 HD
ENDBRANCH  12  20
BRANCH  15  22
ATOM     22  O   UNL     1      55.365  39.302  73.293  0.00  0.00    +0.000 OA
ATOM     23  C   UNL     1      55.706  40.660  73.213  0.00  0.00    +0.000 C 
ENDBRANCH  15  22
TORSDOF 3
ENDMDL
MODEL 4
REMARK VINA RESULT:      -5.8     45.911     46.317
REMARK  Name = 10639_Physcion.pdbqt.pdb
REMARK  3 active torsions:
REMARK  status: ('A' for Active; 'I' for Inactive)
REMARK    1  A    between atoms: C_10  and  O_18
REMARK    2  A    between atoms: C_12  and  O_20
REMARK    3  A    between atoms: C_15  and  O_22
REMARK                            x       y       z     vdW  Elec       q    Type
REMARK                         _______ _______ _______ _____ _____    ______ ____
ROOT
ATOM      1  O   UNL     1      19.009  20.161  94.184  0.00  0.00    +0.000 OA
ATOM      2  O   UNL     1      22.980  17.191  92.237  0.00  0.00    +0.000 OA
ATOM      3  C   UNL     1      22.269  18.744  93.833  0.00  0.00    +0.000 A 
ATOM      4  C   UNL     1      21.225  19.517  94.334  0.00  0.00    +0.000 A 
ATOM      5  C   UNL     1      19.669  18.576  92.526  0.00  0.00    +0.000 A 
ATOM      6  C   UNL     1      20.733  17.813  92.045  0.00  0.00    +0.000 A 
ATOM      7  C   UNL     1      19.891  19.461  93.700  0.00  0.00    +0.000 C 
ATOM      8  C   UNL     1      22.061  17.868  92.675  0.00  0.00    +0.000 C 
ATOM      9  C   UNL     1      23.535  18.786  94.420  0.00  0.00    +0.000 A 
ATOM     10  C   UNL     1      21.468  20.341  95.443  0.00  0.00    +0.000 A 
ATOM     11  C   UNL     1      23.761  19.608  95.519  0.00  0.00    +0.000 A 
ATOM     12  C   UNL     1      18.432  18.473  91.876  0.00  0.00    +0.000 A 
ATOM     13  C   UNL     1      20.572  16.966  90.943  0.00  0.00    +0.000 A 
ATOM     14  C   UNL     1      22.731  20.387  96.035  0.00  0.00    +0.000 A 
ATOM     15  C   UNL     1      19.341  16.868  90.302  0.00  0.00    +0.000 A 
ATOM     16  C   UNL     1      18.274  17.627  90.777  0.00  0.00    +0.000 A 
ATOM     17  C   UNL     1      25.121  19.650  96.147  0.00  0.00    +0.000 C 
ENDROOT
BRANCH  10  18
ATOM     18  O   UNL     1      20.508  21.136  96.007  0.00  0.00    +0.000 OA
ATOM     19  H   UNL     1      19.698  20.595  96.165  0.00  0.00    +0.000 HD
ENDBRANCH  10  18
BRANCH  12  20
ATOM     20  O   UNL     1      17.346  19.189  92.290  0.00  0.00    +0.000 OA
ATOM     21  H   UNL     1      17.368  19.296  93.258  0.00  0.00    +0.000 HD
ENDBRANCH  12  20
BRANCH  15  22
ATOM     22  O   UNL     1      19.287  16.011  89.232  0.00  0.00    +0.000 OA
ATOM     23  C   UNL     1      18.189  16.192  88.380  0.00  0.00    +0.000 C 
ENDBRANCH  15  22
TORSDOF 3
ENDMDL
MODEL 5
REMARK VINA RESULT:      -5.7     21.501     21.767
REMARK  Name = 10639_Physcion.pdbqt.pdb
REMARK  3 active torsions:
REMARK  status: ('A' for Active; 'I' for Inactive)
REMARK    1  A    between atoms: C_10  and  O_18
REMARK    2  A    between atoms: C_12  and  O_20
REMARK    3  A    between atoms: C_15  and  O_22
REMARK                            x       y       z     vdW  Elec       q    Type
REMARK                         _______ _______ _______ _____ _____    ______ ____
ROOT
ATOM      1  O   UNL     1      40.903  27.173  85.944  0.00  0.00    +0.000 OA
ATOM      2  O   UNL     1      46.108  27.725  86.939  0.00  0.00    +0.000 OA
ATOM      3  C   UNL     1      43.910  28.200  87.575  0.00  0.00    +0.000 A 
ATOM      4  C   UNL     1      42.551  28.051  87.307  0.00  0.00    +0.000 A 
ATOM      5  C   UNL     1      43.122  26.650  85.237  0.00  0.00    +0.000 A 
ATOM      6  C   UNL     1      44.476  26.816  85.529  0.00  0.00    +0.000 A 
ATOM      7  C   UNL     1      42.111  27.272  86.130  0.00  0.00    +0.000 C 
ATOM      8  C   UNL     1      44.916  27.591  86.699  0.00  0.00    +0.000 C 
ATOM      9  C   UNL     1      44.343  28.933  88.683  0.00  0.00    +0.000 A 
ATOM     10  C   UNL     1      41.624  28.651  88.171  0.00  0.00    +0.000 A 
ATOM     11  C   UNL     1      43.411  29.522  89.530  0.00  0.00    +0.000 A 
ATOM     12  C   UNL     1      42.776  25.900  84.106  0.00  0.00    +0.000 A 
ATOM     13  C   UNL     1      45.464  26.250  84.717  0.00  0.00    +0.000 A 
ATOM     14  C   UNL     1      42.050  29.384  89.279  0.00  0.00    +0.000 A 
ATOM     15  C   UNL     1      45.114  25.505  83.595  0.00  0.00    +0.000 A 
ATOM     16  C   UNL     1      43.764  25.335  83.296  0.00  0.00    +0.000 A 
ATOM     17  C   UNL     1      43.879  30.308  90.717  0.00  0.00    +0.000 C 
ENDROOT
BRANCH  10  18
ATOM     18  O   UNL     1      40.270  28.561  87.991  0.00  0.00    +0.000 OA
ATOM     19  H   UNL     1      39.900  27.938  88.661  0.00  0.00    +0.000 HD
ENDBRANCH  10  18
BRANCH  12  20
ATOM     20  O   UNL     1      41.473  25.694  83.756  0.00  0.00    +0.000 OA
ATOM     21  H   UNL     1      41.245  24.753  83.858  0.00  0.00    +0.000 HD
ENDBRANCH  12  20
BRANCH  15  22
ATOM     22  O   UNL     1      46.156  24.992  82.865  0.00  0.00    +0.000 OA
ATOM     23  C   UNL     1      47.398  25.000  83.516  0.00  0.00    +0.000 C 
ENDBRANCH  15  22
TORSDOF 3
ENDMDL
MODEL 6
REMARK VINA RESULT:      -5.7      1.826      3.563
REMARK  Name = 10639_Physcion.pdbqt.pdb
REMARK  3 active torsions:
REMARK  status: ('A' for Active; 'I' for Inactive)
REMARK    1  A    between atoms: C_10  and  O_18
REMARK    2  A    between atoms: C_12  and  O_20
REMARK    3  A    between atoms: C_15  and  O_22
REMARK                            x       y       z     vdW  Elec       q    Type
REMARK                         _______ _______ _______ _____ _____    ______ ____
ROOT
ATOM      1  O   UNL     1      59.319  35.848  71.238  0.00  0.00    +0.000 OA
ATOM      2  O   UNL     1      60.753  31.774  74.357  0.00  0.00    +0.000 OA
ATOM      3  C   UNL     1      60.284  34.056  74.173  0.00  0.00    +0.000 A 
ATOM      4  C   UNL     1      59.909  35.116  73.351  0.00  0.00    +0.000 A 
ATOM      5  C   UNL     1      59.785  33.511  71.354  0.00  0.00    +0.000 A 
ATOM      6  C   UNL     1      60.163  32.469  72.202  0.00  0.00    +0.000 A 
ATOM      7  C   UNL     1      59.647  34.880  71.915  0.00  0.00    +0.000 C 
ATOM      8  C   UNL     1      60.423  32.701  73.630  0.00  0.00    +0.000 C 
ATOM      9  C   UNL     1      60.535  34.261  75.532  0.00  0.00    +0.000 A 
ATOM     10  C   UNL     1      59.787  36.395  73.912  0.00  0.00    +0.000 A 
ATOM     11  C   UNL     1      60.410  35.535  76.073  0.00  0.00    +0.000 A 
ATOM     12  C   UNL     1      59.553  33.216  70.005  0.00  0.00    +0.000 A 
ATOM     13  C   UNL     1      60.306  31.163  71.720  0.00  0.00    +0.000 A 
ATOM     14  C   UNL     1      60.036  36.606  75.269  0.00  0.00    +0.000 A 
ATOM     15  C   UNL     1      60.074  30.877  70.378  0.00  0.00    +0.000 A 
ATOM     16  C   UNL     1      59.697  31.912  69.525  0.00  0.00    +0.000 A 
ATOM     17  C   UNL     1      60.680  35.752  77.532  0.00  0.00    +0.000 C 
ENDROOT
BRANCH  10  18
ATOM     18  O   UNL     1      59.424  37.497  73.186  0.00  0.00    +0.000 OA
ATOM     19  H   UNL     1      60.115  38.192  73.294  0.00  0.00    +0.000 HD
ENDBRANCH  10  18
BRANCH  12  20
ATOM     20  O   UNL     1      59.181  34.183  69.116  0.00  0.00    +0.000 OA
ATOM     21  H   UNL     1      58.703  33.782  68.368  0.00  0.00    +0.000 HD
ENDBRANCH  12  20
BRANCH  15  22
ATOM     22  O   UNL     1      60.241  29.567  70.005  0.00  0.00    +0.000 OA
ATOM     23  C   UNL     1      61.547  29.075  70.136  0.00  0.00    +0.000 C 
ENDBRANCH  15  22
TORSDOF 3
ENDMDL
MODEL 7
REMARK VINA RESULT:      -5.6     19.513     20.399
REMARK  Name = 10639_Physcion.pdbqt.pdb
REMARK  3 active torsions:
REMARK  status: ('A' for Active; 'I' for Inactive)
REMARK    1  A    between atoms: C_10  and  O_18
REMARK    2  A    between atoms: C_12  and  O_20
REMARK    3  A    between atoms: C_15  and  O_22
REMARK                            x       y       z     vdW  Elec       q    Type
REMARK                         _______ _______ _______ _____ _____    ______ ____
ROOT
ATOM      1  O   UNL     1      45.819  22.026  83.182  0.00  0.00    +0.000 OA
ATOM      2  O   UNL     1      47.254  26.611  85.483  0.00  0.00    +0.000 OA
ATOM      3  C   UNL     1      47.819  24.410  84.935  0.00  0.00    +0.000 A 
ATOM      4  C   UNL     1      47.435  23.215  84.331  0.00  0.00    +0.000 A 
ATOM      5  C   UNL     1      45.178  24.262  83.710  0.00  0.00    +0.000 A 
ATOM      6  C   UNL     1      45.589  25.447  84.322  0.00  0.00    +0.000 A 
ATOM      7  C   UNL     1      46.103  23.100  83.699  0.00  0.00    +0.000 C 
ATOM      8  C   UNL     1      46.913  25.564  84.952  0.00  0.00    +0.000 C 
ATOM      9  C   UNL     1      49.073  24.536  85.537  0.00  0.00    +0.000 A 
ATOM     10  C   UNL     1      48.332  22.138  84.338  0.00  0.00    +0.000 A 
ATOM     11  C   UNL     1      49.951  23.458  85.535  0.00  0.00    +0.000 A 
ATOM     12  C   UNL     1      43.903  24.224  83.131  0.00  0.00    +0.000 A 
ATOM     13  C   UNL     1      44.753  26.568  84.359  0.00  0.00    +0.000 A 
ATOM     14  C   UNL     1      49.587  22.257  84.937  0.00  0.00    +0.000 A 
ATOM     15  C   UNL     1      43.488  26.523  83.781  0.00  0.00    +0.000 A 
ATOM     16  C   UNL     1      43.070  25.344  83.168  0.00  0.00    +0.000 A 
ATOM     17  C   UNL     1      51.297  23.596  86.182  0.00  0.00    +0.000 C 
ENDROOT
BRANCH  10  18
ATOM     18  O   UNL     1      48.047  20.925  83.771  0.00  0.00    +0.000 OA
ATOM     19  H   UNL     1      47.703  21.073  82.858  0.00  0.00    +0.000 HD
ENDBRANCH  10  18
BRANCH  12  20
ATOM     20  O   UNL     1      43.433  23.101  82.515  0.00  0.00    +0.000 OA
ATOM     21  H   UNL     1      42.496  23.219  82.277  0.00  0.00    +0.000 HD
ENDBRANCH  12  20
BRANCH  15  22
ATOM     22  O   UNL     1      42.745  27.674  83.870  0.00  0.00    +0.000 OA
ATOM     23  C   UNL     1      43.459  28.859  83.643  0.00  0.00    +0.000 C 
ENDBRANCH  15  22
TORSDOF 3
ENDMDL
MODEL 8
REMARK VINA RESULT:      -5.5     60.327     60.816
REMARK  Name = 10639_Physcion.pdbqt.pdb
REMARK  3 active torsions:
REMARK  status: ('A' for Active; 'I' for Inactive)
REMARK    1  A    between atoms: C_10  and  O_18
REMARK    2  A    between atoms: C_12  and  O_20
REMARK    3  A    between atoms: C_15  and  O_22
REMARK                            x       y       z     vdW  Elec       q    Type
REMARK                         _______ _______ _______ _____ _____    ______ ____
ROOT
ATOM      1  O   UNL     1      11.798   3.772 100.601  0.00  0.00    +0.000 OA
ATOM      2  O   UNL     1      14.200   4.631  95.924  0.00  0.00    +0.000 OA
ATOM      3  C   UNL     1      13.480   5.504  97.969  0.00  0.00    +0.000 A 
ATOM      4  C   UNL     1      12.851   5.270  99.189  0.00  0.00    +0.000 A 
ATOM      5  C   UNL     1      12.506   2.815  98.533  0.00  0.00    +0.000 A 
ATOM      6  C   UNL     1      13.140   3.078  97.318  0.00  0.00    +0.000 A 
ATOM      7  C   UNL     1      12.342   3.920  99.513  0.00  0.00    +0.000 C 
ATOM      8  C   UNL     1      13.646   4.421  96.994  0.00  0.00    +0.000 C 
ATOM      9  C   UNL     1      13.965   6.773  97.647  0.00  0.00    +0.000 A 
ATOM     10  C   UNL     1      12.713   6.335 100.091  0.00  0.00    +0.000 A 
ATOM     11  C   UNL     1      13.821   7.818  98.552  0.00  0.00    +0.000 A 
ATOM     12  C   UNL     1      12.049   1.513  98.773  0.00  0.00    +0.000 A 
ATOM     13  C   UNL     1      13.317   2.071  96.363  0.00  0.00    +0.000 A 
ATOM     14  C   UNL     1      13.196   7.605  99.776  0.00  0.00    +0.000 A 
ATOM     15  C   UNL     1      12.861   0.779  96.609  0.00  0.00    +0.000 A 
ATOM     16  C   UNL     1      12.227   0.508  97.819  0.00  0.00    +0.000 A 
ATOM     17  C   UNL     1      14.343   9.180  98.204  0.00  0.00    +0.000 C 
ENDROOT
BRANCH  10  18
ATOM     18  O   UNL     1      12.110   6.204 101.313  0.00  0.00    +0.000 OA
ATOM     19  H   UNL     1      11.220   6.628 101.277  0.00  0.00    +0.000 HD
ENDBRANCH  10  18
BRANCH  12  20
ATOM     20  O   UNL     1      11.420   1.181  99.937  0.00  0.00    +0.000 OA
ATOM     21  H   UNL     1      11.637   0.264 100.184  0.00  0.00    +0.000 HD
ENDBRANCH  12  20
BRANCH  15  22
ATOM     22  O   UNL     1      13.083  -0.136  95.611  0.00  0.00    +0.000 OA
ATOM     23  C   UNL     1      13.270   0.412  94.334  0.00  0.00    +0.000 C 
ENDBRANCH  15  22
TORSDOF 3
ENDMDL
MODEL 9
REMARK VINA RESULT:      -5.5      3.852      6.731
REMARK  Name = 10639_Physcion.pdbqt.pdb
REMARK  3 active torsions:
REMARK  status: ('A' for Active; 'I' for Inactive)
REMARK    1  A    between atoms: C_10  and  O_18
REMARK    2  A    between atoms: C_12  and  O_20
REMARK    3  A    between atoms: C_15  and  O_22
REMARK                            x       y       z     vdW  Elec       q    Type
REMARK                         _______ _______ _______ _____ _____    ______ ____
ROOT
ATOM      1  O   UNL     1      59.021  34.192  69.319  0.00  0.00    +0.000 OA
ATOM      2  O   UNL     1      60.273  29.018  69.505  0.00  0.00    +0.000 OA
ATOM      3  C   UNL     1      60.303  31.101  70.565  0.00  0.00    +0.000 A 
ATOM      4  C   UNL     1      59.972  32.452  70.508  0.00  0.00    +0.000 A 
ATOM      5  C   UNL     1      58.958  32.097  68.179  0.00  0.00    +0.000 A 
ATOM      6  C   UNL     1      59.302  30.747  68.264  0.00  0.00    +0.000 A 
ATOM      7  C   UNL     1      59.289  32.997  69.315  0.00  0.00    +0.000 C 
ATOM      8  C   UNL     1      59.981  30.204  69.450  0.00  0.00    +0.000 C 
ATOM      9  C   UNL     1      60.948  30.570  71.685  0.00  0.00    +0.000 A 
ATOM     10  C   UNL     1      60.298  33.273  71.597  0.00  0.00    +0.000 A 
ATOM     11  C   UNL     1      61.265  31.397  72.756  0.00  0.00    +0.000 A 
ATOM     12  C   UNL     1      58.313  32.544  67.019  0.00  0.00    +0.000 A 
ATOM     13  C   UNL     1      59.011  29.862  67.221  0.00  0.00    +0.000 A 
ATOM     14  C   UNL     1      60.943  32.749  72.718  0.00  0.00    +0.000 A 
ATOM     15  C   UNL     1      58.370  30.313  66.071  0.00  0.00    +0.000 A 
ATOM     16  C   UNL     1      58.023  31.659  65.978  0.00  0.00    +0.000 A 
ATOM     17  C   UNL     1      61.957  30.825  73.957  0.00  0.00    +0.000 C 
ENDROOT
BRANCH  10  18
ATOM     18  O   UNL     1      60.014  34.612  71.633  0.00  0.00    +0.000 OA
ATOM     19  H   UNL     1      60.527  35.026  72.367  0.00  0.00    +0.000 HD
ENDBRANCH  10  18
BRANCH  12  20
ATOM     20  O   UNL     1      57.946  33.850  66.865  0.00  0.00    +0.000 OA
ATOM     21  H   UNL     1      57.459  34.154  67.651  0.00  0.00    +0.000 HD
ENDBRANCH  12  20
BRANCH  15  22
ATOM     22  O   UNL     1      58.129  29.367  65.107  0.00  0.00    +0.000 OA
ATOM     23  C   UNL     1      57.394  28.254  65.537  0.00  0.00    +0.000 C 
ENDBRANCH  15  22
TORSDOF 3
ENDMDL
