MODEL 1
REMARK VINA RESULT:      -6.6      0.000      0.000
REMARK  Name = 10940649_MilnamideD.pdbqt.pdb
REMARK  7 active torsions:
REMARK  status: ('A' for Active; 'I' for Inactive)
REMARK    1  A    between atoms: C_3  and  C_8
REMARK    2  A    between atoms: C_22  and  C_25
REMARK    3  A    between atoms: C_22  and  C_38
REMARK    4  A    between atoms: N_24  and  C_27
REMARK    5  A    between atoms: C_27  and  C_28
REMARK    6  A    between atoms: C_32  and  C_35
REMARK    7  A    between atoms: C_35  and  O_36
REMARK                            x       y       z     vdW  Elec       q    Type
REMARK                         _______ _______ _______ _____ _____    ______ ____
ROOT
ATOM      1  O   UNL     1      63.129  34.421  72.624  0.00  0.00    +0.000 OA
ATOM      2  N   UNL     1      61.150  33.763  71.728  0.00  0.00    +0.000 N 
ATOM      3  C   UNL     1      62.523  33.684  71.855  0.00  0.00    +0.000 C 
ATOM      4  H   UNL     1      60.693  33.202  71.000  0.00  0.00    +0.000 HD
ATOM      5  C   UNL     1      60.311  34.622  72.478  0.00  0.00    +0.000 C 
ENDROOT
BRANCH   3   9
ATOM      6  N   UNL     1      62.974  32.622  69.554  0.00  0.00    +0.000 NA
ATOM      7  N   UNL     1      65.291  29.514  68.955  0.00  0.00    +0.000 N 
ATOM      8  C   UNL     1      63.922  31.516  71.792  0.00  0.00    +0.000 C 
ATOM      9  C   UNL     1      63.214  32.660  71.006  0.00  0.00    +0.000 C 
ATOM     10  C   UNL     1      64.668  30.491  70.880  0.00  0.00    +0.000 A 
ATOM     11  C   UNL     1      64.564  30.512  69.504  0.00  0.00    +0.000 A 
ATOM     12  C   UNL     1      62.862  30.654  72.539  0.00  0.00    +0.000 C 
ATOM     13  C   UNL     1      65.033  32.117  72.700  0.00  0.00    +0.000 C 
ATOM     14  C   UNL     1      65.525  29.370  71.173  0.00  0.00    +0.000 A 
ATOM     15  C   UNL     1      63.749  31.537  69.012  0.00  0.00    +0.000 C 
ATOM     16  C   UNL     1      65.900  28.784  69.948  0.00  0.00    +0.000 A 
ATOM     17  C   UNL     1      63.431  33.845  68.914  0.00  0.00    +0.000 C 
ATOM     18  C   UNL     1      66.011  28.801  72.367  0.00  0.00    +0.000 A 
ATOM     19  C   UNL     1      65.385  29.261  67.558  0.00  0.00    +0.000 C 
ATOM     20  C   UNL     1      66.740  27.661  69.885  0.00  0.00    +0.000 A 
ATOM     21  C   UNL     1      66.845  27.684  72.310  0.00  0.00    +0.000 A 
ATOM     22  C   UNL     1      67.203  27.128  71.088  0.00  0.00    +0.000 A 
ENDBRANCH   3   9
BRANCH   5  25
ATOM     23  O   UNL     1      61.060  36.592  73.468  0.00  0.00    +0.000 OA
ATOM     24  N   UNL     1      61.031  34.652  74.818  0.00  0.00    +0.000 N 
ATOM     25  C   UNL     1      60.862  35.389  73.621  0.00  0.00    +0.000 C 
ATOM     26  C   UNL     1      60.819  33.205  74.935  0.00  0.00    +0.000 C 
BRANCH  24  27
ATOM     27  C   UNL     1      61.401  35.302  76.009  0.00  0.00    +0.000 C 
ATOM     28  C   UNL     1      60.414  35.736  76.958  0.00  0.00    +0.000 C 
ATOM     29  C   UNL     1      59.525  36.133  77.822  0.00  0.00    +0.000 C 
ATOM     30  C   UNL     1      59.531  35.396  79.145  0.00  0.00    +0.000 C 
BRANCH  27  31
ATOM     31  C   UNL     1      62.797  35.541  76.346  0.00  0.00    +0.000 C 
ATOM     32  C   UNL     1      63.313  36.955  76.524  0.00  0.00    +0.000 C 
ATOM     33  C   UNL     1      63.574  34.481  77.104  0.00  0.00    +0.000 C 
ENDBRANCH  27  31
BRANCH  29  35
ATOM     34  O   UNL     1      57.729  37.196  76.614  0.00  0.00    +0.000 OA
ATOM     35  C   UNL     1      58.597  37.242  77.474  0.00  0.00    +0.000 C 
BRANCH  35  36
ATOM     36  O   UNL     1      58.773  38.369  78.196  0.00  0.00    +0.000 OA
ATOM     37  H   UNL     1      59.070  38.066  79.079  0.00  0.00    +0.000 HD
ENDBRANCH  35  36
ENDBRANCH  29  35
ENDBRANCH  24  27
ENDBRANCH   5  25
BRANCH   5  38
ATOM     38  C   UNL     1      58.794  34.631  72.373  0.00  0.00    +0.000 C 
ATOM     39  C   UNL     1      58.436  35.507  71.130  0.00  0.00    +0.000 C 
ATOM     40  C   UNL     1      58.327  33.174  72.092  0.00  0.00    +0.000 C 
ATOM     41  C   UNL     1      58.089  35.214  73.622  0.00  0.00    +0.000 C 
ENDBRANCH   5  38
TORSDOF 7
ENDMDL
MODEL 2
REMARK VINA RESULT:      -6.5      5.448     10.947
REMARK  Name = 10940649_MilnamideD.pdbqt.pdb
REMARK  7 active torsions:
REMARK  status: ('A' for Active; 'I' for Inactive)
REMARK    1  A    between atoms: C_3  and  C_8
REMARK    2  A    between atoms: C_22  and  C_25
REMARK    3  A    between atoms: C_22  and  C_38
REMARK    4  A    between atoms: N_24  and  C_27
REMARK    5  A    between atoms: C_27  and  C_28
REMARK    6  A    between atoms: C_32  and  C_35
REMARK    7  A    between atoms: C_35  and  O_36
REMARK                            x       y       z     vdW  Elec       q    Type
REMARK                         _______ _______ _______ _____ _____    ______ ____
ROOT
ATOM      1  O   UNL     1      58.813  38.844  73.169  0.00  0.00    +0.000 OA
ATOM      2  N   UNL     1      56.724  38.773  74.055  0.00  0.00    +0.000 N 
ATOM      3  C   UNL     1      57.610  39.029  73.027  0.00  0.00    +0.000 C 
ATOM      4  H   UNL     1      55.740  39.038  73.931  0.00  0.00    +0.000 HD
ATOM      5  C   UNL     1      57.075  38.235  75.317  0.00  0.00    +0.000 C 
ENDROOT
BRANCH   3   9
ATOM      6  N   UNL     1      57.312  38.862  70.475  0.00  0.00    +0.000 NA
ATOM      7  N   UNL     1      55.221  41.378  68.311  0.00  0.00    +0.000 N 
ATOM      8  C   UNL     1      56.356  40.948  71.840  0.00  0.00    +0.000 C 
ATOM      9  C   UNL     1      57.018  39.541  71.748  0.00  0.00    +0.000 C 
ATOM     10  C   UNL     1      55.711  41.431  70.503  0.00  0.00    +0.000 A 
ATOM     11  C   UNL     1      55.863  40.743  69.317  0.00  0.00    +0.000 A 
ATOM     12  C   UNL     1      57.442  42.023  72.145  0.00  0.00    +0.000 C 
ATOM     13  C   UNL     1      55.177  40.906  72.854  0.00  0.00    +0.000 C 
ATOM     14  C   UNL     1      54.917  42.586  70.166  0.00  0.00    +0.000 A 
ATOM     15  C   UNL     1      56.628  39.578  69.431  0.00  0.00    +0.000 C 
ATOM     16  C   UNL     1      54.625  42.521  68.789  0.00  0.00    +0.000 A 
ATOM     17  C   UNL     1      56.800  37.500  70.476  0.00  0.00    +0.000 C 
ATOM     18  C   UNL     1      54.427  43.681  70.905  0.00  0.00    +0.000 A 
ATOM     19  C   UNL     1      55.195  40.926  66.962  0.00  0.00    +0.000 C 
ATOM     20  C   UNL     1      53.862  43.504  68.141  0.00  0.00    +0.000 A 
ATOM     21  C   UNL     1      53.668  44.662  70.265  0.00  0.00    +0.000 A 
ATOM     22  C   UNL     1      53.391  44.571  68.907  0.00  0.00    +0.000 A 
ENDBRANCH   3   9
BRANCH   5  25
ATOM     23  O   UNL     1      59.250  38.462  76.117  0.00  0.00    +0.000 OA
ATOM     24  N   UNL     1      58.665  36.379  75.164  0.00  0.00    +0.000 N 
ATOM     25  C   UNL     1      58.447  37.723  75.553  0.00  0.00    +0.000 C 
ATOM     26  C   UNL     1      57.682  35.553  74.454  0.00  0.00    +0.000 C 
BRANCH  24  27
ATOM     27  C   UNL     1      59.876  35.736  75.475  0.00  0.00    +0.000 C 
ATOM     28  C   UNL     1      60.456  34.771  74.582  0.00  0.00    +0.000 C 
ATOM     29  C   UNL     1      60.988  33.895  73.779  0.00  0.00    +0.000 C 
ATOM     30  C   UNL     1      62.287  34.317  73.126  0.00  0.00    +0.000 C 
BRANCH  27  31
ATOM     31  C   UNL     1      60.608  36.034  76.697  0.00  0.00    +0.000 C 
ATOM     32  C   UNL     1      60.093  35.551  78.039  0.00  0.00    +0.000 C 
ATOM     33  C   UNL     1      62.108  36.253  76.635  0.00  0.00    +0.000 C 
ENDBRANCH  27  31
BRANCH  29  35
ATOM     34  O   UNL     1      60.521  31.568  74.208  0.00  0.00    +0.000 OA
ATOM     35  C   UNL     1      60.316  32.585  73.562  0.00  0.00    +0.000 C 
BRANCH  35  36
ATOM     36  O   UNL     1      59.418  32.576  72.554  0.00  0.00    +0.000 OA
ATOM     37  H   UNL     1      58.544  32.673  72.986  0.00  0.00    +0.000 HD
ENDBRANCH  35  36
ENDBRANCH  29  35
ENDBRANCH  24  27
ENDBRANCH   5  25
BRANCH   5  38
ATOM     38  C   UNL     1      56.067  37.890  76.402  0.00  0.00    +0.000 C 
ATOM     39  C   UNL     1      56.887  37.380  77.631  0.00  0.00    +0.000 C 
ATOM     40  C   UNL     1      55.341  39.203  76.812  0.00  0.00    +0.000 C 
ATOM     41  C   UNL     1      55.054  36.797  75.982  0.00  0.00    +0.000 C 
ENDBRANCH   5  38
TORSDOF 7
ENDMDL
MODEL 3
REMARK VINA RESULT:      -6.4      5.824     10.867
REMARK  Name = 10940649_MilnamideD.pdbqt.pdb
REMARK  7 active torsions:
REMARK  status: ('A' for Active; 'I' for Inactive)
REMARK    1  A    between atoms: C_3  and  C_8
REMARK    2  A    between atoms: C_22  and  C_25
REMARK    3  A    between atoms: C_22  and  C_38
REMARK    4  A    between atoms: N_24  and  C_27
REMARK    5  A    between atoms: C_27  and  C_28
REMARK    6  A    between atoms: C_32  and  C_35
REMARK    7  A    between atoms: C_35  and  O_36
REMARK                            x       y       z     vdW  Elec       q    Type
REMARK                         _______ _______ _______ _____ _____    ______ ____
ROOT
ATOM      1  O   UNL     1      58.743  39.332  73.607  0.00  0.00    +0.000 OA
ATOM      2  N   UNL     1      56.626  38.848  74.270  0.00  0.00    +0.000 N 
ATOM      3  C   UNL     1      57.551  39.270  73.333  0.00  0.00    +0.000 C 
ATOM      4  H   UNL     1      55.629  38.908  74.035  0.00  0.00    +0.000 HD
ATOM      5  C   UNL     1      56.938  38.402  75.578  0.00  0.00    +0.000 C 
ENDROOT
BRANCH   3   9
ATOM      6  N   UNL     1      57.392  38.857  70.797  0.00  0.00    +0.000 NA
ATOM      7  N   UNL     1      55.345  41.090  68.305  0.00  0.00    +0.000 N 
ATOM      8  C   UNL     1      56.305  41.027  71.911  0.00  0.00    +0.000 C 
ATOM      9  C   UNL     1      57.011  39.641  71.985  0.00  0.00    +0.000 C 
ATOM     10  C   UNL     1      55.717  41.362  70.505  0.00  0.00    +0.000 A 
ATOM     11  C   UNL     1      55.951  40.573  69.397  0.00  0.00    +0.000 A 
ATOM     12  C   UNL     1      57.342  42.161  72.167  0.00  0.00    +0.000 C 
ATOM     13  C   UNL     1      55.076  41.038  72.865  0.00  0.00    +0.000 C 
ATOM     14  C   UNL     1      54.909  42.454  70.022  0.00  0.00    +0.000 A 
ATOM     15  C   UNL     1      56.742  39.450  69.658  0.00  0.00    +0.000 C 
ATOM     16  C   UNL     1      54.691  42.251  68.644  0.00  0.00    +0.000 A 
ATOM     17  C   UNL     1      56.921  37.485  70.901  0.00  0.00    +0.000 C 
ATOM     18  C   UNL     1      54.348  43.595  70.629  0.00  0.00    +0.000 A 
ATOM     19  C   UNL     1      55.402  40.515  67.005  0.00  0.00    +0.000 C 
ATOM     20  C   UNL     1      53.935  43.144  67.869  0.00  0.00    +0.000 A 
ATOM     21  C   UNL     1      53.596  44.486  69.863  0.00  0.00    +0.000 A 
ATOM     22  C   UNL     1      53.393  44.260  68.508  0.00  0.00    +0.000 A 
ENDBRANCH   3   9
BRANCH   5  25
ATOM     23  O   UNL     1      58.908  39.049  76.637  0.00  0.00    +0.000 OA
ATOM     24  N   UNL     1      58.891  36.926  75.598  0.00  0.00    +0.000 N 
ATOM     25  C   UNL     1      58.350  38.180  75.972  0.00  0.00    +0.000 C 
ATOM     26  C   UNL     1      58.195  35.939  74.765  0.00  0.00    +0.000 C 
BRANCH  24  27
ATOM     27  C   UNL     1      60.167  36.539  76.046  0.00  0.00    +0.000 C 
ATOM     28  C   UNL     1      61.357  36.963  75.361  0.00  0.00    +0.000 C 
ATOM     29  C   UNL     1      62.439  37.343  74.746  0.00  0.00    +0.000 C 
ATOM     30  C   UNL     1      63.322  38.302  75.516  0.00  0.00    +0.000 C 
BRANCH  27  31
ATOM     31  C   UNL     1      60.342  35.715  77.233  0.00  0.00    +0.000 C 
ATOM     32  C   UNL     1      61.590  34.872  77.406  0.00  0.00    +0.000 C 
ATOM     33  C   UNL     1      59.663  36.118  78.529  0.00  0.00    +0.000 C 
ENDBRANCH  27  31
BRANCH  29  35
ATOM     34  O   UNL     1      62.129  35.929  72.816  0.00  0.00    +0.000 OA
ATOM     35  C   UNL     1      62.733  36.831  73.380  0.00  0.00    +0.000 C 
BRANCH  35  36
ATOM     36  O   UNL     1      63.762  37.446  72.760  0.00  0.00    +0.000 OA
ATOM     37  H   UNL     1      63.595  38.405  72.873  0.00  0.00    +0.000 HD
ENDBRANCH  35  36
ENDBRANCH  29  35
ENDBRANCH  24  27
ENDBRANCH   5  25
BRANCH   5  38
ATOM     38  C   UNL     1      55.907  37.870  76.560  0.00  0.00    +0.000 C 
ATOM     39  C   UNL     1      54.995  39.076  76.951  0.00  0.00    +0.000 C 
ATOM     40  C   UNL     1      55.034  36.821  75.813  0.00  0.00    +0.000 C 
ATOM     41  C   UNL     1      56.528  37.268  77.844  0.00  0.00    +0.000 C 
ENDBRANCH   5  38
TORSDOF 7
ENDMDL
MODEL 4
REMARK VINA RESULT:      -6.4     21.902     25.487
REMARK  Name = 10940649_MilnamideD.pdbqt.pdb
REMARK  7 active torsions:
REMARK  status: ('A' for Active; 'I' for Inactive)
REMARK    1  A    between atoms: C_3  and  C_8
REMARK    2  A    between atoms: C_22  and  C_25
REMARK    3  A    between atoms: C_22  and  C_38
REMARK    4  A    between atoms: N_24  and  C_27
REMARK    5  A    between atoms: C_27  and  C_28
REMARK    6  A    between atoms: C_32  and  C_35
REMARK    7  A    between atoms: C_35  and  O_36
REMARK                            x       y       z     vdW  Elec       q    Type
REMARK                         _______ _______ _______ _____ _____    ______ ____
ROOT
ATOM      1  O   UNL     1      43.436  23.409  83.506  0.00  0.00    +0.000 OA
ATOM      2  N   UNL     1      42.610  25.523  83.529  0.00  0.00    +0.000 N 
ATOM      3  C   UNL     1      42.553  24.190  83.171  0.00  0.00    +0.000 C 
ATOM      4  H   UNL     1      41.906  26.163  83.143  0.00  0.00    +0.000 HD
ATOM      5  C   UNL     1      43.616  26.108  84.336  0.00  0.00    +0.000 C 
ENDROOT
BRANCH   3   9
ATOM      6  N   UNL     1      41.184  24.279  80.994  0.00  0.00    +0.000 NA
ATOM      7  N   UNL     1      37.786  22.403  80.425  0.00  0.00    +0.000 N 
ATOM      8  C   UNL     1      40.249  23.028  83.159  0.00  0.00    +0.000 C 
ATOM      9  C   UNL     1      41.365  23.767  82.362  0.00  0.00    +0.000 C 
ATOM     10  C   UNL     1      39.047  22.562  82.278  0.00  0.00    +0.000 A 
ATOM     11  C   UNL     1      38.917  22.922  80.953  0.00  0.00    +0.000 A 
ATOM     12  C   UNL     1      39.606  24.000  84.192  0.00  0.00    +0.000 C 
ATOM     13  C   UNL     1      40.823  21.716  83.767  0.00  0.00    +0.000 C 
ATOM     14  C   UNL     1      37.879  21.768  82.566  0.00  0.00    +0.000 A 
ATOM     15  C   UNL     1      39.962  23.720  80.477  0.00  0.00    +0.000 C 
ATOM     16  C   UNL     1      37.113  21.685  81.386  0.00  0.00    +0.000 A 
ATOM     17  C   UNL     1      42.264  23.844  80.123  0.00  0.00    +0.000 C 
ATOM     18  C   UNL     1      37.402  21.119  83.722  0.00  0.00    +0.000 A 
ATOM     19  C   UNL     1      37.362  22.599  79.081  0.00  0.00    +0.000 C 
ATOM     20  C   UNL     1      35.903  20.976  81.329  0.00  0.00    +0.000 A 
ATOM     21  C   UNL     1      36.199  20.413  83.671  0.00  0.00    +0.000 A 
ATOM     22  C   UNL     1      35.466  20.344  82.494  0.00  0.00    +0.000 A 
ENDBRANCH   3   9
BRANCH   5  25
ATOM     23  O   UNL     1      44.300  24.757  86.105  0.00  0.00    +0.000 OA
ATOM     24  N   UNL     1      45.811  25.023  84.307  0.00  0.00    +0.000 N 
ATOM     25  C   UNL     1      44.611  25.250  85.024  0.00  0.00    +0.000 C 
ATOM     26  C   UNL     1      46.151  25.672  83.036  0.00  0.00    +0.000 C 
BRANCH  24  27
ATOM     27  C   UNL     1      46.764  24.107  84.786  0.00  0.00    +0.000 C 
ATOM     28  C   UNL     1      46.851  22.775  84.254  0.00  0.00    +0.000 C 
ATOM     29  C   UNL     1      46.935  21.567  83.777  0.00  0.00    +0.000 C 
ATOM     30  C   UNL     1      48.192  21.265  82.990  0.00  0.00    +0.000 C 
BRANCH  27  31
ATOM     31  C   UNL     1      47.721  24.472  85.821  0.00  0.00    +0.000 C 
ATOM     32  C   UNL     1      48.033  23.512  86.952  0.00  0.00    +0.000 C 
ATOM     33  C   UNL     1      48.830  25.456  85.500  0.00  0.00    +0.000 C 
ENDBRANCH  27  31
BRANCH  29  35
ATOM     34  O   UNL     1      45.897  19.635  84.781  0.00  0.00    +0.000 OA
ATOM     35  C   UNL     1      45.836  20.595  84.026  0.00  0.00    +0.000 C 
BRANCH  35  36
ATOM     36  O   UNL     1      44.704  20.838  83.332  0.00  0.00    +0.000 OA
ATOM     37  H   UNL     1      44.348  21.671  83.703  0.00  0.00    +0.000 HD
ENDBRANCH  35  36
ENDBRANCH  29  35
ENDBRANCH  24  27
ENDBRANCH   5  25
BRANCH   5  38
ATOM     38  C   UNL     1      43.610  27.562  84.778  0.00  0.00    +0.000 C 
ATOM     39  C   UNL     1      43.615  28.427  83.477  0.00  0.00    +0.000 C 
ATOM     40  C   UNL     1      42.276  27.825  85.533  0.00  0.00    +0.000 C 
ATOM     41  C   UNL     1      44.831  27.951  85.648  0.00  0.00    +0.000 C 
ENDBRANCH   5  38
TORSDOF 7
ENDMDL
MODEL 5
REMARK VINA RESULT:      -6.3     21.741     25.331
REMARK  Name = 10940649_MilnamideD.pdbqt.pdb
REMARK  7 active torsions:
REMARK  status: ('A' for Active; 'I' for Inactive)
REMARK    1  A    between atoms: C_3  and  C_8
REMARK    2  A    between atoms: C_22  and  C_25
REMARK    3  A    between atoms: C_22  and  C_38
REMARK    4  A    between atoms: N_24  and  C_27
REMARK    5  A    between atoms: C_27  and  C_28
REMARK    6  A    between atoms: C_32  and  C_35
REMARK    7  A    between atoms: C_35  and  O_36
REMARK                            x       y       z     vdW  Elec       q    Type
REMARK                         _______ _______ _______ _____ _____    ______ ____
ROOT
ATOM      1  O   UNL     1      43.674  23.540  82.544  0.00  0.00    +0.000 OA
ATOM      2  N   UNL     1      42.628  25.457  83.165  0.00  0.00    +0.000 N 
ATOM      3  C   UNL     1      42.651  24.213  82.563  0.00  0.00    +0.000 C 
ATOM      4  H   UNL     1      41.783  26.031  83.070  0.00  0.00    +0.000 HD
ATOM      5  C   UNL     1      43.716  26.049  83.852  0.00  0.00    +0.000 C 
ENDROOT
BRANCH   3   9
ATOM      6  N   UNL     1      40.989  24.206  80.597  0.00  0.00    +0.000 NA
ATOM      7  N   UNL     1      37.573  22.280  80.581  0.00  0.00    +0.000 N 
ATOM      8  C   UNL     1      40.384  23.031  82.917  0.00  0.00    +0.000 C 
ATOM      9  C   UNL     1      41.367  23.748  81.945  0.00  0.00    +0.000 C 
ATOM     10  C   UNL     1      39.078  22.521  82.232  0.00  0.00    +0.000 A 
ATOM     11  C   UNL     1      38.759  22.828  80.925  0.00  0.00    +0.000 A 
ATOM     12  C   UNL     1      39.878  24.037  83.993  0.00  0.00    +0.000 C 
ATOM     13  C   UNL     1      41.057  21.749  83.487  0.00  0.00    +0.000 C 
ATOM     14  C   UNL     1      37.972  21.729  82.709  0.00  0.00    +0.000 A 
ATOM     15  C   UNL     1      39.716  23.617  80.278  0.00  0.00    +0.000 C 
ATOM     16  C   UNL     1      37.051  21.593  81.652  0.00  0.00    +0.000 A 
ATOM     17  C   UNL     1      41.943  23.747  79.600  0.00  0.00    +0.000 C 
ATOM     18  C   UNL     1      37.671  21.120  83.944  0.00  0.00    +0.000 A 
ATOM     19  C   UNL     1      36.962  22.419  79.303  0.00  0.00    +0.000 C 
ATOM     20  C   UNL     1      35.855  20.872  81.791  0.00  0.00    +0.000 A 
ATOM     21  C   UNL     1      36.483  20.403  84.089  0.00  0.00    +0.000 A 
ATOM     22  C   UNL     1      35.594  20.281  83.029  0.00  0.00    +0.000 A 
ENDBRANCH   3   9
BRANCH   5  25
ATOM     23  O   UNL     1      45.930  25.460  83.437  0.00  0.00    +0.000 OA
ATOM     24  N   UNL     1      44.854  24.391  85.249  0.00  0.00    +0.000 N 
ATOM     25  C   UNL     1      44.939  25.258  84.133  0.00  0.00    +0.000 C 
ATOM     26  C   UNL     1      43.629  24.154  86.021  0.00  0.00    +0.000 C 
BRANCH  24  27
ATOM     27  C   UNL     1      45.992  23.704  85.706  0.00  0.00    +0.000 C 
ATOM     28  C   UNL     1      47.093  24.404  86.309  0.00  0.00    +0.000 C 
ATOM     29  C   UNL     1      48.093  25.032  86.855  0.00  0.00    +0.000 C 
ATOM     30  C   UNL     1      48.303  24.762  88.329  0.00  0.00    +0.000 C 
BRANCH  27  31
ATOM     31  C   UNL     1      46.099  22.255  85.613  0.00  0.00    +0.000 C 
ATOM     32  C   UNL     1      45.812  21.384  86.820  0.00  0.00    +0.000 C 
ATOM     33  C   UNL     1      45.883  21.575  84.274  0.00  0.00    +0.000 C 
ENDBRANCH  27  31
BRANCH  29  35
ATOM     34  O   UNL     1      49.957  26.497  86.411  0.00  0.00    +0.000 OA
ATOM     35  C   UNL     1      48.938  25.939  86.031  0.00  0.00    +0.000 C 
BRANCH  35  36
ATOM     36  O   UNL     1      48.495  26.128  84.770  0.00  0.00    +0.000 OA
ATOM     37  H   UNL     1      47.843  25.413  84.616  0.00  0.00    +0.000 HD
ENDBRANCH  35  36
ENDBRANCH  29  35
ENDBRANCH  24  27
ENDBRANCH   5  25
BRANCH   5  38
ATOM     38  C   UNL     1      43.638  27.385  84.572  0.00  0.00    +0.000 C 
ATOM     39  C   UNL     1      43.689  28.492  83.471  0.00  0.00    +0.000 C 
ATOM     40  C   UNL     1      42.255  27.465  85.280  0.00  0.00    +0.000 C 
ATOM     41  C   UNL     1      44.794  27.616  85.576  0.00  0.00    +0.000 C 
ENDBRANCH   5  38
TORSDOF 7
ENDMDL
MODEL 6
REMARK VINA RESULT:      -6.0     17.695     19.887
REMARK  Name = 10940649_MilnamideD.pdbqt.pdb
REMARK  7 active torsions:
REMARK  status: ('A' for Active; 'I' for Inactive)
REMARK    1  A    between atoms: C_3  and  C_8
REMARK    2  A    between atoms: C_22  and  C_25
REMARK    3  A    between atoms: C_22  and  C_38
REMARK    4  A    between atoms: N_24  and  C_27
REMARK    5  A    between atoms: C_27  and  C_28
REMARK    6  A    between atoms: C_32  and  C_35
REMARK    7  A    between atoms: C_35  and  O_36
REMARK                            x       y       z     vdW  Elec       q    Type
REMARK                         _______ _______ _______ _____ _____    ______ ____
ROOT
ATOM      1  O   UNL     1      45.194  37.702  78.925  0.00  0.00    +0.000 OA
ATOM      2  N   UNL     1      42.978  37.777  78.433  0.00  0.00    +0.000 N 
ATOM      3  C   UNL     1      44.313  37.913  78.100  0.00  0.00    +0.000 C 
ATOM      4  H   UNL     1      42.271  38.062  77.746  0.00  0.00    +0.000 HD
ATOM      5  C   UNL     1      42.494  37.343  79.691  0.00  0.00    +0.000 C 
ENDROOT
BRANCH   3   9
ATOM      6  N   UNL     1      45.204  39.646  76.418  0.00  0.00    +0.000 NA
ATOM      7  N   UNL     1      45.200  39.173  72.525  0.00  0.00    +0.000 N 
ATOM      8  C   UNL     1      43.985  37.420  75.588  0.00  0.00    +0.000 C 
ATOM      9  C   UNL     1      44.609  38.327  76.690  0.00  0.00    +0.000 C 
ATOM     10  C   UNL     1      44.350  37.853  74.133  0.00  0.00    +0.000 A 
ATOM     11  C   UNL     1      45.023  39.026  73.856  0.00  0.00    +0.000 A 
ATOM     12  C   UNL     1      42.432  37.525  75.634  0.00  0.00    +0.000 C 
ATOM     13  C   UNL     1      44.546  35.975  75.721  0.00  0.00    +0.000 C 
ATOM     14  C   UNL     1      44.093  37.258  72.846  0.00  0.00    +0.000 A 
ATOM     15  C   UNL     1      45.357  39.770  74.993  0.00  0.00    +0.000 C 
ATOM     16  C   UNL     1      44.640  38.106  71.862  0.00  0.00    +0.000 A 
ATOM     17  C   UNL     1      46.528  39.756  77.009  0.00  0.00    +0.000 C 
ATOM     18  C   UNL     1      43.441  36.080  72.429  0.00  0.00    +0.000 A 
ATOM     19  C   UNL     1      45.852  40.282  71.917  0.00  0.00    +0.000 C 
ATOM     20  C   UNL     1      44.560  37.810  70.493  0.00  0.00    +0.000 A 
ATOM     21  C   UNL     1      43.358  35.781  71.069  0.00  0.00    +0.000 A 
ATOM     22  C   UNL     1      43.910  36.632  70.120  0.00  0.00    +0.000 A 
ENDBRANCH   3   9
BRANCH   5  25
ATOM     23  O   UNL     1      43.764  35.631  80.627  0.00  0.00    +0.000 OA
ATOM     24  N   UNL     1      43.916  37.762  81.639  0.00  0.00    +0.000 N 
ATOM     25  C   UNL     1      43.432  36.811  80.708  0.00  0.00    +0.000 C 
ATOM     26  C   UNL     1      43.453  39.152  81.719  0.00  0.00    +0.000 C 
BRANCH  24  27
ATOM     27  C   UNL     1      44.925  37.413  82.554  0.00  0.00    +0.000 C 
ATOM     28  C   UNL     1      46.236  37.997  82.476  0.00  0.00    +0.000 C 
ATOM     29  C   UNL     1      47.425  38.521  82.412  0.00  0.00    +0.000 C 
ATOM     30  C   UNL     1      47.793  39.441  83.556  0.00  0.00    +0.000 C 
BRANCH  27  31
ATOM     31  C   UNL     1      44.682  36.468  83.634  0.00  0.00    +0.000 C 
ATOM     32  C   UNL     1      45.842  35.860  84.399  0.00  0.00    +0.000 C 
ATOM     33  C   UNL     1      43.378  36.534  84.406  0.00  0.00    +0.000 C 
ENDBRANCH  27  31
BRANCH  29  35
ATOM     34  O   UNL     1      48.342  37.130  80.667  0.00  0.00    +0.000 OA
ATOM     35  C   UNL     1      48.316  38.196  81.265  0.00  0.00    +0.000 C 
BRANCH  35  36
ATOM     36  O   UNL     1      49.146  39.196  80.898  0.00  0.00    +0.000 OA
ATOM     37  H   UNL     1      49.063  39.256  79.924  0.00  0.00    +0.000 HD
ENDBRANCH  35  36
ENDBRANCH  29  35
ENDBRANCH  24  27
ENDBRANCH   5  25
BRANCH   5  38
ATOM     38  C   UNL     1      41.021  37.128  80.004  0.00  0.00    +0.000 C 
ATOM     39  C   UNL     1      40.512  36.019  79.029  0.00  0.00    +0.000 C 
ATOM     40  C   UNL     1      40.918  36.584  81.458  0.00  0.00    +0.000 C 
ATOM     41  C   UNL     1      40.157  38.400  79.820  0.00  0.00    +0.000 C 
ENDBRANCH   5  38
TORSDOF 7
ENDMDL
MODEL 7
REMARK VINA RESULT:      -5.9     19.348     21.956
REMARK  Name = 10940649_MilnamideD.pdbqt.pdb
REMARK  7 active torsions:
REMARK  status: ('A' for Active; 'I' for Inactive)
REMARK    1  A    between atoms: C_3  and  C_8
REMARK    2  A    between atoms: C_22  and  C_25
REMARK    3  A    between atoms: C_22  and  C_38
REMARK    4  A    between atoms: N_24  and  C_27
REMARK    5  A    between atoms: C_27  and  C_28
REMARK    6  A    between atoms: C_32  and  C_35
REMARK    7  A    between atoms: C_35  and  O_36
REMARK                            x       y       z     vdW  Elec       q    Type
REMARK                         _______ _______ _______ _____ _____    ______ ____
ROOT
ATOM      1  O   UNL     1      52.392  15.131  75.685  0.00  0.00    +0.000 OA
ATOM      2  N   UNL     1      50.251  15.121  76.442  0.00  0.00    +0.000 N 
ATOM      3  C   UNL     1      51.516  15.671  76.350  0.00  0.00    +0.000 C 
ATOM      4  H   UNL     1      49.578  15.548  77.089  0.00  0.00    +0.000 HD
ATOM      5  C   UNL     1      49.819  13.955  75.764  0.00  0.00    +0.000 C 
ENDROOT
BRANCH   3   9
ATOM      6  N   UNL     1      51.435  17.021  78.540  0.00  0.00    +0.000 NA
ATOM      7  N   UNL     1      52.434  20.801  78.859  0.00  0.00    +0.000 N 
ATOM      8  C   UNL     1      52.027  18.197  76.217  0.00  0.00    +0.000 C 
ATOM      9  C   UNL     1      51.744  16.947  77.102  0.00  0.00    +0.000 C 
ATOM     10  C   UNL     1      52.304  19.499  77.032  0.00  0.00    +0.000 A 
ATOM     11  C   UNL     1      52.147  19.562  78.402  0.00  0.00    +0.000 A 
ATOM     12  C   UNL     1      50.764  18.542  75.373  0.00  0.00    +0.000 C 
ATOM     13  C   UNL     1      53.323  17.968  75.388  0.00  0.00    +0.000 C 
ATOM     14  C   UNL     1      52.709  20.826  76.641  0.00  0.00    +0.000 A 
ATOM     15  C   UNL     1      51.736  18.358  78.982  0.00  0.00    +0.000 C 
ATOM     16  C   UNL     1      52.785  21.614  77.807  0.00  0.00    +0.000 A 
ATOM     17  C   UNL     1      52.274  16.111  79.304  0.00  0.00    +0.000 C 
ATOM     18  C   UNL     1      53.013  21.427  75.404  0.00  0.00    +0.000 A 
ATOM     19  C   UNL     1      52.360  21.191  80.226  0.00  0.00    +0.000 C 
ATOM     20  C   UNL     1      53.155  22.967  77.771  0.00  0.00    +0.000 A 
ATOM     21  C   UNL     1      53.381  22.772  75.361  0.00  0.00    +0.000 A 
ATOM     22  C   UNL     1      53.452  23.525  76.526  0.00  0.00    +0.000 A 
ENDBRANCH   3   9
BRANCH   5  25
ATOM     23  O   UNL     1      50.619  13.772  73.585  0.00  0.00    +0.000 OA
ATOM     24  N   UNL     1      51.558  12.326  75.201  0.00  0.00    +0.000 N 
ATOM     25  C   UNL     1      50.680  13.332  74.730  0.00  0.00    +0.000 C 
ATOM     26  C   UNL     1      51.561  11.807  76.573  0.00  0.00    +0.000 C 
BRANCH  24  27
ATOM     27  C   UNL     1      52.527  11.769  74.348  0.00  0.00    +0.000 C 
ATOM     28  C   UNL     1      53.713  12.498  73.993  0.00  0.00    +0.000 C 
ATOM     29  C   UNL     1      54.790  13.152  73.666  0.00  0.00    +0.000 C 
ATOM     30  C   UNL     1      56.084  12.590  74.215  0.00  0.00    +0.000 C 
BRANCH  27  31
ATOM     31  C   UNL     1      52.387  10.425  73.808  0.00  0.00    +0.000 C 
ATOM     32  C   UNL     1      51.564  10.180  72.558  0.00  0.00    +0.000 C 
ATOM     33  C   UNL     1      53.479   9.401  74.059  0.00  0.00    +0.000 C 
ENDBRANCH  27  31
BRANCH  29  35
ATOM     34  O   UNL     1      55.582  14.804  72.097  0.00  0.00    +0.000 OA
ATOM     35  C   UNL     1      54.689  14.363  72.806  0.00  0.00    +0.000 C 
BRANCH  35  36
ATOM     36  O   UNL     1      53.493  14.987  72.853  0.00  0.00    +0.000 OA
ATOM     37  H   UNL     1      53.139  14.935  71.941  0.00  0.00    +0.000 HD
ENDBRANCH  35  36
ENDBRANCH  29  35
ENDBRANCH  24  27
ENDBRANCH   5  25
BRANCH   5  38
ATOM     38  C   UNL     1      48.398  13.418  75.822  0.00  0.00    +0.000 C 
ATOM     39  C   UNL     1      48.079  13.156  77.329  0.00  0.00    +0.000 C 
ATOM     40  C   UNL     1      47.445  14.534  75.309  0.00  0.00    +0.000 C 
ATOM     41  C   UNL     1      48.199  12.104  75.028  0.00  0.00    +0.000 C 
ENDBRANCH   5  38
TORSDOF 7
ENDMDL
MODEL 8
REMARK VINA RESULT:      -5.9     45.400     48.197
REMARK  Name = 10940649_MilnamideD.pdbqt.pdb
REMARK  7 active torsions:
REMARK  status: ('A' for Active; 'I' for Inactive)
REMARK    1  A    between atoms: C_3  and  C_8
REMARK    2  A    between atoms: C_22  and  C_25
REMARK    3  A    between atoms: C_22  and  C_38
REMARK    4  A    between atoms: N_24  and  C_27
REMARK    5  A    between atoms: C_27  and  C_28
REMARK    6  A    between atoms: C_32  and  C_35
REMARK    7  A    between atoms: C_35  and  O_36
REMARK                            x       y       z     vdW  Elec       q    Type
REMARK                         _______ _______ _______ _____ _____    ______ ____
ROOT
ATOM      1  O   UNL     1      21.455  11.861  86.327  0.00  0.00    +0.000 OA
ATOM      2  N   UNL     1      22.794  11.610  84.511  0.00  0.00    +0.000 N 
ATOM      3  C   UNL     1      21.993  11.112  85.522  0.00  0.00    +0.000 C 
ATOM      4  H   UNL     1      23.307  10.945  83.922  0.00  0.00    +0.000 HD
ATOM      5  C   UNL     1      23.028  12.984  84.261  0.00  0.00    +0.000 C 
ENDROOT
BRANCH   3   9
ATOM      6  N   UNL     1      20.520   9.015  85.278  0.00  0.00    +0.000 NA
ATOM      7  N   UNL     1      21.751   5.346  85.921  0.00  0.00    +0.000 N 
ATOM      8  C   UNL     1      23.014   8.846  86.217  0.00  0.00    +0.000 C 
ATOM      9  C   UNL     1      21.829   9.623  85.570  0.00  0.00    +0.000 C 
ATOM     10  C   UNL     1      22.831   7.295  86.211  0.00  0.00    +0.000 A 
ATOM     11  C   UNL     1      21.655   6.690  85.818  0.00  0.00    +0.000 A 
ATOM     12  C   UNL     1      23.119   9.207  87.729  0.00  0.00    +0.000 C 
ATOM     13  C   UNL     1      24.312   9.092  85.395  0.00  0.00    +0.000 C 
ATOM     14  C   UNL     1      23.699   6.210  86.594  0.00  0.00    +0.000 A 
ATOM     15  C   UNL     1      20.661   7.589  85.416  0.00  0.00    +0.000 C 
ATOM     16  C   UNL     1      22.995   5.006  86.396  0.00  0.00    +0.000 A 
ATOM     17  C   UNL     1      20.112   9.280  83.908  0.00  0.00    +0.000 C 
ATOM     18  C   UNL     1      25.015   6.145  87.093  0.00  0.00    +0.000 A 
ATOM     19  C   UNL     1      20.704   4.437  85.599  0.00  0.00    +0.000 C 
ATOM     20  C   UNL     1      23.565   3.754  86.676  0.00  0.00    +0.000 A 
ATOM     21  C   UNL     1      25.586   4.903  87.373  0.00  0.00    +0.000 A 
ATOM     22  C   UNL     1      24.872   3.730  87.166  0.00  0.00    +0.000 A 
ENDBRANCH   3   9
BRANCH   5  25
ATOM     23  O   UNL     1      22.780  14.568  85.949  0.00  0.00    +0.000 OA
ATOM     24  N   UNL     1      20.983  14.318  84.434  0.00  0.00    +0.000 N 
ATOM     25  C   UNL     1      22.251  14.017  84.987  0.00  0.00    +0.000 C 
ATOM     26  C   UNL     1      20.379  13.598  83.307  0.00  0.00    +0.000 C 
BRANCH  24  27
ATOM     27  C   UNL     1      20.219  15.384  84.942  0.00  0.00    +0.000 C 
ATOM     28  C   UNL     1      18.963  15.152  85.599  0.00  0.00    +0.000 C 
ATOM     29  C   UNL     1      17.823  14.950  86.194  0.00  0.00    +0.000 C 
ATOM     30  C   UNL     1      17.800  15.258  87.676  0.00  0.00    +0.000 C 
BRANCH  27  31
ATOM     31  C   UNL     1      20.676  16.763  84.850  0.00  0.00    +0.000 C 
ATOM     32  C   UNL     1      20.383  17.589  83.612  0.00  0.00    +0.000 C 
ATOM     33  C   UNL     1      20.875  17.571  86.119  0.00  0.00    +0.000 C 
ENDBRANCH  27  31
BRANCH  29  35
ATOM     34  O   UNL     1      15.638  13.974  85.891  0.00  0.00    +0.000 OA
ATOM     35  C   UNL     1      16.658  14.451  85.414  0.00  0.00    +0.000 C 
BRANCH  35  36
ATOM     36  O   UNL     1      16.792  14.555  84.075  0.00  0.00    +0.000 OA
ATOM     37  H   UNL     1      17.664  14.156  83.872  0.00  0.00    +0.000 HD
ENDBRANCH  35  36
ENDBRANCH  29  35
ENDBRANCH  24  27
ENDBRANCH   5  25
BRANCH   5  38
ATOM     38  C   UNL     1      23.851  13.504  83.093  0.00  0.00    +0.000 C 
ATOM     39  C   UNL     1      25.352  13.282  83.466  0.00  0.00    +0.000 C 
ATOM     40  C   UNL     1      23.523  12.628  81.851  0.00  0.00    +0.000 C 
ATOM     41  C   UNL     1      23.621  15.006  82.794  0.00  0.00    +0.000 C 
ENDBRANCH   5  38
TORSDOF 7
ENDMDL
MODEL 9
REMARK VINA RESULT:      -5.8     25.412     29.007
REMARK  Name = 10940649_MilnamideD.pdbqt.pdb
REMARK  7 active torsions:
REMARK  status: ('A' for Active; 'I' for Inactive)
REMARK    1  A    between atoms: C_3  and  C_8
REMARK    2  A    between atoms: C_22  and  C_25
REMARK    3  A    between atoms: C_22  and  C_38
REMARK    4  A    between atoms: N_24  and  C_27
REMARK    5  A    between atoms: C_27  and  C_28
REMARK    6  A    between atoms: C_32  and  C_35
REMARK    7  A    between atoms: C_35  and  O_36
REMARK                            x       y       z     vdW  Elec       q    Type
REMARK                         _______ _______ _______ _____ _____    ______ ____
ROOT
ATOM      1  O   UNL     1      38.895  22.959  83.906  0.00  0.00    +0.000 OA
ATOM      2  N   UNL     1      38.884  22.204  81.765  0.00  0.00    +0.000 N 
ATOM      3  C   UNL     1      38.358  22.278  83.041  0.00  0.00    +0.000 C 
ATOM      4  H   UNL     1      38.464  21.544  81.100  0.00  0.00    +0.000 HD
ATOM      5  C   UNL     1      40.019  22.919  81.310  0.00  0.00    +0.000 C 
ENDROOT
BRANCH   3   9
ATOM      6  N   UNL     1      37.205  20.097  83.777  0.00  0.00    +0.000 NA
ATOM      7  N   UNL     1      33.324  19.531  83.792  0.00  0.00    +0.000 N 
ATOM      8  C   UNL     1      35.800  22.118  82.742  0.00  0.00    +0.000 C 
ATOM      9  C   UNL     1      37.112  21.486  83.295  0.00  0.00    +0.000 C 
ATOM     10  C   UNL     1      34.515  21.290  83.063  0.00  0.00    +0.000 A 
ATOM     11  C   UNL     1      34.567  20.036  83.635  0.00  0.00    +0.000 A 
ATOM     12  C   UNL     1      35.846  22.156  81.186  0.00  0.00    +0.000 C 
ATOM     13  C   UNL     1      35.559  23.497  83.422  0.00  0.00    +0.000 C 
ATOM     14  C   UNL     1      33.113  21.546  82.849  0.00  0.00    +0.000 A 
ATOM     15  C   UNL     1      35.864  19.592  83.912  0.00  0.00    +0.000 C 
ATOM     16  C   UNL     1      32.395  20.428  83.319  0.00  0.00    +0.000 A 
ATOM     17  C   UNL     1      37.826  20.039  85.091  0.00  0.00    +0.000 C 
ATOM     18  C   UNL     1      32.392  22.622  82.295  0.00  0.00    +0.000 A 
ATOM     19  C   UNL     1      33.039  18.252  84.348  0.00  0.00    +0.000 C 
ATOM     20  C   UNL     1      30.995  20.360  83.256  0.00  0.00    +0.000 A 
ATOM     21  C   UNL     1      31.000  22.559  82.229  0.00  0.00    +0.000 A 
ATOM     22  C   UNL     1      30.316  21.447  82.704  0.00  0.00    +0.000 A 
ENDBRANCH   3   9
BRANCH   5  25
ATOM     23  O   UNL     1      40.158  25.105  82.099  0.00  0.00    +0.000 OA
ATOM     24  N   UNL     1      41.655  23.529  83.026  0.00  0.00    +0.000 N 
ATOM     25  C   UNL     1      40.627  23.971  82.159  0.00  0.00    +0.000 C 
ATOM     26  C   UNL     1      42.208  22.170  83.028  0.00  0.00    +0.000 C 
BRANCH  24  27
ATOM     27  C   UNL     1      42.202  24.399  83.985  0.00  0.00    +0.000 C 
ATOM     28  C   UNL     1      43.363  25.194  83.693  0.00  0.00    +0.000 C 
ATOM     29  C   UNL     1      44.415  25.916  83.436  0.00  0.00    +0.000 C 
ATOM     30  C   UNL     1      44.176  27.409  83.362  0.00  0.00    +0.000 C 
BRANCH  27  31
ATOM     31  C   UNL     1      41.607  24.554  85.304  0.00  0.00    +0.000 C 
ATOM     32  C   UNL     1      41.646  23.416  86.304  0.00  0.00    +0.000 C 
ATOM     33  C   UNL     1      41.507  25.938  85.921  0.00  0.00    +0.000 C 
ENDBRANCH  27  31
BRANCH  29  35
ATOM     34  O   UNL     1      45.906  24.077  82.973  0.00  0.00    +0.000 OA
ATOM     35  C   UNL     1      45.735  25.258  83.239  0.00  0.00    +0.000 C 
BRANCH  35  36
ATOM     36  O   UNL     1      46.797  26.079  83.380  0.00  0.00    +0.000 OA
ATOM     37  H   UNL     1      46.967  26.119  84.344  0.00  0.00    +0.000 HD
ENDBRANCH  35  36
ENDBRANCH  29  35
ENDBRANCH  24  27
ENDBRANCH   5  25
BRANCH   5  38
ATOM     38  C   UNL     1      40.529  22.878  79.878  0.00  0.00    +0.000 C 
ATOM     39  C   UNL     1      40.878  21.387  79.568  0.00  0.00    +0.000 C 
ATOM     40  C   UNL     1      39.361  23.309  78.944  0.00  0.00    +0.000 C 
ATOM     41  C   UNL     1      41.785  23.752  79.642  0.00  0.00    +0.000 C 
ENDBRANCH   5  38
TORSDOF 7
ENDMDL
