MODEL 1
REMARK VINA RESULT:      -8.1      0.000      0.000
REMARK  Name = 11167602_Regorafenib.pdbqt.pdb
REMARK  6 active torsions:
REMARK  status: ('A' for Active; 'I' for Inactive)
REMARK    1  A    between atoms: C_2  and  N_10
REMARK    2  A    between atoms: C_3  and  O_25
REMARK    3  A    between atoms: N_9  and  C_15
REMARK    4  A    between atoms: C_16  and  C_24
REMARK    5  A    between atoms: O_25  and  C_27
REMARK    6  A    between atoms: C_29  and  C_34
REMARK                            x       y       z     vdW  Elec       q    Type
REMARK                         _______ _______ _______ _____ _____    ______ ____
ROOT
ATOM      1  F   UNL     1      54.538  38.925  77.317  0.00  0.00    +0.000 F 
ATOM      2  C   UNL     1      56.598  38.137  76.459  0.00  0.00    +0.000 A 
ATOM      3  C   UNL     1      56.244  35.791  77.936  0.00  0.00    +0.000 A 
ATOM      4  C   UNL     1      55.468  37.959  77.262  0.00  0.00    +0.000 A 
ATOM      5  C   UNL     1      57.561  37.130  76.424  0.00  0.00    +0.000 A 
ATOM      6  C   UNL     1      55.287  36.802  78.012  0.00  0.00    +0.000 A 
ATOM      7  C   UNL     1      57.394  35.964  77.169  0.00  0.00    +0.000 A 
ENDROOT
BRANCH   2  10
ATOM      8  O   UNL     1      55.675  38.682  73.760  0.00  0.00    +0.000 OA
ATOM      9  N   UNL     1      56.489  40.831  74.011  0.00  0.00    +0.000 N 
ATOM     10  N   UNL     1      56.711  39.333  75.718  0.00  0.00    +0.000 N 
ATOM     11  C   UNL     1      56.237  39.535  74.433  0.00  0.00    +0.000 C 
ATOM     12  H   UNL     1      56.935  41.461  74.662  0.00  0.00    +0.000 HD
ATOM     13  H   UNL     1      57.196  40.089  76.181  0.00  0.00    +0.000 HD
BRANCH   9  15
ATOM     14 CL   UNL     1      54.921  43.096  68.770  0.00  0.00    +0.000 Cl
ATOM     15  C   UNL     1      56.147  41.362  72.754  0.00  0.00    +0.000 A 
ATOM     16  C   UNL     1      54.440  42.436  71.382  0.00  0.00    +0.000 A 
ATOM     17  C   UNL     1      54.864  41.888  72.598  0.00  0.00    +0.000 A 
ATOM     18  C   UNL     1      57.022  41.384  71.673  0.00  0.00    +0.000 A 
ATOM     19  C   UNL     1      55.334  42.448  70.310  0.00  0.00    +0.000 A 
ATOM     20  C   UNL     1      56.618  41.924  70.456  0.00  0.00    +0.000 A 
BRANCH  16  24
ATOM     21  F   UNL     1      52.300  42.361  70.331  0.00  0.00    +0.000 F 
ATOM     22  F   UNL     1      52.346  42.857  72.440  0.00  0.00    +0.000 F 
ATOM     23  F   UNL     1      53.023  44.306  70.955  0.00  0.00    +0.000 F 
ATOM     24  C   UNL     1      53.051  42.985  71.283  0.00  0.00    +0.000 C 
ENDBRANCH  16  24
ENDBRANCH   9  15
ENDBRANCH   2  10
BRANCH   3  25
ATOM     25  O   UNL     1      56.168  34.654  78.707  0.00  0.00    +0.000 OA
BRANCH  25  27
ATOM     26  N   UNL     1      58.353  34.312  82.245  0.00  0.00    +0.000 NA
ATOM     27  C   UNL     1      56.895  34.620  79.876  0.00  0.00    +0.000 A 
ATOM     28  C   UNL     1      56.699  35.512  80.925  0.00  0.00    +0.000 A 
ATOM     29  C   UNL     1      57.453  35.321  82.070  0.00  0.00    +0.000 A 
ATOM     30  C   UNL     1      57.785  33.561  80.015  0.00  0.00    +0.000 A 
ATOM     31  C   UNL     1      58.488  33.456  81.205  0.00  0.00    +0.000 A 
BRANCH  29  34
ATOM     32  O   UNL     1      56.377  37.072  83.225  0.00  0.00    +0.000 OA
ATOM     33  N   UNL     1      58.297  36.116  84.157  0.00  0.00    +0.000 N 
ATOM     34  C   UNL     1      57.304  36.268  83.205  0.00  0.00    +0.000 C 
ATOM     35  C   UNL     1      58.545  36.807  85.394  0.00  0.00    +0.000 C 
ATOM     36  H   UNL     1      58.976  35.388  83.942  0.00  0.00    +0.000 HD
ENDBRANCH  29  34
ENDBRANCH  25  27
ENDBRANCH   3  25
TORSDOF 6
ENDMDL
MODEL 2
REMARK VINA RESULT:      -7.4      1.915      2.236
REMARK  Name = 11167602_Regorafenib.pdbqt.pdb
REMARK  6 active torsions:
REMARK  status: ('A' for Active; 'I' for Inactive)
REMARK    1  A    between atoms: C_2  and  N_10
REMARK    2  A    between atoms: C_3  and  O_25
REMARK    3  A    between atoms: N_9  and  C_15
REMARK    4  A    between atoms: C_16  and  C_24
REMARK    5  A    between atoms: O_25  and  C_27
REMARK    6  A    between atoms: C_29  and  C_34
REMARK                            x       y       z     vdW  Elec       q    Type
REMARK                         _______ _______ _______ _____ _____    ______ ____
ROOT
ATOM      1  F   UNL     1      57.405  36.369  74.218  0.00  0.00    +0.000 F 
ATOM      2  C   UNL     1      56.775  37.933  75.879  0.00  0.00    +0.000 A 
ATOM      3  C   UNL     1      58.587  36.715  77.624  0.00  0.00    +0.000 A 
ATOM      4  C   UNL     1      57.540  36.837  75.468  0.00  0.00    +0.000 A 
ATOM      5  C   UNL     1      56.916  38.398  77.185  0.00  0.00    +0.000 A 
ATOM      6  C   UNL     1      58.434  36.214  76.332  0.00  0.00    +0.000 A 
ATOM      7  C   UNL     1      57.810  37.785  78.063  0.00  0.00    +0.000 A 
ENDROOT
BRANCH   2  10
ATOM      8  O   UNL     1      57.363  39.923  73.847  0.00  0.00    +0.000 OA
ATOM      9  N   UNL     1      55.141  39.808  73.219  0.00  0.00    +0.000 N 
ATOM     10  N   UNL     1      55.894  38.521  74.947  0.00  0.00    +0.000 N 
ATOM     11  C   UNL     1      56.239  39.461  73.990  0.00  0.00    +0.000 C 
ATOM     12  H   UNL     1      54.266  39.340  73.406  0.00  0.00    +0.000 HD
ATOM     13  H   UNL     1      54.930  38.226  75.011  0.00  0.00    +0.000 HD
BRANCH   9  15
ATOM     14 CL   UNL     1      55.134  43.846  68.888  0.00  0.00    +0.000 Cl
ATOM     15  C   UNL     1      55.144  40.743  72.167  0.00  0.00    +0.000 A 
ATOM     16  C   UNL     1      54.946  43.083  71.510  0.00  0.00    +0.000 A 
ATOM     17  C   UNL     1      54.956  42.086  72.492  0.00  0.00    +0.000 A 
ATOM     18  C   UNL     1      55.325  40.389  70.834  0.00  0.00    +0.000 A 
ATOM     19  C   UNL     1      55.129  42.706  70.178  0.00  0.00    +0.000 A 
ATOM     20  C   UNL     1      55.317  41.366  69.843  0.00  0.00    +0.000 A 
BRANCH  16  24
ATOM     21  F   UNL     1      54.525  44.640  73.268  0.00  0.00    +0.000 F 
ATOM     22  F   UNL     1      55.811  45.299  71.653  0.00  0.00    +0.000 F 
ATOM     23  F   UNL     1      53.664  45.086  71.330  0.00  0.00    +0.000 F 
ATOM     24  C   UNL     1      54.740  44.505  71.927  0.00  0.00    +0.000 C 
ENDBRANCH  16  24
ENDBRANCH   9  15
ENDBRANCH   2  10
BRANCH   3  25
ATOM     25  O   UNL     1      59.396  36.104  78.553  0.00  0.00    +0.000 OA
BRANCH  25  27
ATOM     26  N   UNL     1      57.405  33.707  81.328  0.00  0.00    +0.000 NA
ATOM     27  C   UNL     1      58.794  35.334  79.523  0.00  0.00    +0.000 A 
ATOM     28  C   UNL     1      58.643  35.745  80.843  0.00  0.00    +0.000 A 
ATOM     29  C   UNL     1      57.957  34.897  81.697  0.00  0.00    +0.000 A 
ATOM     30  C   UNL     1      58.229  34.137  79.093  0.00  0.00    +0.000 A 
ATOM     31  C   UNL     1      57.557  33.365  80.027  0.00  0.00    +0.000 A 
BRANCH  29  34
ATOM     32  O   UNL     1      57.676  34.414  83.987  0.00  0.00    +0.000 OA
ATOM     33  N   UNL     1      57.808  36.649  83.312  0.00  0.00    +0.000 N 
ATOM     34  C   UNL     1      57.799  35.277  83.124  0.00  0.00    +0.000 C 
ATOM     35  C   UNL     1      57.684  37.449  84.500  0.00  0.00    +0.000 C 
ATOM     36  H   UNL     1      57.919  37.189  82.455  0.00  0.00    +0.000 HD
ENDBRANCH  29  34
ENDBRANCH  25  27
ENDBRANCH   3  25
TORSDOF 6
ENDMDL
MODEL 3
REMARK VINA RESULT:      -7.4      1.589      1.881
REMARK  Name = 11167602_Regorafenib.pdbqt.pdb
REMARK  6 active torsions:
REMARK  status: ('A' for Active; 'I' for Inactive)
REMARK    1  A    between atoms: C_2  and  N_10
REMARK    2  A    between atoms: C_3  and  O_25
REMARK    3  A    between atoms: N_9  and  C_15
REMARK    4  A    between atoms: C_16  and  C_24
REMARK    5  A    between atoms: O_25  and  C_27
REMARK    6  A    between atoms: C_29  and  C_34
REMARK                            x       y       z     vdW  Elec       q    Type
REMARK                         _______ _______ _______ _____ _____    ______ ____
ROOT
ATOM      1  F   UNL     1      55.646  39.299  77.160  0.00  0.00    +0.000 F 
ATOM      2  C   UNL     1      57.028  37.549  76.369  0.00  0.00    +0.000 A 
ATOM      3  C   UNL     1      56.055  35.932  78.431  0.00  0.00    +0.000 A 
ATOM      4  C   UNL     1      56.089  38.038  77.281  0.00  0.00    +0.000 A 
ATOM      5  C   UNL     1      57.489  36.241  76.518  0.00  0.00    +0.000 A 
ATOM      6  C   UNL     1      55.607  37.248  78.320  0.00  0.00    +0.000 A 
ATOM      7  C   UNL     1      57.016  35.437  77.553  0.00  0.00    +0.000 A 
ENDROOT
BRANCH   2  10
ATOM      8  O   UNL     1      55.755  38.091  73.816  0.00  0.00    +0.000 OA
ATOM      9  N   UNL     1      57.493  39.546  73.360  0.00  0.00    +0.000 N 
ATOM     10  N   UNL     1      57.466  38.403  75.335  0.00  0.00    +0.000 N 
ATOM     11  C   UNL     1      56.805  38.630  74.140  0.00  0.00    +0.000 C 
ATOM     12  H   UNL     1      58.336  39.951  73.740  0.00  0.00    +0.000 HD
ATOM     13  H   UNL     1      58.348  38.869  75.497  0.00  0.00    +0.000 HD
BRANCH   9  15
ATOM     14 CL   UNL     1      55.824  41.544  68.042  0.00  0.00    +0.000 Cl
ATOM     15  C   UNL     1      57.100  39.990  72.084  0.00  0.00    +0.000 A 
ATOM     16  C   UNL     1      56.339  41.857  70.711  0.00  0.00    +0.000 A 
ATOM     17  C   UNL     1      56.741  41.331  71.944  0.00  0.00    +0.000 A 
ATOM     18  C   UNL     1      57.057  39.159  70.969  0.00  0.00    +0.000 A 
ATOM     19  C   UNL     1      56.302  41.006  69.605  0.00  0.00    +0.000 A 
ATOM     20  C   UNL     1      56.659  39.664  69.735  0.00  0.00    +0.000 A 
BRANCH  16  24
ATOM     21  F   UNL     1      56.655  43.975  69.660  0.00  0.00    +0.000 F 
ATOM     22  F   UNL     1      54.653  43.501  70.343  0.00  0.00    +0.000 F 
ATOM     23  F   UNL     1      56.220  43.983  71.783  0.00  0.00    +0.000 F 
ATOM     24  C   UNL     1      55.969  43.305  70.631  0.00  0.00    +0.000 C 
ENDBRANCH  16  24
ENDBRANCH   9  15
ENDBRANCH   2  10
BRANCH   3  25
ATOM     25  O   UNL     1      55.679  35.119  79.475  0.00  0.00    +0.000 OA
BRANCH  25  27
ATOM     26  N   UNL     1      58.215  34.603  82.748  0.00  0.00    +0.000 NA
ATOM     27  C   UNL     1      56.528  35.028  80.556  0.00  0.00    +0.000 A 
ATOM     28  C   UNL     1      56.520  35.931  81.614  0.00  0.00    +0.000 A 
ATOM     29  C   UNL     1      57.382  35.679  82.668  0.00  0.00    +0.000 A 
ATOM     30  C   UNL     1      57.344  33.902  80.602  0.00  0.00    +0.000 A 
ATOM     31  C   UNL     1      58.165  33.741  81.706  0.00  0.00    +0.000 A 
BRANCH  29  34
ATOM     32  O   UNL     1      58.498  37.147  84.138  0.00  0.00    +0.000 OA
ATOM     33  N   UNL     1      56.194  36.833  84.389  0.00  0.00    +0.000 N 
ATOM     34  C   UNL     1      57.434  36.634  83.806  0.00  0.00    +0.000 C 
ATOM     35  C   UNL     1      55.783  37.650  85.497  0.00  0.00    +0.000 C 
ATOM     36  H   UNL     1      55.438  36.301  83.959  0.00  0.00    +0.000 HD
ENDBRANCH  29  34
ENDBRANCH  25  27
ENDBRANCH   3  25
TORSDOF 6
ENDMDL
MODEL 4
REMARK VINA RESULT:      -7.3      2.217      2.596
REMARK  Name = 11167602_Regorafenib.pdbqt.pdb
REMARK  6 active torsions:
REMARK  status: ('A' for Active; 'I' for Inactive)
REMARK    1  A    between atoms: C_2  and  N_10
REMARK    2  A    between atoms: C_3  and  O_25
REMARK    3  A    between atoms: N_9  and  C_15
REMARK    4  A    between atoms: C_16  and  C_24
REMARK    5  A    between atoms: O_25  and  C_27
REMARK    6  A    between atoms: C_29  and  C_34
REMARK                            x       y       z     vdW  Elec       q    Type
REMARK                         _______ _______ _______ _____ _____    ______ ____
ROOT
ATOM      1  F   UNL     1      57.872  36.768  73.528  0.00  0.00    +0.000 F 
ATOM      2  C   UNL     1      58.037  38.335  75.294  0.00  0.00    +0.000 A 
ATOM      3  C   UNL     1      58.779  36.246  76.996  0.00  0.00    +0.000 A 
ATOM      4  C   UNL     1      58.133  37.024  74.819  0.00  0.00    +0.000 A 
ATOM      5  C   UNL     1      58.298  38.582  76.641  0.00  0.00    +0.000 A 
ATOM      6  C   UNL     1      58.488  35.974  75.660  0.00  0.00    +0.000 A 
ATOM      7  C   UNL     1      58.656  37.540  77.496  0.00  0.00    +0.000 A 
ENDROOT
BRANCH   2  10
ATOM      8  O   UNL     1      55.461  39.633  74.954  0.00  0.00    +0.000 OA
ATOM      9  N   UNL     1      56.432  40.926  73.301  0.00  0.00    +0.000 N 
ATOM     10  N   UNL     1      57.681  39.352  74.383  0.00  0.00    +0.000 N 
ATOM     11  C   UNL     1      56.433  39.942  74.277  0.00  0.00    +0.000 C 
ATOM     12  H   UNL     1      57.300  41.118  72.824  0.00  0.00    +0.000 HD
ATOM     13  H   UNL     1      58.413  39.651  73.754  0.00  0.00    +0.000 HD
BRANCH   9  15
ATOM     14 CL   UNL     1      51.710  44.114  71.686  0.00  0.00    +0.000 Cl
ATOM     15  C   UNL     1      55.323  41.711  72.934  0.00  0.00    +0.000 A 
ATOM     16  C   UNL     1      53.197  41.817  71.742  0.00  0.00    +0.000 A 
ATOM     17  C   UNL     1      54.334  41.112  72.153  0.00  0.00    +0.000 A 
ATOM     18  C   UNL     1      55.171  43.041  73.313  0.00  0.00    +0.000 A 
ATOM     19  C   UNL     1      53.065  43.151  72.132  0.00  0.00    +0.000 A 
ATOM     20  C   UNL     1      54.048  43.758  72.913  0.00  0.00    +0.000 A 
BRANCH  16  24
ATOM     21  F   UNL     1      52.453  39.790  70.728  0.00  0.00    +0.000 F 
ATOM     22  F   UNL     1      50.928  41.149  71.451  0.00  0.00    +0.000 F 
ATOM     23  F   UNL     1      52.065  41.630  69.652  0.00  0.00    +0.000 F 
ATOM     24  C   UNL     1      52.174  41.114  70.906  0.00  0.00    +0.000 C 
ENDBRANCH  16  24
ENDBRANCH   9  15
ENDBRANCH   2  10
BRANCH   3  25
ATOM     25  O   UNL     1      59.062  35.248  77.899  0.00  0.00    +0.000 OA
BRANCH  25  27
ATOM     26  N   UNL     1      56.264  34.815  80.964  0.00  0.00    +0.000 NA
ATOM     27  C   UNL     1      58.196  35.071  78.954  0.00  0.00    +0.000 A 
ATOM     28  C   UNL     1      58.552  35.287  80.282  0.00  0.00    +0.000 A 
ATOM     29  C   UNL     1      57.560  35.137  81.237  0.00  0.00    +0.000 A 
ATOM     30  C   UNL     1      56.880  34.764  78.623  0.00  0.00    +0.000 A 
ATOM     31  C   UNL     1      55.963  34.642  79.656  0.00  0.00    +0.000 A 
BRANCH  29  34
ATOM     32  O   UNL     1      58.400  34.407  83.316  0.00  0.00    +0.000 OA
ATOM     33  N   UNL     1      57.586  36.591  83.130  0.00  0.00    +0.000 N 
ATOM     34  C   UNL     1      57.900  35.323  82.671  0.00  0.00    +0.000 C 
ATOM     35  C   UNL     1      57.734  37.200  84.424  0.00  0.00    +0.000 C 
ATOM     36  H   UNL     1      57.172  37.201  82.426  0.00  0.00    +0.000 HD
ENDBRANCH  29  34
ENDBRANCH  25  27
ENDBRANCH   3  25
TORSDOF 6
ENDMDL
MODEL 5
REMARK VINA RESULT:      -7.1      6.237     12.518
REMARK  Name = 11167602_Regorafenib.pdbqt.pdb
REMARK  6 active torsions:
REMARK  status: ('A' for Active; 'I' for Inactive)
REMARK    1  A    between atoms: C_2  and  N_10
REMARK    2  A    between atoms: C_3  and  O_25
REMARK    3  A    between atoms: N_9  and  C_15
REMARK    4  A    between atoms: C_16  and  C_24
REMARK    5  A    between atoms: O_25  and  C_27
REMARK    6  A    between atoms: C_29  and  C_34
REMARK                            x       y       z     vdW  Elec       q    Type
REMARK                         _______ _______ _______ _____ _____    ______ ____
ROOT
ATOM      1  F   UNL     1      55.988  36.552  81.675  0.00  0.00    +0.000 F 
ATOM      2  C   UNL     1      57.945  35.231  81.524  0.00  0.00    +0.000 A 
ATOM      3  C   UNL     1      58.433  36.353  79.010  0.00  0.00    +0.000 A 
ATOM      4  C   UNL     1      57.071  36.175  80.978  0.00  0.00    +0.000 A 
ATOM      5  C   UNL     1      59.059  34.840  80.781  0.00  0.00    +0.000 A 
ATOM      6  C   UNL     1      57.296  36.731  79.723  0.00  0.00    +0.000 A 
ATOM      7  C   UNL     1      59.298  35.388  79.522  0.00  0.00    +0.000 A 
ENDROOT
BRANCH   2  10
ATOM      8  O   UNL     1      58.055  36.600  84.083  0.00  0.00    +0.000 OA
ATOM      9  N   UNL     1      57.350  34.630  85.066  0.00  0.00    +0.000 N 
ATOM     10  N   UNL     1      57.660  34.716  82.806  0.00  0.00    +0.000 N 
ATOM     11  C   UNL     1      57.719  35.427  83.994  0.00  0.00    +0.000 C 
ATOM     12  H   UNL     1      57.063  33.681  84.872  0.00  0.00    +0.000 HD
ATOM     13  H   UNL     1      57.406  33.739  82.839  0.00  0.00    +0.000 HD
BRANCH   9  15
ATOM     14 CL   UNL     1      57.051  36.312  90.735  0.00  0.00    +0.000 Cl
ATOM     15  C   UNL     1      57.312  35.038  86.412  0.00  0.00    +0.000 A 
ATOM     16  C   UNL     1      55.968  35.314  88.429  0.00  0.00    +0.000 A 
ATOM     17  C   UNL     1      56.096  34.931  87.089  0.00  0.00    +0.000 A 
ATOM     18  C   UNL     1      58.420  35.537  87.088  0.00  0.00    +0.000 A 
ATOM     19  C   UNL     1      57.092  35.812  89.089  0.00  0.00    +0.000 A 
ATOM     20  C   UNL     1      58.312  35.923  88.421  0.00  0.00    +0.000 A 
BRANCH  16  24
ATOM     21  F   UNL     1      53.699  34.590  88.291  0.00  0.00    +0.000 F 
ATOM     22  F   UNL     1      54.681  34.397  90.213  0.00  0.00    +0.000 F 
ATOM     23  F   UNL     1      54.098  36.364  89.471  0.00  0.00    +0.000 F 
ATOM     24  C   UNL     1      54.636  35.171  89.095  0.00  0.00    +0.000 C 
ENDBRANCH  16  24
ENDBRANCH   9  15
ENDBRANCH   2  10
BRANCH   3  25
ATOM     25  O   UNL     1      58.678  36.803  77.734  0.00  0.00    +0.000 OA
BRANCH  25  27
ATOM     26  N   UNL     1      55.455  37.614  75.212  0.00  0.00    +0.000 NA
ATOM     27  C   UNL     1      57.595  37.132  76.950  0.00  0.00    +0.000 A 
ATOM     28  C   UNL     1      57.245  38.441  76.638  0.00  0.00    +0.000 A 
ATOM     29  C   UNL     1      56.172  38.624  75.782  0.00  0.00    +0.000 A 
ATOM     30  C   UNL     1      56.908  36.067  76.375  0.00  0.00    +0.000 A 
ATOM     31  C   UNL     1      55.852  36.360  75.527  0.00  0.00    +0.000 A 
BRANCH  29  34
ATOM     32  O   UNL     1      55.511  40.319  74.282  0.00  0.00    +0.000 OA
ATOM     33  N   UNL     1      55.645  40.818  76.562  0.00  0.00    +0.000 N 
ATOM     34  C   UNL     1      55.739  40.005  75.446  0.00  0.00    +0.000 C 
ATOM     35  C   UNL     1      55.275  42.200  76.707  0.00  0.00    +0.000 C 
ATOM     36  H   UNL     1      55.884  40.356  77.439  0.00  0.00    +0.000 HD
ENDBRANCH  29  34
ENDBRANCH  25  27
ENDBRANCH   3  25
TORSDOF 6
ENDMDL
MODEL 6
REMARK VINA RESULT:      -6.8      5.835     11.796
REMARK  Name = 11167602_Regorafenib.pdbqt.pdb
REMARK  6 active torsions:
REMARK  status: ('A' for Active; 'I' for Inactive)
REMARK    1  A    between atoms: C_2  and  N_10
REMARK    2  A    between atoms: C_3  and  O_25
REMARK    3  A    between atoms: N_9  and  C_15
REMARK    4  A    between atoms: C_16  and  C_24
REMARK    5  A    between atoms: O_25  and  C_27
REMARK    6  A    between atoms: C_29  and  C_34
REMARK                            x       y       z     vdW  Elec       q    Type
REMARK                         _______ _______ _______ _____ _____    ______ ____
ROOT
ATOM      1  F   UNL     1      55.994  34.677  80.462  0.00  0.00    +0.000 F 
ATOM      2  C   UNL     1      58.150  35.651  80.408  0.00  0.00    +0.000 A 
ATOM      3  C   UNL     1      57.757  36.218  77.699  0.00  0.00    +0.000 A 
ATOM      4  C   UNL     1      56.961  35.294  79.766  0.00  0.00    +0.000 A 
ATOM      5  C   UNL     1      59.150  36.279  79.667  0.00  0.00    +0.000 A 
ATOM      6  C   UNL     1      56.759  35.558  78.415  0.00  0.00    +0.000 A 
ATOM      7  C   UNL     1      58.963  36.551  78.312  0.00  0.00    +0.000 A 
ENDROOT
BRANCH   2  10
ATOM      8  O   UNL     1      56.673  36.775  82.641  0.00  0.00    +0.000 OA
ATOM      9  N   UNL     1      57.901  35.396  84.032  0.00  0.00    +0.000 N 
ATOM     10  N   UNL     1      58.283  35.360  81.782  0.00  0.00    +0.000 N 
ATOM     11  C   UNL     1      57.536  35.924  82.803  0.00  0.00    +0.000 C 
ATOM     12  H   UNL     1      58.608  34.675  84.045  0.00  0.00    +0.000 HD
ATOM     13  H   UNL     1      59.000  34.689  82.020  0.00  0.00    +0.000 HD
BRANCH   9  15
ATOM     14 CL   UNL     1      55.589  37.059  89.223  0.00  0.00    +0.000 Cl
ATOM     15  C   UNL     1      57.347  35.759  85.273  0.00  0.00    +0.000 A 
ATOM     16  C   UNL     1      56.741  37.568  86.793  0.00  0.00    +0.000 A 
ATOM     17  C   UNL     1      57.277  37.118  85.581  0.00  0.00    +0.000 A 
ATOM     18  C   UNL     1      56.870  34.832  86.194  0.00  0.00    +0.000 A 
ATOM     19  C   UNL     1      56.269  36.621  87.704  0.00  0.00    +0.000 A 
ATOM     20  C   UNL     1      56.334  35.260  87.405  0.00  0.00    +0.000 A 
BRANCH  16  24
ATOM     21  F   UNL     1      55.427  39.506  87.250  0.00  0.00    +0.000 F 
ATOM     22  F   UNL     1      57.383  39.398  88.178  0.00  0.00    +0.000 F 
ATOM     23  F   UNL     1      57.203  39.782  86.038  0.00  0.00    +0.000 F 
ATOM     24  C   UNL     1      56.695  39.040  87.060  0.00  0.00    +0.000 C 
ENDBRANCH  16  24
ENDBRANCH   9  15
ENDBRANCH   2  10
BRANCH   3  25
ATOM     25  O   UNL     1      57.657  36.444  76.346  0.00  0.00    +0.000 OA
BRANCH  25  27
ATOM     26  N   UNL     1      55.636  39.933  75.275  0.00  0.00    +0.000 NA
ATOM     27  C   UNL     1      57.041  37.604  75.932  0.00  0.00    +0.000 A 
ATOM     28  C   UNL     1      56.807  37.911  74.596  0.00  0.00    +0.000 A 
ATOM     29  C   UNL     1      56.117  39.081  74.326  0.00  0.00    +0.000 A 
ATOM     30  C   UNL     1      56.551  38.431  76.937  0.00  0.00    +0.000 A 
ATOM     31  C   UNL     1      55.867  39.576  76.559  0.00  0.00    +0.000 A 
BRANCH  29  34
ATOM     32  O   UNL     1      56.402  40.470  72.442  0.00  0.00    +0.000 OA
ATOM     33  N   UNL     1      55.016  38.596  72.263  0.00  0.00    +0.000 N 
ATOM     34  C   UNL     1      55.872  39.469  72.913  0.00  0.00    +0.000 C 
ATOM     35  C   UNL     1      54.507  38.583  70.919  0.00  0.00    +0.000 C 
ATOM     36  H   UNL     1      54.683  37.826  72.842  0.00  0.00    +0.000 HD
ENDBRANCH  29  34
ENDBRANCH  25  27
ENDBRANCH   3  25
TORSDOF 6
ENDMDL
MODEL 7
REMARK VINA RESULT:      -6.4     16.786     19.009
REMARK  Name = 11167602_Regorafenib.pdbqt.pdb
REMARK  6 active torsions:
REMARK  status: ('A' for Active; 'I' for Inactive)
REMARK    1  A    between atoms: C_2  and  N_10
REMARK    2  A    between atoms: C_3  and  O_25
REMARK    3  A    between atoms: N_9  and  C_15
REMARK    4  A    between atoms: C_16  and  C_24
REMARK    5  A    between atoms: O_25  and  C_27
REMARK    6  A    between atoms: C_29  and  C_34
REMARK                            x       y       z     vdW  Elec       q    Type
REMARK                         _______ _______ _______ _____ _____    ______ ____
ROOT
ATOM      1  F   UNL     1      54.619  18.452  83.504  0.00  0.00    +0.000 F 
ATOM      2  C   UNL     1      55.266  20.729  83.464  0.00  0.00    +0.000 A 
ATOM      3  C   UNL     1      57.256  20.131  85.334  0.00  0.00    +0.000 A 
ATOM      4  C   UNL     1      55.427  19.427  83.949  0.00  0.00    +0.000 A 
ATOM      5  C   UNL     1      56.104  21.733  83.946  0.00  0.00    +0.000 A 
ATOM      6  C   UNL     1      56.405  19.120  84.889  0.00  0.00    +0.000 A 
ATOM      7  C   UNL     1      57.090  21.441  84.889  0.00  0.00    +0.000 A 
ENDROOT
BRANCH   2  10
ATOM      8  O   UNL     1      55.429  20.465  80.576  0.00  0.00    +0.000 OA
ATOM      9  N   UNL     1      53.208  21.098  80.483  0.00  0.00    +0.000 N 
ATOM     10  N   UNL     1      54.260  20.966  82.504  0.00  0.00    +0.000 N 
ATOM     11  C   UNL     1      54.396  20.810  81.135  0.00  0.00    +0.000 C 
ATOM     12  H   UNL     1      52.408  21.345  81.047  0.00  0.00    +0.000 HD
ATOM     13  H   UNL     1      53.375  21.290  82.869  0.00  0.00    +0.000 HD
BRANCH   9  15
ATOM     14 CL   UNL     1      52.411  21.024  74.616  0.00  0.00    +0.000 Cl
ATOM     15  C   UNL     1      53.007  21.049  79.091  0.00  0.00    +0.000 A 
ATOM     16  C   UNL     1      53.163  22.223  76.958  0.00  0.00    +0.000 A 
ATOM     17  C   UNL     1      53.331  22.184  78.348  0.00  0.00    +0.000 A 
ATOM     18  C   UNL     1      52.506  19.930  78.433  0.00  0.00    +0.000 A 
ATOM     19  C   UNL     1      52.659  21.090  76.318  0.00  0.00    +0.000 A 
ATOM     20  C   UNL     1      52.331  19.950  77.053  0.00  0.00    +0.000 A 
BRANCH  16  24
ATOM     21  F   UNL     1      54.661  23.330  75.468  0.00  0.00    +0.000 F 
ATOM     22  F   UNL     1      52.567  23.880  75.353  0.00  0.00    +0.000 F 
ATOM     23  F   UNL     1      53.780  24.524  77.048  0.00  0.00    +0.000 F 
ATOM     24  C   UNL     1      53.532  23.472  76.221  0.00  0.00    +0.000 C 
ENDBRANCH  16  24
ENDBRANCH   9  15
ENDBRANCH   2  10
BRANCH   3  25
ATOM     25  O   UNL     1      58.194  19.916  86.317  0.00  0.00    +0.000 OA
BRANCH  25  27
ATOM     26  N   UNL     1      62.128  21.068  85.539  0.00  0.00    +0.000 NA
ATOM     27  C   UNL     1      59.506  20.223  86.032  0.00  0.00    +0.000 A 
ATOM     28  C   UNL     1      60.154  19.810  84.873  0.00  0.00    +0.000 A 
ATOM     29  C   UNL     1      61.454  20.249  84.683  0.00  0.00    +0.000 A 
ATOM     30  C   UNL     1      60.144  21.078  86.925  0.00  0.00    +0.000 A 
ATOM     31  C   UNL     1      61.444  21.462  86.638  0.00  0.00    +0.000 A 
BRANCH  29  34
ATOM     32  O   UNL     1      62.600  18.652  83.381  0.00  0.00    +0.000 OA
ATOM     33  N   UNL     1      62.361  20.824  82.550  0.00  0.00    +0.000 N 
ATOM     34  C   UNL     1      62.199  19.807  83.476  0.00  0.00    +0.000 C 
ATOM     35  C   UNL     1      63.008  20.851  81.267  0.00  0.00    +0.000 C 
ATOM     36  H   UNL     1      61.951  21.715  82.830  0.00  0.00    +0.000 HD
ENDBRANCH  29  34
ENDBRANCH  25  27
ENDBRANCH   3  25
TORSDOF 6
ENDMDL
MODEL 8
REMARK VINA RESULT:      -6.3      2.846      3.915
REMARK  Name = 11167602_Regorafenib.pdbqt.pdb
REMARK  6 active torsions:
REMARK  status: ('A' for Active; 'I' for Inactive)
REMARK    1  A    between atoms: C_2  and  N_10
REMARK    2  A    between atoms: C_3  and  O_25
REMARK    3  A    between atoms: N_9  and  C_15
REMARK    4  A    between atoms: C_16  and  C_24
REMARK    5  A    between atoms: O_25  and  C_27
REMARK    6  A    between atoms: C_29  and  C_34
REMARK                            x       y       z     vdW  Elec       q    Type
REMARK                         _______ _______ _______ _____ _____    ______ ____
ROOT
ATOM      1  F   UNL     1      57.535  38.182  71.868  0.00  0.00    +0.000 F 
ATOM      2  C   UNL     1      57.528  39.505  73.830  0.00  0.00    +0.000 A 
ATOM      3  C   UNL     1      57.343  37.158  75.337  0.00  0.00    +0.000 A 
ATOM      4  C   UNL     1      57.482  38.255  73.207  0.00  0.00    +0.000 A 
ATOM      5  C   UNL     1      57.458  39.564  75.221  0.00  0.00    +0.000 A 
ATOM      6  C   UNL     1      57.376  37.081  73.945  0.00  0.00    +0.000 A 
ATOM      7  C   UNL     1      57.352  38.396  75.975  0.00  0.00    +0.000 A 
ENDROOT
BRANCH   2  10
ATOM      8  O   UNL     1      55.418  41.241  72.844  0.00  0.00    +0.000 OA
ATOM      9  N   UNL     1      57.062  42.514  71.833  0.00  0.00    +0.000 N 
ATOM     10  N   UNL     1      57.645  40.654  73.019  0.00  0.00    +0.000 N 
ATOM     11  C   UNL     1      56.596  41.451  72.590  0.00  0.00    +0.000 C 
ATOM     12  H   UNL     1      58.059  42.607  71.711  0.00  0.00    +0.000 HD
ATOM     13  H   UNL     1      58.583  40.889  72.727  0.00  0.00    +0.000 HD
BRANCH   9  15
ATOM     14 CL   UNL     1      53.716  46.628  69.199  0.00  0.00    +0.000 Cl
ATOM     15  C   UNL     1      56.259  43.505  71.238  0.00  0.00    +0.000 A 
ATOM     16  C   UNL     1      55.381  44.457  69.170  0.00  0.00    +0.000 A 
ATOM     17  C   UNL     1      56.158  43.509  69.846  0.00  0.00    +0.000 A 
ATOM     18  C   UNL     1      55.570  44.468  71.968  0.00  0.00    +0.000 A 
ATOM     19  C   UNL     1      54.699  45.415  69.922  0.00  0.00    +0.000 A 
ATOM     20  C   UNL     1      54.794  45.420  71.314  0.00  0.00    +0.000 A 
BRANCH  16  24
ATOM     21  F   UNL     1      55.765  45.547  67.084  0.00  0.00    +0.000 F 
ATOM     22  F   UNL     1      56.069  43.403  67.147  0.00  0.00    +0.000 F 
ATOM     23  F   UNL     1      54.051  44.228  67.206  0.00  0.00    +0.000 F 
ATOM     24  C   UNL     1      55.315  44.404  67.676  0.00  0.00    +0.000 C 
ENDBRANCH  16  24
ENDBRANCH   9  15
ENDBRANCH   2  10
BRANCH   3  25
ATOM     25  O   UNL     1      57.163  36.046  76.126  0.00  0.00    +0.000 OA
BRANCH  25  27
ATOM     26  N   UNL     1      60.362  34.883  78.539  0.00  0.00    +0.000 NA
ATOM     27  C   UNL     1      58.182  35.695  76.984  0.00  0.00    +0.000 A 
ATOM     28  C   UNL     1      57.966  35.214  78.271  0.00  0.00    +0.000 A 
ATOM     29  C   UNL     1      59.080  34.835  79.001  0.00  0.00    +0.000 A 
ATOM     30  C   UNL     1      59.469  35.741  76.460  0.00  0.00    +0.000 A 
ATOM     31  C   UNL     1      60.515  35.334  77.273  0.00  0.00    +0.000 A 
BRANCH  29  34
ATOM     32  O   UNL     1      59.378  33.269  80.738  0.00  0.00    +0.000 OA
ATOM     33  N   UNL     1      58.174  35.225  81.176  0.00  0.00    +0.000 N 
ATOM     34  C   UNL     1      58.904  34.346  80.393  0.00  0.00    +0.000 C 
ATOM     35  C   UNL     1      57.765  35.161  82.552  0.00  0.00    +0.000 C 
ATOM     36  H   UNL     1      57.868  36.066  80.688  0.00  0.00    +0.000 HD
ENDBRANCH  29  34
ENDBRANCH  25  27
ENDBRANCH   3  25
TORSDOF 6
ENDMDL
MODEL 9
REMARK VINA RESULT:      -6.2      2.937      3.417
REMARK  Name = 11167602_Regorafenib.pdbqt.pdb
REMARK  6 active torsions:
REMARK  status: ('A' for Active; 'I' for Inactive)
REMARK    1  A    between atoms: C_2  and  N_10
REMARK    2  A    between atoms: C_3  and  O_25
REMARK    3  A    between atoms: N_9  and  C_15
REMARK    4  A    between atoms: C_16  and  C_24
REMARK    5  A    between atoms: O_25  and  C_27
REMARK    6  A    between atoms: C_29  and  C_34
REMARK                            x       y       z     vdW  Elec       q    Type
REMARK                         _______ _______ _______ _____ _____    ______ ____
ROOT
ATOM      1  F   UNL     1      57.248  35.459  74.143  0.00  0.00    +0.000 F 
ATOM      2  C   UNL     1      57.334  37.803  74.455  0.00  0.00    +0.000 A 
ATOM      3  C   UNL     1      57.165  37.380  77.213  0.00  0.00    +0.000 A 
ATOM      4  C   UNL     1      57.245  36.510  74.978  0.00  0.00    +0.000 A 
ATOM      5  C   UNL     1      57.315  38.885  75.334  0.00  0.00    +0.000 A 
ATOM      6  C   UNL     1      57.148  36.287  76.347  0.00  0.00    +0.000 A 
ATOM      7  C   UNL     1      57.218  38.678  76.710  0.00  0.00    +0.000 A 
ENDROOT
BRANCH   2  10
ATOM      8  O   UNL     1      55.362  38.853  72.598  0.00  0.00    +0.000 OA
ATOM      9  N   UNL     1      56.902  38.509  70.908  0.00  0.00    +0.000 N 
ATOM     10  N   UNL     1      57.440  37.954  73.056  0.00  0.00    +0.000 N 
ATOM     11  C   UNL     1      56.464  38.475  72.223  0.00  0.00    +0.000 C 
ATOM     12  H   UNL     1      57.844  38.199  70.717  0.00  0.00    +0.000 HD
ATOM     13  H   UNL     1      58.307  37.635  72.647  0.00  0.00    +0.000 HD
BRANCH   9  15
ATOM     14 CL   UNL     1      53.816  40.577  66.298  0.00  0.00    +0.000 Cl
ATOM     15  C   UNL     1      56.154  38.971  69.810  0.00  0.00    +0.000 A 
ATOM     16  C   UNL     1      55.632  40.837  68.328  0.00  0.00    +0.000 A 
ATOM     17  C   UNL     1      56.334  40.295  69.411  0.00  0.00    +0.000 A 
ATOM     18  C   UNL     1      55.254  38.171  69.112  0.00  0.00    +0.000 A 
ATOM     19  C   UNL     1      54.733  40.018  67.643  0.00  0.00    +0.000 A 
ATOM     20  C   UNL     1      54.546  38.692  68.034  0.00  0.00    +0.000 A 
BRANCH  16  24
ATOM     21  F   UNL     1      56.808  42.870  68.742  0.00  0.00    +0.000 F 
ATOM     22  F   UNL     1      56.330  42.410  66.679  0.00  0.00    +0.000 F 
ATOM     23  F   UNL     1      54.759  43.039  68.056  0.00  0.00    +0.000 F 
ATOM     24  C   UNL     1      55.874  42.265  67.953  0.00  0.00    +0.000 C 
ENDBRANCH  16  24
ENDBRANCH   9  15
ENDBRANCH   2  10
BRANCH   3  25
ATOM     25  O   UNL     1      56.997  37.239  78.570  0.00  0.00    +0.000 OA
BRANCH  25  27
ATOM     26  N   UNL     1      59.599  34.521  80.373  0.00  0.00    +0.000 NA
ATOM     27  C   UNL     1      57.836  36.373  79.236  0.00  0.00    +0.000 A 
ATOM     28  C   UNL     1      57.498  35.747  80.431  0.00  0.00    +0.000 A 
ATOM     29  C   UNL     1      58.411  34.847  80.956  0.00  0.00    +0.000 A 
ATOM     30  C   UNL     1      59.027  36.056  78.591  0.00  0.00    +0.000 A 
ATOM     31  C   UNL     1      59.868  35.137  79.199  0.00  0.00    +0.000 A 
BRANCH  29  34
ATOM     32  O   UNL     1      57.839  32.983  82.280  0.00  0.00    +0.000 OA
ATOM     33  N   UNL     1      58.174  35.049  83.323  0.00  0.00    +0.000 N 
ATOM     34  C   UNL     1      58.110  34.179  82.248  0.00  0.00    +0.000 C 
ATOM     35  C   UNL     1      57.957  34.844  84.729  0.00  0.00    +0.000 C 
ATOM     36  H   UNL     1      58.414  36.007  83.073  0.00  0.00    +0.000 HD
ENDBRANCH  29  34
ENDBRANCH  25  27
ENDBRANCH   3  25
TORSDOF 6
ENDMDL
