MODEL 1
REMARK VINA RESULT:      -5.4      0.000      0.000
REMARK  Name = 114778_Kahweol.pdbqt.pdb
REMARK  3 active torsions:
REMARK  status: ('A' for Active; 'I' for Inactive)
REMARK    1  A    between atoms: C_8  and  O_21
REMARK    2  A    between atoms: C_8  and  C_23
REMARK    3  A    between atoms: C_23  and  O_24
REMARK                            x       y       z     vdW  Elec       q    Type
REMARK                         _______ _______ _______ _____ _____    ______ ____
ROOT
ATOM      1  O   UNL     1      48.350  22.363  88.050  0.00  0.00    +0.000 OA
ATOM      2  C   UNL     1      45.168  27.031  85.349  0.00  0.00    +0.000 C 
ATOM      3  C   UNL     1      45.453  25.566  84.800  0.00  0.00    +0.000 C 
ATOM      4  C   UNL     1      43.325  27.421  83.872  0.00  0.00    +0.000 C 
ATOM      5  C   UNL     1      44.702  27.836  84.187  0.00  0.00    +0.000 C 
ATOM      6  C   UNL     1      43.875  27.018  86.068  0.00  0.00    +0.000 C 
ATOM      7  C   UNL     1      46.818  24.888  84.964  0.00  0.00    +0.000 C 
ATOM      8  C   UNL     1      42.659  27.375  85.310  0.00  0.00    +0.000 C 
ATOM      9  C   UNL     1      46.305  27.482  86.109  0.00  0.00    +0.000 C 
ATOM     10  C   UNL     1      44.503  25.184  83.767  0.00  0.00    +0.000 C 
ATOM     11  C   UNL     1      43.425  26.125  83.217  0.00  0.00    +0.000 C 
ATOM     12  C   UNL     1      47.727  25.421  86.201  0.00  0.00    +0.000 C 
ATOM     13  C   UNL     1      47.539  26.773  86.568  0.00  0.00    +0.000 C 
ATOM     14  C   UNL     1      47.661  25.117  83.668  0.00  0.00    +0.000 C 
ATOM     15  C   UNL     1      46.613  23.436  85.225  0.00  0.00    +0.000 C 
ATOM     16  C   UNL     1      48.203  24.443  87.153  0.00  0.00    +0.000 A 
ATOM     17  C   UNL     1      47.001  22.646  86.039  0.00  0.00    +0.000 C 
ATOM     18  C   UNL     1      47.846  23.114  87.061  0.00  0.00    +0.000 A 
ATOM     19  C   UNL     1      49.002  24.525  88.311  0.00  0.00    +0.000 A 
ATOM     20  C   UNL     1      49.077  23.235  88.821  0.00  0.00    +0.000 A 
ENDROOT
BRANCH   8  21
ATOM     21  O   UNL     1      42.231  28.670  85.693  0.00  0.00    +0.000 OA
ATOM     22  H   UNL     1      42.426  28.744  86.642  0.00  0.00    +0.000 HD
ENDBRANCH   8  21
BRANCH   8  23
ATOM     23  C   UNL     1      41.541  26.430  85.426  0.00  0.00    +0.000 C 
BRANCH  23  24
ATOM     24  O   UNL     1      40.537  25.558  85.528  0.00  0.00    +0.000 OA
ATOM     25  H   UNL     1      40.723  24.893  86.214  0.00  0.00    +0.000 HD
ENDBRANCH  23  24
ENDBRANCH   8  23
TORSDOF 3
ENDMDL
MODEL 2
REMARK VINA RESULT:      -5.4      3.006      3.981
REMARK  Name = 114778_Kahweol.pdbqt.pdb
REMARK  3 active torsions:
REMARK  status: ('A' for Active; 'I' for Inactive)
REMARK    1  A    between atoms: C_8  and  O_21
REMARK    2  A    between atoms: C_8  and  C_23
REMARK    3  A    between atoms: C_23  and  O_24
REMARK                            x       y       z     vdW  Elec       q    Type
REMARK                         _______ _______ _______ _____ _____    ______ ____
ROOT
ATOM      1  O   UNL     1      44.420  20.030  84.753  0.00  0.00    +0.000 OA
ATOM      2  C   UNL     1      44.858  26.264  84.345  0.00  0.00    +0.000 C 
ATOM      3  C   UNL     1      43.558  25.347  84.305  0.00  0.00    +0.000 C 
ATOM      4  C   UNL     1      43.655  28.257  84.900  0.00  0.00    +0.000 C 
ATOM      5  C   UNL     1      44.448  27.604  83.845  0.00  0.00    +0.000 C 
ATOM      6  C   UNL     1      45.095  26.677  85.745  0.00  0.00    +0.000 C 
ATOM      7  C   UNL     1      43.521  24.024  83.533  0.00  0.00    +0.000 C 
ATOM      8  C   UNL     1      44.524  27.963  86.193  0.00  0.00    +0.000 C 
ATOM      9  C   UNL     1      45.945  25.573  83.701  0.00  0.00    +0.000 C 
ATOM     10  C   UNL     1      42.359  26.099  84.637  0.00  0.00    +0.000 C 
ATOM     11  C   UNL     1      42.351  27.611  84.896  0.00  0.00    +0.000 C 
ATOM     12  C   UNL     1      44.959  23.306  83.291  0.00  0.00    +0.000 C 
ATOM     13  C   UNL     1      46.073  24.171  83.197  0.00  0.00    +0.000 C 
ATOM     14  C   UNL     1      42.913  24.276  82.115  0.00  0.00    +0.000 C 
ATOM     15  C   UNL     1      42.713  23.035  84.298  0.00  0.00    +0.000 C 
ATOM     16  C   UNL     1      45.106  21.937  83.730  0.00  0.00    +0.000 A 
ATOM     17  C   UNL     1      42.865  21.906  84.674  0.00  0.00    +0.000 C 
ATOM     18  C   UNL     1      44.091  21.278  84.391  0.00  0.00    +0.000 A 
ATOM     19  C   UNL     1      46.167  21.010  83.679  0.00  0.00    +0.000 A 
ATOM     20  C   UNL     1      45.705  19.859  84.302  0.00  0.00    +0.000 A 
ENDROOT
BRANCH   8  21
ATOM     21  O   UNL     1      45.561  28.920  86.313  0.00  0.00    +0.000 OA
ATOM     22  H   UNL     1      45.120  29.783  86.388  0.00  0.00    +0.000 HD
ENDBRANCH   8  21
BRANCH   8  23
ATOM     23  C   UNL     1      43.750  27.912  87.440  0.00  0.00    +0.000 C 
BRANCH  23  24
ATOM     24  O   UNL     1      43.055  27.882  88.578  0.00  0.00    +0.000 OA
ATOM     25  H   UNL     1      43.514  27.348  89.251  0.00  0.00    +0.000 HD
ENDBRANCH  23  24
ENDBRANCH   8  23
TORSDOF 3
ENDMDL
MODEL 3
REMARK VINA RESULT:      -5.4      1.671      2.261
REMARK  Name = 114778_Kahweol.pdbqt.pdb
REMARK  3 active torsions:
REMARK  status: ('A' for Active; 'I' for Inactive)
REMARK    1  A    between atoms: C_8  and  O_21
REMARK    2  A    between atoms: C_8  and  C_23
REMARK    3  A    between atoms: C_23  and  O_24
REMARK                            x       y       z     vdW  Elec       q    Type
REMARK                         _______ _______ _______ _____ _____    ______ ____
ROOT
ATOM      1  O   UNL     1      46.534  20.401  84.855  0.00  0.00    +0.000 OA
ATOM      2  C   UNL     1      45.552  26.546  85.559  0.00  0.00    +0.000 C 
ATOM      3  C   UNL     1      45.172  25.606  84.333  0.00  0.00    +0.000 C 
ATOM      4  C   UNL     1      44.005  28.268  84.950  0.00  0.00    +0.000 C 
ATOM      5  C   UNL     1      45.437  27.947  85.071  0.00  0.00    +0.000 C 
ATOM      6  C   UNL     1      44.397  26.599  86.482  0.00  0.00    +0.000 C 
ATOM      7  C   UNL     1      46.126  24.524  83.813  0.00  0.00    +0.000 C 
ATOM      8  C   UNL     1      43.425  27.697  86.310  0.00  0.00    +0.000 C 
ATOM      9  C   UNL     1      46.795  26.099  86.133  0.00  0.00    +0.000 C 
ATOM     10  C   UNL     1      44.120  26.187  83.515  0.00  0.00    +0.000 C 
ATOM     11  C   UNL     1      43.527  27.580  83.760  0.00  0.00    +0.000 C 
ATOM     12  C   UNL     1      47.212  23.965  84.886  0.00  0.00    +0.000 C 
ATOM     13  C   UNL     1      47.625  24.881  85.880  0.00  0.00    +0.000 C 
ATOM     14  C   UNL     1      46.948  25.099  82.615  0.00  0.00    +0.000 C 
ATOM     15  C   UNL     1      45.333  23.332  83.401  0.00  0.00    +0.000 C 
ATOM     16  C   UNL     1      47.256  22.538  85.113  0.00  0.00    +0.000 A 
ATOM     17  C   UNL     1      45.373  22.155  83.622  0.00  0.00    +0.000 C 
ATOM     18  C   UNL     1      46.368  21.682  84.497  0.00  0.00    +0.000 A 
ATOM     19  C   UNL     1      48.048  21.710  85.933  0.00  0.00    +0.000 A 
ATOM     20  C   UNL     1      47.585  20.416  85.739  0.00  0.00    +0.000 A 
ENDROOT
BRANCH   8  21
ATOM     21  O   UNL     1      43.598  28.643  87.351  0.00  0.00    +0.000 OA
ATOM     22  H   UNL     1      42.708  28.821  87.699  0.00  0.00    +0.000 HD
ENDBRANCH   8  21
BRANCH   8  23
ATOM     23  C   UNL     1      42.016  27.290  86.241  0.00  0.00    +0.000 C 
BRANCH  23  24
ATOM     24  O   UNL     1      40.734  26.926  86.196  0.00  0.00    +0.000 OA
ATOM     25  H   UNL     1      40.165  27.603  86.604  0.00  0.00    +0.000 HD
ENDBRANCH  23  24
ENDBRANCH   8  23
TORSDOF 3
ENDMDL
MODEL 4
REMARK VINA RESULT:      -5.4      1.768      1.997
REMARK  Name = 114778_Kahweol.pdbqt.pdb
REMARK  3 active torsions:
REMARK  status: ('A' for Active; 'I' for Inactive)
REMARK    1  A    between atoms: C_8  and  O_21
REMARK    2  A    between atoms: C_8  and  C_23
REMARK    3  A    between atoms: C_23  and  O_24
REMARK                            x       y       z     vdW  Elec       q    Type
REMARK                         _______ _______ _______ _____ _____    ______ ____
ROOT
ATOM      1  O   UNL     1      49.633  21.866  85.208  0.00  0.00    +0.000 OA
ATOM      2  C   UNL     1      44.797  25.841  85.049  0.00  0.00    +0.000 C 
ATOM      3  C   UNL     1      45.256  24.780  83.956  0.00  0.00    +0.000 C 
ATOM      4  C   UNL     1      42.574  26.038  84.184  0.00  0.00    +0.000 C 
ATOM      5  C   UNL     1      43.843  26.761  84.372  0.00  0.00    +0.000 C 
ATOM      6  C   UNL     1      43.803  25.198  85.936  0.00  0.00    +0.000 C 
ATOM      7  C   UNL     1      46.732  24.561  83.606  0.00  0.00    +0.000 C 
ATOM      8  C   UNL     1      42.373  25.354  85.599  0.00  0.00    +0.000 C 
ATOM      9  C   UNL     1      45.960  26.386  85.700  0.00  0.00    +0.000 C 
ATOM     10  C   UNL     1      44.173  24.439  83.049  0.00  0.00    +0.000 C 
ATOM     11  C   UNL     1      42.790  25.102  83.091  0.00  0.00    +0.000 C 
ATOM     12  C   UNL     1      47.800  24.965  84.764  0.00  0.00    +0.000 C 
ATOM     13  C   UNL     1      47.406  26.009  85.630  0.00  0.00    +0.000 C 
ATOM     14  C   UNL     1      47.094  25.426  82.355  0.00  0.00    +0.000 C 
ATOM     15  C   UNL     1      46.963  23.113  83.347  0.00  0.00    +0.000 C 
ATOM     16  C   UNL     1      48.745  23.955  85.184  0.00  0.00    +0.000 A 
ATOM     17  C   UNL     1      47.742  22.285  83.727  0.00  0.00    +0.000 C 
ATOM     18  C   UNL     1      48.705  22.674  84.676  0.00  0.00    +0.000 A 
ATOM     19  C   UNL     1      49.796  23.940  86.123  0.00  0.00    +0.000 A 
ATOM     20  C   UNL     1      50.318  22.654  86.100  0.00  0.00    +0.000 A 
ENDROOT
BRANCH   8  21
ATOM     21  O   UNL     1      41.775  26.265  86.504  0.00  0.00    +0.000 OA
ATOM     22  H   UNL     1      40.832  26.288  86.273  0.00  0.00    +0.000 HD
ENDBRANCH   8  21
BRANCH   8  23
ATOM     23  C   UNL     1      41.593  24.110  85.562  0.00  0.00    +0.000 C 
BRANCH  23  24
ATOM     24  O   UNL     1      40.884  22.982  85.510  0.00  0.00    +0.000 OA
ATOM     25  H   UNL     1      39.929  23.170  85.560  0.00  0.00    +0.000 HD
ENDBRANCH  23  24
ENDBRANCH   8  23
TORSDOF 3
ENDMDL
MODEL 5
REMARK VINA RESULT:      -5.2     41.617     45.117
REMARK  Name = 114778_Kahweol.pdbqt.pdb
REMARK  3 active torsions:
REMARK  status: ('A' for Active; 'I' for Inactive)
REMARK    1  A    between atoms: C_8  and  O_21
REMARK    2  A    between atoms: C_8  and  C_23
REMARK    3  A    between atoms: C_23  and  O_24
REMARK                            x       y       z     vdW  Elec       q    Type
REMARK                         _______ _______ _______ _____ _____    ______ ____
ROOT
ATOM      1  O   UNL     1       0.972  10.594  99.748  0.00  0.00    +0.000 OA
ATOM      2  C   UNL     1       5.353  13.602  96.437  0.00  0.00    +0.000 C 
ATOM      3  C   UNL     1       3.873  14.065  96.791  0.00  0.00    +0.000 C 
ATOM      4  C   UNL     1       6.116  15.814  95.930  0.00  0.00    +0.000 C 
ATOM      5  C   UNL     1       5.827  14.494  95.344  0.00  0.00    +0.000 C 
ATOM      6  C   UNL     1       6.266  14.121  97.479  0.00  0.00    +0.000 C 
ATOM      7  C   UNL     1       2.686  13.097  96.741  0.00  0.00    +0.000 C 
ATOM      8  C   UNL     1       6.922  15.422  97.238  0.00  0.00    +0.000 C 
ATOM      9  C   UNL     1       5.370  12.176  96.240  0.00  0.00    +0.000 C 
ATOM     10  C   UNL     1       3.719  15.506  96.680  0.00  0.00    +0.000 C 
ATOM     11  C   UNL     1       4.829  16.443  96.187  0.00  0.00    +0.000 C 
ATOM     12  C   UNL     1       3.049  11.523  96.923  0.00  0.00    +0.000 C 
ATOM     13  C   UNL     1       4.328  11.128  96.469  0.00  0.00    +0.000 C 
ATOM     14  C   UNL     1       1.978  13.226  95.353  0.00  0.00    +0.000 C 
ATOM     15  C   UNL     1       1.750  13.415  97.855  0.00  0.00    +0.000 C 
ATOM     16  C   UNL     1       2.364  10.794  97.966  0.00  0.00    +0.000 A 
ATOM     17  C   UNL     1       1.210  12.795  98.728  0.00  0.00    +0.000 C 
ATOM     18  C   UNL     1       1.482  11.418  98.823  0.00  0.00    +0.000 A 
ATOM     19  C   UNL     1       2.406   9.454  98.402  0.00  0.00    +0.000 A 
ATOM     20  C   UNL     1       1.536   9.371  99.481  0.00  0.00    +0.000 A 
ENDROOT
BRANCH   8  21
ATOM     21  O   UNL     1       8.287  15.208  96.926  0.00  0.00    +0.000 OA
ATOM     22  H   UNL     1       8.777  15.918  97.374  0.00  0.00    +0.000 HD
ENDBRANCH   8  21
BRANCH   8  23
ATOM     23  C   UNL     1       6.811  16.398  98.330  0.00  0.00    +0.000 C 
BRANCH  23  24
ATOM     24  O   UNL     1       6.698  17.294  99.311  0.00  0.00    +0.000 OA
ATOM     25  H   UNL     1       7.024  16.929 100.153  0.00  0.00    +0.000 HD
ENDBRANCH  23  24
ENDBRANCH   8  23
TORSDOF 3
ENDMDL
MODEL 6
REMARK VINA RESULT:      -5.0     26.918     29.755
REMARK  Name = 114778_Kahweol.pdbqt.pdb
REMARK  3 active torsions:
REMARK  status: ('A' for Active; 'I' for Inactive)
REMARK    1  A    between atoms: C_8  and  O_21
REMARK    2  A    between atoms: C_8  and  C_23
REMARK    3  A    between atoms: C_23  and  O_24
REMARK                            x       y       z     vdW  Elec       q    Type
REMARK                         _______ _______ _______ _____ _____    ______ ____
ROOT
ATOM      1  O   UNL     1      21.772   3.958  82.121  0.00  0.00    +0.000 OA
ATOM      2  C   UNL     1      22.309   8.349  86.554  0.00  0.00    +0.000 C 
ATOM      3  C   UNL     1      23.302   7.157  86.200  0.00  0.00    +0.000 C 
ATOM      4  C   UNL     1      23.963   9.617  87.730  0.00  0.00    +0.000 C 
ATOM      5  C   UNL     1      22.714   8.855  87.893  0.00  0.00    +0.000 C 
ATOM      6  C   UNL     1      22.728   9.546  85.792  0.00  0.00    +0.000 C 
ATOM      7  C   UNL     1      22.795   5.751  85.861  0.00  0.00    +0.000 C 
ATOM      8  C   UNL     1      23.646  10.497  86.450  0.00  0.00    +0.000 C 
ATOM      9  C   UNL     1      20.952   7.914  86.344  0.00  0.00    +0.000 C 
ATOM     10  C   UNL     1      24.645   7.411  86.694  0.00  0.00    +0.000 C 
ATOM     11  C   UNL     1      25.022   8.637  87.536  0.00  0.00    +0.000 C 
ATOM     12  C   UNL     1      21.278   5.667  85.282  0.00  0.00    +0.000 C 
ATOM     13  C   UNL     1      20.390   6.671  85.730  0.00  0.00    +0.000 C 
ATOM     14  C   UNL     1      22.820   4.872  87.153  0.00  0.00    +0.000 C 
ATOM     15  C   UNL     1      23.654   5.166  84.794  0.00  0.00    +0.000 C 
ATOM     16  C   UNL     1      21.081   5.001  84.015  0.00  0.00    +0.000 A 
ATOM     17  C   UNL     1      23.469   4.637  83.735  0.00  0.00    +0.000 C 
ATOM     18  C   UNL     1      22.142   4.510  83.285  0.00  0.00    +0.000 A 
ATOM     19  C   UNL     1      19.943   4.729  83.228  0.00  0.00    +0.000 A 
ATOM     20  C   UNL     1      20.406   4.084  82.089  0.00  0.00    +0.000 A 
ENDROOT
BRANCH   8  21
ATOM     21  O   UNL     1      22.929  11.661  86.822  0.00  0.00    +0.000 OA
ATOM     22  H   UNL     1      22.261  11.368  87.465  0.00  0.00    +0.000 HD
ENDBRANCH   8  21
BRANCH   8  23
ATOM     23  C   UNL     1      24.831  10.875  85.670  0.00  0.00    +0.000 C 
BRANCH  23  24
ATOM     24  O   UNL     1      25.906  11.202  84.952  0.00  0.00    +0.000 OA
ATOM     25  H   UNL     1      26.178  12.119  85.132  0.00  0.00    +0.000 HD
ENDBRANCH  23  24
ENDBRANCH   8  23
TORSDOF 3
ENDMDL
MODEL 7
REMARK VINA RESULT:      -4.8      3.031      4.270
REMARK  Name = 114778_Kahweol.pdbqt.pdb
REMARK  3 active torsions:
REMARK  status: ('A' for Active; 'I' for Inactive)
REMARK    1  A    between atoms: C_8  and  O_21
REMARK    2  A    between atoms: C_8  and  C_23
REMARK    3  A    between atoms: C_23  and  O_24
REMARK                            x       y       z     vdW  Elec       q    Type
REMARK                         _______ _______ _______ _____ _____    ______ ____
ROOT
ATOM      1  O   UNL     1      45.508  25.187  91.342  0.00  0.00    +0.000 OA
ATOM      2  C   UNL     1      43.074  27.049  85.881  0.00  0.00    +0.000 C 
ATOM      3  C   UNL     1      44.591  27.072  86.360  0.00  0.00    +0.000 C 
ATOM      4  C   UNL     1      43.618  27.209  83.555  0.00  0.00    +0.000 C 
ATOM      5  C   UNL     1      42.995  27.925  84.680  0.00  0.00    +0.000 C 
ATOM      6  C   UNL     1      42.828  25.775  85.170  0.00  0.00    +0.000 C 
ATOM      7  C   UNL     1      44.988  27.488  87.781  0.00  0.00    +0.000 C 
ATOM      8  C   UNL     1      42.992  25.760  83.702  0.00  0.00    +0.000 C 
ATOM      9  C   UNL     1      42.216  27.316  87.006  0.00  0.00    +0.000 C 
ATOM     10  C   UNL     1      45.509  27.137  85.235  0.00  0.00    +0.000 C 
ATOM     11  C   UNL     1      45.056  27.265  83.775  0.00  0.00    +0.000 C 
ATOM     12  C   UNL     1      43.839  27.307  88.917  0.00  0.00    +0.000 C 
ATOM     13  C   UNL     1      42.504  27.430  88.470  0.00  0.00    +0.000 C 
ATOM     14  C   UNL     1      45.371  29.003  87.781  0.00  0.00    +0.000 C 
ATOM     15  C   UNL     1      46.126  26.643  88.236  0.00  0.00    +0.000 C 
ATOM     16  C   UNL     1      44.171  26.525  90.086  0.00  0.00    +0.000 A 
ATOM     17  C   UNL     1      46.372  25.981  89.204  0.00  0.00    +0.000 C 
ATOM     18  C   UNL     1      45.392  25.896  90.210  0.00  0.00    +0.000 A 
ATOM     19  C   UNL     1      43.461  26.171  91.250  0.00  0.00    +0.000 A 
ATOM     20  C   UNL     1      44.313  25.365  91.994  0.00  0.00    +0.000 A 
ENDROOT
BRANCH   8  21
ATOM     21  O   UNL     1      41.716  25.713  83.088  0.00  0.00    +0.000 OA
ATOM     22  H   UNL     1      41.303  26.574  83.267  0.00  0.00    +0.000 HD
ENDBRANCH   8  21
BRANCH   8  23
ATOM     23  C   UNL     1      43.837  24.682  83.172  0.00  0.00    +0.000 C 
BRANCH  23  24
ATOM     24  O   UNL     1      44.608  23.714  82.676  0.00  0.00    +0.000 OA
ATOM     25  H   UNL     1      45.405  24.085  82.256  0.00  0.00    +0.000 HD
ENDBRANCH  23  24
ENDBRANCH   8  23
TORSDOF 3
ENDMDL
MODEL 8
REMARK VINA RESULT:      -4.6      6.529      9.633
REMARK  Name = 114778_Kahweol.pdbqt.pdb
REMARK  3 active torsions:
REMARK  status: ('A' for Active; 'I' for Inactive)
REMARK    1  A    between atoms: C_8  and  O_21
REMARK    2  A    between atoms: C_8  and  C_23
REMARK    3  A    between atoms: C_23  and  O_24
REMARK                            x       y       z     vdW  Elec       q    Type
REMARK                         _______ _______ _______ _____ _____    ______ ____
ROOT
ATOM      1  O   UNL     1      40.789  20.139  75.917  0.00  0.00    +0.000 OA
ATOM      2  C   UNL     1      40.645  23.897  80.924  0.00  0.00    +0.000 C 
ATOM      3  C   UNL     1      40.527  22.312  80.859  0.00  0.00    +0.000 C 
ATOM      4  C   UNL     1      41.240  23.938  83.243  0.00  0.00    +0.000 C 
ATOM      5  C   UNL     1      40.186  24.301  82.281  0.00  0.00    +0.000 C 
ATOM      6  C   UNL     1      42.067  24.252  81.121  0.00  0.00    +0.000 C 
ATOM      7  C   UNL     1      39.701  21.603  79.780  0.00  0.00    +0.000 C 
ATOM      8  C   UNL     1      42.547  24.445  82.504  0.00  0.00    +0.000 C 
ATOM      9  C   UNL     1      40.009  24.469  79.766  0.00  0.00    +0.000 C 
ATOM     10  C   UNL     1      40.849  21.695  82.136  0.00  0.00    +0.000 C 
ATOM     11  C   UNL     1      41.168  22.493  83.407  0.00  0.00    +0.000 C 
ATOM     12  C   UNL     1      39.477  22.434  78.401  0.00  0.00    +0.000 C 
ATOM     13  C   UNL     1      39.453  23.842  78.527  0.00  0.00    +0.000 C 
ATOM     14  C   UNL     1      38.276  21.297  80.345  0.00  0.00    +0.000 C 
ATOM     15  C   UNL     1      40.400  20.352  79.374  0.00  0.00    +0.000 C 
ATOM     16  C   UNL     1      39.866  21.796  77.164  0.00  0.00    +0.000 A 
ATOM     17  C   UNL     1      40.735  19.852  78.338  0.00  0.00    +0.000 C 
ATOM     18  C   UNL     1      40.466  20.555  77.150  0.00  0.00    +0.000 A 
ATOM     19  C   UNL     1      39.812  22.189  75.812  0.00  0.00    +0.000 A 
ATOM     20  C   UNL     1      40.374  21.148  75.084  0.00  0.00    +0.000 A 
ENDROOT
BRANCH   8  21
ATOM     21  O   UNL     1      42.739  25.829  82.744  0.00  0.00    +0.000 OA
ATOM     22  H   UNL     1      43.343  25.885  83.504  0.00  0.00    +0.000 HD
ENDBRANCH   8  21
BRANCH   8  23
ATOM     23  C   UNL     1      43.766  23.708  82.860  0.00  0.00    +0.000 C 
BRANCH  23  24
ATOM     24  O   UNL     1      44.871  23.044  83.201  0.00  0.00    +0.000 OA
ATOM     25  H   UNL     1      44.704  22.455  83.957  0.00  0.00    +0.000 HD
ENDBRANCH  23  24
ENDBRANCH   8  23
TORSDOF 3
ENDMDL
MODEL 9
REMARK VINA RESULT:      -4.6     26.780     29.840
REMARK  Name = 114778_Kahweol.pdbqt.pdb
REMARK  3 active torsions:
REMARK  status: ('A' for Active; 'I' for Inactive)
REMARK    1  A    between atoms: C_8  and  O_21
REMARK    2  A    between atoms: C_8  and  C_23
REMARK    3  A    between atoms: C_23  and  O_24
REMARK                            x       y       z     vdW  Elec       q    Type
REMARK                         _______ _______ _______ _____ _____    ______ ____
ROOT
ATOM      1  O   UNL     1      23.382  12.189  82.967  0.00  0.00    +0.000 OA
ATOM      2  C   UNL     1      21.803   6.994  86.088  0.00  0.00    +0.000 C 
ATOM      3  C   UNL     1      21.630   7.324  84.542  0.00  0.00    +0.000 C 
ATOM      4  C   UNL     1      21.607   4.627  85.790  0.00  0.00    +0.000 C 
ATOM      5  C   UNL     1      20.947   5.809  86.368  0.00  0.00    +0.000 C 
ATOM      6  C   UNL     1      23.100   6.307  86.276  0.00  0.00    +0.000 C 
ATOM      7  C   UNL     1      21.167   8.701  84.052  0.00  0.00    +0.000 C 
ATOM      8  C   UNL     1      23.110   4.830  86.253  0.00  0.00    +0.000 C 
ATOM      9  C   UNL     1      21.614   8.198  86.855  0.00  0.00    +0.000 C 
ATOM     10  C   UNL     1      21.483   6.115  83.747  0.00  0.00    +0.000 C 
ATOM     11  C   UNL     1      21.409   4.707  84.350  0.00  0.00    +0.000 C 
ATOM     12  C   UNL     1      21.452   9.942  85.062  0.00  0.00    +0.000 C 
ATOM     13  C   UNL     1      21.462   9.627  86.439  0.00  0.00    +0.000 C 
ATOM     14  C   UNL     1      19.621   8.668  83.821  0.00  0.00    +0.000 C 
ATOM     15  C   UNL     1      21.893   9.041  82.797  0.00  0.00    +0.000 C 
ATOM     16  C   UNL     1      22.189  11.071  84.543  0.00  0.00    +0.000 A 
ATOM     17  C   UNL     1      22.522   9.980  82.396  0.00  0.00    +0.000 C 
ATOM     18  C   UNL     1      22.695  11.075  83.260  0.00  0.00    +0.000 A 
ATOM     19  C   UNL     1      22.603  12.299  85.100  0.00  0.00    +0.000 A 
ATOM     20  C   UNL     1      23.316  12.954  84.105  0.00  0.00    +0.000 A 
ENDROOT
BRANCH   8  21
ATOM     21  O   UNL     1      23.285   4.343  87.572  0.00  0.00    +0.000 OA
ATOM     22  H   UNL     1      22.807   4.961  88.150  0.00  0.00    +0.000 HD
ENDBRANCH   8  21
BRANCH   8  23
ATOM     23  C   UNL     1      24.103   4.218  85.363  0.00  0.00    +0.000 C 
BRANCH  23  24
ATOM     24  O   UNL     1      24.994   3.648  84.551  0.00  0.00    +0.000 OA
ATOM     25  H   UNL     1      24.889   2.680  84.543  0.00  0.00    +0.000 HD
ENDBRANCH  23  24
ENDBRANCH   8  23
TORSDOF 3
ENDMDL
