MODEL 1
REMARK VINA RESULT:      -4.5      0.000      0.000
REMARK  Name = 1174_Uracil.pdbqt.pdb
REMARK  0 active torsions:
REMARK  status: ('A' for Active; 'I' for Inactive)
REMARK                            x       y       z     vdW  Elec       q    Type
REMARK                         _______ _______ _______ _____ _____    ______ ____
ROOT
ATOM      1  O   UNL     1      56.571  36.736  82.611  0.00  0.00    +0.000 OA
ATOM      2  O   UNL     1      59.788  34.202  80.442  0.00  0.00    +0.000 OA
ATOM      3  N   UNL     1      58.223  35.496  81.574  0.00  0.00    +0.000 N 
ATOM      4  N   UNL     1      56.009  35.399  80.813  0.00  0.00    +0.000 N 
ATOM      5  C   UNL     1      56.904  35.944  81.739  0.00  0.00    +0.000 A 
ATOM      6  C   UNL     1      58.642  34.597  80.595  0.00  0.00    +0.000 A 
ATOM      7  C   UNL     1      56.429  34.533  79.875  0.00  0.00    +0.000 A 
ATOM      8  C   UNL     1      57.557  34.166  79.753  0.00  0.00    +0.000 A 
ATOM      9  H   UNL     1      58.918  35.852  82.210  0.00  0.00    +0.000 HD
ATOM     10  H   UNL     1      55.036  35.672  80.866  0.00  0.00    +0.000 HD
ENDROOT
TORSDOF 0
ENDMDL
MODEL 2
REMARK VINA RESULT:      -4.3      3.146      3.657
REMARK  Name = 1174_Uracil.pdbqt.pdb
REMARK  0 active torsions:
REMARK  status: ('A' for Active; 'I' for Inactive)
REMARK                            x       y       z     vdW  Elec       q    Type
REMARK                         _______ _______ _______ _____ _____    ______ ____
ROOT
ATOM      1  O   UNL     1      54.800  34.315  77.011  0.00  0.00    +0.000 OA
ATOM      2  O   UNL     1      58.589  36.758  78.083  0.00  0.00    +0.000 OA
ATOM      3  N   UNL     1      56.703  35.540  77.478  0.00  0.00    +0.000 N 
ATOM      4  N   UNL     1      55.351  34.737  79.215  0.00  0.00    +0.000 N 
ATOM      5  C   UNL     1      55.553  34.820  77.834  0.00  0.00    +0.000 A 
ATOM      6  C   UNL     1      57.584  36.130  78.382  0.00  0.00    +0.000 A 
ATOM      7  C   UNL     1      56.210  35.311  80.074  0.00  0.00    +0.000 A 
ATOM      8  C   UNL     1      57.183  35.919  79.749  0.00  0.00    +0.000 A 
ATOM      9  H   UNL     1      56.906  35.637  76.496  0.00  0.00    +0.000 HD
ATOM     10  H   UNL     1      54.541  34.233  79.553  0.00  0.00    +0.000 HD
ENDROOT
TORSDOF 0
ENDMDL
MODEL 3
REMARK VINA RESULT:      -4.3      1.294      2.958
REMARK  Name = 1174_Uracil.pdbqt.pdb
REMARK  0 active torsions:
REMARK  status: ('A' for Active; 'I' for Inactive)
REMARK                            x       y       z     vdW  Elec       q    Type
REMARK                         _______ _______ _______ _____ _____    ______ ____
ROOT
ATOM      1  O   UNL     1      59.388  33.308  80.629  0.00  0.00    +0.000 OA
ATOM      2  O   UNL     1      56.146  36.345  81.949  0.00  0.00    +0.000 OA
ATOM      3  N   UNL     1      57.799  34.823  81.352  0.00  0.00    +0.000 N 
ATOM      4  N   UNL     1      57.801  34.070  79.133  0.00  0.00    +0.000 N 
ATOM      5  C   UNL     1      58.412  34.007  80.389  0.00  0.00    +0.000 A 
ATOM      6  C   UNL     1      56.688  35.632  81.119  0.00  0.00    +0.000 A 
ATOM      7  C   UNL     1      56.731  34.855  78.924  0.00  0.00    +0.000 A 
ATOM      8  C   UNL     1      56.226  35.541  79.758  0.00  0.00    +0.000 A 
ATOM      9  H   UNL     1      58.191  34.823  82.279  0.00  0.00    +0.000 HD
ATOM     10  H   UNL     1      58.185  33.509  78.383  0.00  0.00    +0.000 HD
ENDROOT
TORSDOF 0
ENDMDL
MODEL 4
REMARK VINA RESULT:      -3.9      2.375      3.454
REMARK  Name = 1174_Uracil.pdbqt.pdb
REMARK  0 active torsions:
REMARK  status: ('A' for Active; 'I' for Inactive)
REMARK                            x       y       z     vdW  Elec       q    Type
REMARK                         _______ _______ _______ _____ _____    ______ ____
ROOT
ATOM      1  O   UNL     1      58.823  33.221  80.330  0.00  0.00    +0.000 OA
ATOM      2  O   UNL     1      55.008  34.811  78.236  0.00  0.00    +0.000 OA
ATOM      3  N   UNL     1      56.900  33.948  79.275  0.00  0.00    +0.000 N 
ATOM      4  N   UNL     1      58.446  35.491  80.122  0.00  0.00    +0.000 N 
ATOM      5  C   UNL     1      58.118  34.144  79.943  0.00  0.00    +0.000 A 
ATOM      6  C   UNL     1      56.069  34.970  78.819  0.00  0.00    +0.000 A 
ATOM      7  C   UNL     1      57.635  36.465  79.676  0.00  0.00    +0.000 A 
ATOM      8  C   UNL     1      56.603  36.275  79.110  0.00  0.00    +0.000 A 
ATOM      9  H   UNL     1      56.605  32.998  79.114  0.00  0.00    +0.000 HD
ATOM     10  H   UNL     1      59.312  35.716  80.596  0.00  0.00    +0.000 HD
ENDROOT
TORSDOF 0
ENDMDL
MODEL 5
REMARK VINA RESULT:      -3.6     16.527     17.232
REMARK  Name = 1174_Uracil.pdbqt.pdb
REMARK  0 active torsions:
REMARK  status: ('A' for Active; 'I' for Inactive)
REMARK                            x       y       z     vdW  Elec       q    Type
REMARK                         _______ _______ _______ _____ _____    ______ ____
ROOT
ATOM      1  O   UNL     1      41.101  27.315  86.426  0.00  0.00    +0.000 OA
ATOM      2  O   UNL     1      43.675  25.536  83.008  0.00  0.00    +0.000 OA
ATOM      3  N   UNL     1      42.362  26.364  84.739  0.00  0.00    +0.000 N 
ATOM      4  N   UNL     1      42.365  28.685  85.061  0.00  0.00    +0.000 N 
ATOM      5  C   UNL     1      41.877  27.446  85.488  0.00  0.00    +0.000 A 
ATOM      6  C   UNL     1      43.245  26.471  83.666  0.00  0.00    +0.000 A 
ATOM      7  C   UNL     1      43.216  28.771  84.025  0.00  0.00    +0.000 A 
ATOM      8  C   UNL     1      43.616  27.837  83.401  0.00  0.00    +0.000 A 
ATOM      9  H   UNL     1      42.049  25.442  84.996  0.00  0.00    +0.000 HD
ATOM     10  H   UNL     1      42.061  29.517  85.552  0.00  0.00    +0.000 HD
ENDROOT
TORSDOF 0
ENDMDL
MODEL 6
REMARK VINA RESULT:      -3.6      2.294      3.169
REMARK  Name = 1174_Uracil.pdbqt.pdb
REMARK  0 active torsions:
REMARK  status: ('A' for Active; 'I' for Inactive)
REMARK                            x       y       z     vdW  Elec       q    Type
REMARK                         _______ _______ _______ _____ _____    ______ ____
ROOT
ATOM      1  O   UNL     1      58.276  33.202  79.353  0.00  0.00    +0.000 OA
ATOM      2  O   UNL     1      57.857  37.754  78.591  0.00  0.00    +0.000 OA
ATOM      3  N   UNL     1      58.109  35.466  78.917  0.00  0.00    +0.000 N 
ATOM      4  N   UNL     1      56.967  34.517  80.731  0.00  0.00    +0.000 N 
ATOM      5  C   UNL     1      57.822  34.301  79.644  0.00  0.00    +0.000 A 
ATOM      6  C   UNL     1      57.612  36.733  79.216  0.00  0.00    +0.000 A 
ATOM      7  C   UNL     1      56.497  35.745  81.005  0.00  0.00    +0.000 A 
ATOM      8  C   UNL     1      56.755  36.722  80.373  0.00  0.00    +0.000 A 
ATOM      9  H   UNL     1      58.720  35.378  78.121  0.00  0.00    +0.000 HD
ATOM     10  H   UNL     1      56.712  33.724  81.306  0.00  0.00    +0.000 HD
ENDROOT
TORSDOF 0
ENDMDL
MODEL 7
REMARK VINA RESULT:      -3.6      2.133      2.239
REMARK  Name = 1174_Uracil.pdbqt.pdb
REMARK  0 active torsions:
REMARK  status: ('A' for Active; 'I' for Inactive)
REMARK                            x       y       z     vdW  Elec       q    Type
REMARK                         _______ _______ _______ _____ _____    ______ ____
ROOT
ATOM      1  O   UNL     1      57.227  37.299  78.136  0.00  0.00    +0.000 OA
ATOM      2  O   UNL     1      59.850  34.101  80.226  0.00  0.00    +0.000 OA
ATOM      3  N   UNL     1      58.586  35.717  79.132  0.00  0.00    +0.000 N 
ATOM      4  N   UNL     1      56.448  36.154  79.986  0.00  0.00    +0.000 N 
ATOM      5  C   UNL     1      57.403  36.461  79.012  0.00  0.00    +0.000 A 
ATOM      6  C   UNL     1      58.825  34.756  80.113  0.00  0.00    +0.000 A 
ATOM      7  C   UNL     1      56.694  35.225  80.925  0.00  0.00    +0.000 A 
ATOM      8  C   UNL     1      57.708  34.603  81.008  0.00  0.00    +0.000 A 
ATOM      9  H   UNL     1      59.315  35.890  78.460  0.00  0.00    +0.000 HD
ATOM     10  H   UNL     1      55.565  36.649  79.967  0.00  0.00    +0.000 HD
ENDROOT
TORSDOF 0
ENDMDL
MODEL 8
REMARK VINA RESULT:      -3.4     14.747     15.358
REMARK  Name = 1174_Uracil.pdbqt.pdb
REMARK  0 active torsions:
REMARK  status: ('A' for Active; 'I' for Inactive)
REMARK                            x       y       z     vdW  Elec       q    Type
REMARK                         _______ _______ _______ _____ _____    ______ ____
ROOT
ATOM      1  O   UNL     1      45.854  28.825  86.290  0.00  0.00    +0.000 OA
ATOM      2  O   UNL     1      45.691  25.428  83.143  0.00  0.00    +0.000 OA
ATOM      3  N   UNL     1      45.839  27.115  84.735  0.00  0.00    +0.000 N 
ATOM      4  N   UNL     1      43.914  28.399  85.108  0.00  0.00    +0.000 N 
ATOM      5  C   UNL     1      45.252  28.170  85.449  0.00  0.00    +0.000 A 
ATOM      6  C   UNL     1      45.188  26.347  83.771  0.00  0.00    +0.000 A 
ATOM      7  C   UNL     1      43.302  27.649  84.177  0.00  0.00    +0.000 A 
ATOM      8  C   UNL     1      43.821  26.757  83.581  0.00  0.00    +0.000 A 
ATOM      9  H   UNL     1      46.802  26.899  84.934  0.00  0.00    +0.000 HD
ATOM     10  H   UNL     1      43.419  29.145  85.580  0.00  0.00    +0.000 HD
ENDROOT
TORSDOF 0
ENDMDL
MODEL 9
REMARK VINA RESULT:      -3.3     15.613     15.937
REMARK  Name = 1174_Uracil.pdbqt.pdb
REMARK  0 active torsions:
REMARK  status: ('A' for Active; 'I' for Inactive)
REMARK                            x       y       z     vdW  Elec       q    Type
REMARK                         _______ _______ _______ _____ _____    ______ ____
ROOT
ATOM      1  O   UNL     1      45.265  27.841  86.952  0.00  0.00    +0.000 OA
ATOM      2  O   UNL     1      42.905  29.444  83.300  0.00  0.00    +0.000 OA
ATOM      3  N   UNL     1      44.087  28.704  85.160  0.00  0.00    +0.000 N 
ATOM      4  N   UNL     1      44.714  26.446  85.194  0.00  0.00    +0.000 N 
ATOM      5  C   UNL     1      44.734  27.675  85.861  0.00  0.00    +0.000 A 
ATOM      6  C   UNL     1      43.472  28.556  83.918  0.00  0.00    +0.000 A 
ATOM      7  C   UNL     1      44.117  26.320  83.997  0.00  0.00    +0.000 A 
ATOM      8  C   UNL     1      43.572  27.209  83.419  0.00  0.00    +0.000 A 
ATOM      9  H   UNL     1      44.066  29.616  85.587  0.00  0.00    +0.000 HD
ATOM     10  H   UNL     1      45.161  25.652  85.636  0.00  0.00    +0.000 HD
ENDROOT
TORSDOF 0
ENDMDL
