MODEL 1
REMARK VINA RESULT:      -5.7      0.000      0.000
REMARK  Name = 122180587_TripolinolateA.pdbqt.pdb
REMARK  9 active torsions:
REMARK  status: ('A' for Active; 'I' for Inactive)
REMARK    1  A    between atoms: C_1  and  O_16
REMARK    2  A    between atoms: C_2  and  O_7
REMARK    3  A    between atoms: C_3  and  C_9
REMARK    4  A    between atoms: C_10  and  C_11
REMARK    5  A    between atoms: C_11  and  O_12
REMARK    6  A    between atoms: O_12  and  C_14
REMARK    7  A    between atoms: O_16  and  C_18
REMARK    8  A    between atoms: C_18  and  C_19
REMARK    9  A    between atoms: C_19  and  C_21
REMARK                            x       y       z     vdW  Elec       q    Type
REMARK                         _______ _______ _______ _____ _____    ______ ____
ROOT
ATOM      1  C   UNL     1      56.541  35.588  77.173  0.00  0.00    +0.000 A 
ATOM      2  C   UNL     1      57.747  36.110  77.654  0.00  0.00    +0.000 A 
ATOM      3  C   UNL     1      57.124  35.353  79.872  0.00  0.00    +0.000 A 
ATOM      4  C   UNL     1      55.617  34.983  78.026  0.00  0.00    +0.000 A 
ATOM      5  C   UNL     1      58.029  35.979  79.016  0.00  0.00    +0.000 A 
ATOM      6  C   UNL     1      55.917  34.858  79.380  0.00  0.00    +0.000 A 
ENDROOT
BRANCH   2   7
ATOM      7  O   UNL     1      58.566  36.737  76.749  0.00  0.00    +0.000 OA
ATOM      8  C   UNL     1      59.651  35.981  76.288  0.00  0.00    +0.000 C 
ENDBRANCH   2   7
BRANCH   3   9
ATOM      9  C   UNL     1      57.431  35.224  81.259  0.00  0.00    +0.000 C 
ATOM     10  C   UNL     1      57.690  35.117  82.427  0.00  0.00    +0.000 C 
BRANCH  10  11
ATOM     11  C   UNL     1      58.021  34.985  83.917  0.00  0.00    +0.000 C 
BRANCH  11  12
ATOM     12  O   UNL     1      58.307  34.871  85.211  0.00  0.00    +0.000 OA
BRANCH  12  14
ATOM     13  O   UNL     1      58.844  37.140  85.389  0.00  0.00    +0.000 OA
ATOM     14  C   UNL     1      58.633  36.025  85.828  0.00  0.00    +0.000 C 
ATOM     15  C   UNL     1      58.757  35.917  87.310  0.00  0.00    +0.000 C 
ENDBRANCH  12  14
ENDBRANCH  11  12
ENDBRANCH  10  11
ENDBRANCH   3   9
BRANCH   1  16
ATOM     16  O   UNL     1      56.201  35.747  75.823  0.00  0.00    +0.000 OA
BRANCH  16  18
ATOM     17  O   UNL     1      54.163  36.866  75.865  0.00  0.00    +0.000 OA
ATOM     18  C   UNL     1      55.355  36.824  75.590  0.00  0.00    +0.000 C 
BRANCH  18  19
ATOM     19  C   UNL     1      56.091  37.936  74.936  0.00  0.00    +0.000 C 
ATOM     20  C   UNL     1      56.001  39.385  75.395  0.00  0.00    +0.000 C 
BRANCH  19  21
ATOM     21  C   UNL     1      56.931  37.649  73.828  0.00  0.00    +0.000 C 
ATOM     22  C   UNL     1      57.836  37.334  72.622  0.00  0.00    +0.000 C 
ENDBRANCH  19  21
ENDBRANCH  18  19
ENDBRANCH  16  18
ENDBRANCH   1  16
TORSDOF 9
ENDMDL
MODEL 2
REMARK VINA RESULT:      -5.6      2.900      8.685
REMARK  Name = 122180587_TripolinolateA.pdbqt.pdb
REMARK  9 active torsions:
REMARK  status: ('A' for Active; 'I' for Inactive)
REMARK    1  A    between atoms: C_1  and  O_16
REMARK    2  A    between atoms: C_2  and  O_7
REMARK    3  A    between atoms: C_3  and  C_9
REMARK    4  A    between atoms: C_10  and  C_11
REMARK    5  A    between atoms: C_11  and  O_12
REMARK    6  A    between atoms: O_12  and  C_14
REMARK    7  A    between atoms: O_16  and  C_18
REMARK    8  A    between atoms: C_18  and  C_19
REMARK    9  A    between atoms: C_19  and  C_21
REMARK                            x       y       z     vdW  Elec       q    Type
REMARK                         _______ _______ _______ _____ _____    ______ ____
ROOT
ATOM      1  C   UNL     1      56.744  35.625  78.880  0.00  0.00    +0.000 A 
ATOM      2  C   UNL     1      57.854  36.310  78.377  0.00  0.00    +0.000 A 
ATOM      3  C   UNL     1      56.356  37.577  76.951  0.00  0.00    +0.000 A 
ATOM      4  C   UNL     1      55.454  35.881  78.409  0.00  0.00    +0.000 A 
ATOM      5  C   UNL     1      57.643  37.295  77.409  0.00  0.00    +0.000 A 
ATOM      6  C   UNL     1      55.263  36.869  77.447  0.00  0.00    +0.000 A 
ENDROOT
BRANCH   2   7
ATOM      7  O   UNL     1      59.087  35.951  78.861  0.00  0.00    +0.000 OA
ATOM      8  C   UNL     1      60.103  35.830  77.903  0.00  0.00    +0.000 C 
ENDBRANCH   2   7
BRANCH   3   9
ATOM      9  C   UNL     1      56.159  38.589  75.966  0.00  0.00    +0.000 C 
ATOM     10  C   UNL     1      55.995  39.441  75.136  0.00  0.00    +0.000 C 
BRANCH  10  11
ATOM     11  C   UNL     1      55.789  40.531  74.078  0.00  0.00    +0.000 C 
BRANCH  11  12
ATOM     12  O   UNL     1      55.609  41.476  73.159  0.00  0.00    +0.000 OA
BRANCH  12  14
ATOM     13  O   UNL     1      57.050  42.930  72.029  0.00  0.00    +0.000 OA
ATOM     14  C   UNL     1      56.724  41.859  72.506  0.00  0.00    +0.000 C 
ATOM     15  C   UNL     1      57.740  40.780  72.337  0.00  0.00    +0.000 C 
ENDBRANCH  12  14
ENDBRANCH  11  12
ENDBRANCH  10  11
ENDBRANCH   3   9
BRANCH   1  16
ATOM     16  O   UNL     1      56.923  34.595  79.813  0.00  0.00    +0.000 OA
BRANCH  16  18
ATOM     17  O   UNL     1      56.229  35.958  81.566  0.00  0.00    +0.000 OA
ATOM     18  C   UNL     1      56.909  35.037  81.131  0.00  0.00    +0.000 C 
BRANCH  18  19
ATOM     19  C   UNL     1      57.854  34.245  81.958  0.00  0.00    +0.000 C 
ATOM     20  C   UNL     1      58.682  33.090  81.411  0.00  0.00    +0.000 C 
BRANCH  19  21
ATOM     21  C   UNL     1      58.009  34.573  83.331  0.00  0.00    +0.000 C 
ATOM     22  C   UNL     1      58.186  34.926  84.819  0.00  0.00    +0.000 C 
ENDBRANCH  19  21
ENDBRANCH  18  19
ENDBRANCH  16  18
ENDBRANCH   1  16
TORSDOF 9
ENDMDL
MODEL 3
REMARK VINA RESULT:      -5.4      2.412      4.036
REMARK  Name = 122180587_TripolinolateA.pdbqt.pdb
REMARK  9 active torsions:
REMARK  status: ('A' for Active; 'I' for Inactive)
REMARK    1  A    between atoms: C_1  and  O_16
REMARK    2  A    between atoms: C_2  and  O_7
REMARK    3  A    between atoms: C_3  and  C_9
REMARK    4  A    between atoms: C_10  and  C_11
REMARK    5  A    between atoms: C_11  and  O_12
REMARK    6  A    between atoms: O_12  and  C_14
REMARK    7  A    between atoms: O_16  and  C_18
REMARK    8  A    between atoms: C_18  and  C_19
REMARK    9  A    between atoms: C_19  and  C_21
REMARK                            x       y       z     vdW  Elec       q    Type
REMARK                         _______ _______ _______ _____ _____    ______ ____
ROOT
ATOM      1  C   UNL     1      58.438  35.568  78.104  0.00  0.00    +0.000 A 
ATOM      2  C   UNL     1      57.197  36.178  78.313  0.00  0.00    +0.000 A 
ATOM      3  C   UNL     1      57.631  36.111  80.699  0.00  0.00    +0.000 A 
ATOM      4  C   UNL     1      59.259  35.200  79.171  0.00  0.00    +0.000 A 
ATOM      5  C   UNL     1      56.806  36.451  79.627  0.00  0.00    +0.000 A 
ATOM      6  C   UNL     1      58.855  35.483  80.472  0.00  0.00    +0.000 A 
ENDROOT
BRANCH   2   7
ATOM      7  O   UNL     1      56.435  36.452  77.205  0.00  0.00    +0.000 OA
ATOM      8  C   UNL     1      55.397  37.372  77.395  0.00  0.00    +0.000 C 
ENDBRANCH   2   7
BRANCH   3   9
ATOM      9  C   UNL     1      57.217  36.401  82.032  0.00  0.00    +0.000 C 
ATOM     10  C   UNL     1      56.870  36.648  83.155  0.00  0.00    +0.000 C 
BRANCH  10  11
ATOM     11  C   UNL     1      56.431  36.963  84.589  0.00  0.00    +0.000 C 
BRANCH  11  12
ATOM     12  O   UNL     1      56.050  37.239  85.834  0.00  0.00    +0.000 OA
BRANCH  12  14
ATOM     13  O   UNL     1      53.893  36.397  85.506  0.00  0.00    +0.000 OA
ATOM     14  C   UNL     1      54.839  36.759  86.181  0.00  0.00    +0.000 C 
ATOM     15  C   UNL     1      54.617  36.651  87.652  0.00  0.00    +0.000 C 
ENDBRANCH  12  14
ENDBRANCH  11  12
ENDBRANCH  10  11
ENDBRANCH   3   9
BRANCH   1  16
ATOM     16  O   UNL     1      58.840  35.233  76.803  0.00  0.00    +0.000 OA
BRANCH  16  18
ATOM     17  O   UNL     1      59.856  37.221  76.153  0.00  0.00    +0.000 OA
ATOM     18  C   UNL     1      59.891  36.010  76.333  0.00  0.00    +0.000 C 
BRANCH  18  19
ATOM     19  C   UNL     1      61.081  35.168  76.056  0.00  0.00    +0.000 C 
ATOM     20  C   UNL     1      62.441  35.401  76.700  0.00  0.00    +0.000 C 
BRANCH  19  21
ATOM     21  C   UNL     1      60.961  34.081  75.151  0.00  0.00    +0.000 C 
ATOM     22  C   UNL     1      60.823  32.903  74.168  0.00  0.00    +0.000 C 
ENDBRANCH  19  21
ENDBRANCH  18  19
ENDBRANCH  16  18
ENDBRANCH   1  16
TORSDOF 9
ENDMDL
MODEL 4
REMARK VINA RESULT:      -5.4      1.919      2.947
REMARK  Name = 122180587_TripolinolateA.pdbqt.pdb
REMARK  9 active torsions:
REMARK  status: ('A' for Active; 'I' for Inactive)
REMARK    1  A    between atoms: C_1  and  O_16
REMARK    2  A    between atoms: C_2  and  O_7
REMARK    3  A    between atoms: C_3  and  C_9
REMARK    4  A    between atoms: C_10  and  C_11
REMARK    5  A    between atoms: C_11  and  O_12
REMARK    6  A    between atoms: O_12  and  C_14
REMARK    7  A    between atoms: O_16  and  C_18
REMARK    8  A    between atoms: C_18  and  C_19
REMARK    9  A    between atoms: C_19  and  C_21
REMARK                            x       y       z     vdW  Elec       q    Type
REMARK                         _______ _______ _______ _____ _____    ______ ____
ROOT
ATOM      1  C   UNL     1      58.200  36.602  76.844  0.00  0.00    +0.000 A 
ATOM      2  C   UNL     1      57.276  37.258  77.664  0.00  0.00    +0.000 A 
ATOM      3  C   UNL     1      58.080  35.933  79.530  0.00  0.00    +0.000 A 
ATOM      4  C   UNL     1      59.036  35.600  77.342  0.00  0.00    +0.000 A 
ATOM      5  C   UNL     1      57.231  36.914  79.017  0.00  0.00    +0.000 A 
ATOM      6  C   UNL     1      58.979  35.274  78.694  0.00  0.00    +0.000 A 
ENDROOT
BRANCH   2   7
ATOM      7  O   UNL     1      56.459  38.188  77.073  0.00  0.00    +0.000 OA
ATOM      8  C   UNL     1      55.086  37.923  77.146  0.00  0.00    +0.000 C 
ENDBRANCH   2   7
BRANCH   3   9
ATOM      9  C   UNL     1      58.022  35.599  80.916  0.00  0.00    +0.000 C 
ATOM     10  C   UNL     1      57.976  35.317  82.082  0.00  0.00    +0.000 C 
BRANCH  10  11
ATOM     11  C   UNL     1      57.919  34.954  83.569  0.00  0.00    +0.000 C 
BRANCH  11  12
ATOM     12  O   UNL     1      57.868  34.640  84.862  0.00  0.00    +0.000 OA
BRANCH  12  14
ATOM     13  O   UNL     1      56.009  35.256  86.139  0.00  0.00    +0.000 OA
ATOM     14  C   UNL     1      57.091  35.443  85.615  0.00  0.00    +0.000 C 
ATOM     15  C   UNL     1      57.656  36.804  85.849  0.00  0.00    +0.000 C 
ENDBRANCH  12  14
ENDBRANCH  11  12
ENDBRANCH  10  11
ENDBRANCH   3   9
BRANCH   1  16
ATOM     16  O   UNL     1      58.238  36.884  75.471  0.00  0.00    +0.000 OA
BRANCH  16  18
ATOM     17  O   UNL     1      56.744  35.288  74.678  0.00  0.00    +0.000 OA
ATOM     18  C   UNL     1      57.851  35.812  74.677  0.00  0.00    +0.000 C 
BRANCH  18  19
ATOM     19  C   UNL     1      58.977  35.363  73.820  0.00  0.00    +0.000 C 
ATOM     20  C   UNL     1      60.353  36.014  73.834  0.00  0.00    +0.000 C 
BRANCH  19  21
ATOM     21  C   UNL     1      58.779  34.265  72.941  0.00  0.00    +0.000 C 
ATOM     22  C   UNL     1      58.570  33.078  71.983  0.00  0.00    +0.000 C 
ENDBRANCH  19  21
ENDBRANCH  18  19
ENDBRANCH  16  18
ENDBRANCH   1  16
TORSDOF 9
ENDMDL
MODEL 5
REMARK VINA RESULT:      -5.3      3.535      9.062
REMARK  Name = 122180587_TripolinolateA.pdbqt.pdb
REMARK  9 active torsions:
REMARK  status: ('A' for Active; 'I' for Inactive)
REMARK    1  A    between atoms: C_1  and  O_16
REMARK    2  A    between atoms: C_2  and  O_7
REMARK    3  A    between atoms: C_3  and  C_9
REMARK    4  A    between atoms: C_10  and  C_11
REMARK    5  A    between atoms: C_11  and  O_12
REMARK    6  A    between atoms: O_12  and  C_14
REMARK    7  A    between atoms: O_16  and  C_18
REMARK    8  A    between atoms: C_18  and  C_19
REMARK    9  A    between atoms: C_19  and  C_21
REMARK                            x       y       z     vdW  Elec       q    Type
REMARK                         _______ _______ _______ _____ _____    ______ ____
ROOT
ATOM      1  C   UNL     1      56.308  36.720  76.713  0.00  0.00    +0.000 A 
ATOM      2  C   UNL     1      56.459  36.580  75.330  0.00  0.00    +0.000 A 
ATOM      3  C   UNL     1      55.988  38.948  75.097  0.00  0.00    +0.000 A 
ATOM      4  C   UNL     1      55.969  37.946  77.289  0.00  0.00    +0.000 A 
ATOM      5  C   UNL     1      56.301  37.714  74.528  0.00  0.00    +0.000 A 
ATOM      6  C   UNL     1      55.819  39.064  76.475  0.00  0.00    +0.000 A 
ENDROOT
BRANCH   2   7
ATOM      7  O   UNL     1      56.737  35.325  74.850  0.00  0.00    +0.000 OA
ATOM      8  C   UNL     1      57.816  35.240  73.961  0.00  0.00    +0.000 C 
ENDBRANCH   2   7
BRANCH   3   9
ATOM      9  C   UNL     1      55.835  40.095  74.263  0.00  0.00    +0.000 C 
ATOM     10  C   UNL     1      55.705  41.062  73.562  0.00  0.00    +0.000 C 
BRANCH  10  11
ATOM     11  C   UNL     1      55.535  42.295  72.670  0.00  0.00    +0.000 C 
BRANCH  11  12
ATOM     12  O   UNL     1      55.387  43.368  71.896  0.00  0.00    +0.000 OA
BRANCH  12  14
ATOM     13  O   UNL     1      56.059  45.568  72.314  0.00  0.00    +0.000 OA
ATOM     14  C   UNL     1      55.433  44.550  72.543  0.00  0.00    +0.000 C 
ATOM     15  C   UNL     1      54.564  44.625  73.753  0.00  0.00    +0.000 C 
ENDBRANCH  12  14
ENDBRANCH  11  12
ENDBRANCH  10  11
ENDBRANCH   3   9
BRANCH   1  16
ATOM     16  O   UNL     1      56.409  35.595  77.543  0.00  0.00    +0.000 OA
BRANCH  16  18
ATOM     17  O   UNL     1      58.712  35.652  77.862  0.00  0.00    +0.000 OA
ATOM     18  C   UNL     1      57.572  35.572  78.302  0.00  0.00    +0.000 C 
BRANCH  18  19
ATOM     19  C   UNL     1      57.252  35.420  79.744  0.00  0.00    +0.000 C 
ATOM     20  C   UNL     1      56.338  36.370  80.505  0.00  0.00    +0.000 C 
BRANCH  19  21
ATOM     21  C   UNL     1      57.816  34.334  80.464  0.00  0.00    +0.000 C 
ATOM     22  C   UNL     1      58.429  33.161  81.251  0.00  0.00    +0.000 C 
ENDBRANCH  19  21
ENDBRANCH  18  19
ENDBRANCH  16  18
ENDBRANCH   1  16
TORSDOF 9
ENDMDL
MODEL 6
REMARK VINA RESULT:      -5.2      4.601      9.974
REMARK  Name = 122180587_TripolinolateA.pdbqt.pdb
REMARK  9 active torsions:
REMARK  status: ('A' for Active; 'I' for Inactive)
REMARK    1  A    between atoms: C_1  and  O_16
REMARK    2  A    between atoms: C_2  and  O_7
REMARK    3  A    between atoms: C_3  and  C_9
REMARK    4  A    between atoms: C_10  and  C_11
REMARK    5  A    between atoms: C_11  and  O_12
REMARK    6  A    between atoms: O_12  and  C_14
REMARK    7  A    between atoms: O_16  and  C_18
REMARK    8  A    between atoms: C_18  and  C_19
REMARK    9  A    between atoms: C_19  and  C_21
REMARK                            x       y       z     vdW  Elec       q    Type
REMARK                         _______ _______ _______ _____ _____    ______ ____
ROOT
ATOM      1  C   UNL     1      59.846  35.567  76.043  0.00  0.00    +0.000 A 
ATOM      2  C   UNL     1      60.822  34.636  75.673  0.00  0.00    +0.000 A 
ATOM      3  C   UNL     1      59.671  34.356  73.556  0.00  0.00    +0.000 A 
ATOM      4  C   UNL     1      58.774  35.873  75.202  0.00  0.00    +0.000 A 
ATOM      5  C   UNL     1      60.723  34.038  74.414  0.00  0.00    +0.000 A 
ATOM      6  C   UNL     1      58.695  35.270  73.950  0.00  0.00    +0.000 A 
ENDROOT
BRANCH   2   7
ATOM      7  O   UNL     1      61.806  34.358  76.588  0.00  0.00    +0.000 OA
ATOM      8  C   UNL     1      63.102  34.739  76.219  0.00  0.00    +0.000 C 
ENDBRANCH   2   7
BRANCH   3   9
ATOM      9  C   UNL     1      59.590  33.739  72.273  0.00  0.00    +0.000 C 
ATOM     10  C   UNL     1      59.523  33.221  71.191  0.00  0.00    +0.000 C 
BRANCH  10  11
ATOM     11  C   UNL     1      59.437  32.564  69.810  0.00  0.00    +0.000 C 
BRANCH  11  12
ATOM     12  O   UNL     1      59.364  31.992  68.611  0.00  0.00    +0.000 OA
BRANCH  12  14
ATOM     13  O   UNL     1      60.179  29.929  69.348  0.00  0.00    +0.000 OA
ATOM     14  C   UNL     1      59.554  30.658  68.600  0.00  0.00    +0.000 C 
ATOM     15  C   UNL     1      58.882  29.948  67.474  0.00  0.00    +0.000 C 
ENDBRANCH  12  14
ENDBRANCH  11  12
ENDBRANCH  10  11
ENDBRANCH   3   9
BRANCH   1  16
ATOM     16  O   UNL     1      59.884  36.148  77.318  0.00  0.00    +0.000 OA
BRANCH  16  18
ATOM     17  O   UNL     1      58.793  34.462  78.492  0.00  0.00    +0.000 OA
ATOM     18  C   UNL     1      58.923  35.640  78.184  0.00  0.00    +0.000 C 
BRANCH  18  19
ATOM     19  C   UNL     1      58.045  36.727  78.686  0.00  0.00    +0.000 C 
ATOM     20  C   UNL     1      57.883  38.067  77.982  0.00  0.00    +0.000 C 
BRANCH  19  21
ATOM     21  C   UNL     1      57.308  36.520  79.882  0.00  0.00    +0.000 C 
ATOM     22  C   UNL     1      56.508  36.304  81.180  0.00  0.00    +0.000 C 
ENDBRANCH  19  21
ENDBRANCH  18  19
ENDBRANCH  16  18
ENDBRANCH   1  16
TORSDOF 9
ENDMDL
MODEL 7
REMARK VINA RESULT:      -5.1      2.779      9.109
REMARK  Name = 122180587_TripolinolateA.pdbqt.pdb
REMARK  9 active torsions:
REMARK  status: ('A' for Active; 'I' for Inactive)
REMARK    1  A    between atoms: C_1  and  O_16
REMARK    2  A    between atoms: C_2  and  O_7
REMARK    3  A    between atoms: C_3  and  C_9
REMARK    4  A    between atoms: C_10  and  C_11
REMARK    5  A    between atoms: C_11  and  O_12
REMARK    6  A    between atoms: O_12  and  C_14
REMARK    7  A    between atoms: O_16  and  C_18
REMARK    8  A    between atoms: C_18  and  C_19
REMARK    9  A    between atoms: C_19  and  C_21
REMARK                            x       y       z     vdW  Elec       q    Type
REMARK                         _______ _______ _______ _____ _____    ______ ____
ROOT
ATOM      1  C   UNL     1      56.704  36.874  78.804  0.00  0.00    +0.000 A 
ATOM      2  C   UNL     1      57.811  36.926  77.951  0.00  0.00    +0.000 A 
ATOM      3  C   UNL     1      56.319  37.563  76.148  0.00  0.00    +0.000 A 
ATOM      4  C   UNL     1      55.412  37.130  78.340  0.00  0.00    +0.000 A 
ATOM      5  C   UNL     1      57.602  37.280  76.616  0.00  0.00    +0.000 A 
ATOM      6  C   UNL     1      55.224  37.485  77.007  0.00  0.00    +0.000 A 
ENDROOT
BRANCH   2   7
ATOM      7  O   UNL     1      59.033  36.605  78.486  0.00  0.00    +0.000 OA
ATOM      8  C   UNL     1      59.641  35.457  77.962  0.00  0.00    +0.000 C 
ENDBRANCH   2   7
BRANCH   3   9
ATOM      9  C   UNL     1      56.126  37.928  74.783  0.00  0.00    +0.000 C 
ATOM     10  C   UNL     1      55.962  38.233  73.633  0.00  0.00    +0.000 C 
BRANCH  10  11
ATOM     11  C   UNL     1      55.754  38.618  72.164  0.00  0.00    +0.000 C 
BRANCH  11  12
ATOM     12  O   UNL     1      55.575  38.952  70.889  0.00  0.00    +0.000 OA
BRANCH  12  14
ATOM     13  O   UNL     1      57.196  39.253  69.231  0.00  0.00    +0.000 OA
ATOM     14  C   UNL     1      56.582  38.609  70.061  0.00  0.00    +0.000 C 
ATOM     15  C   UNL     1      57.024  37.190  70.183  0.00  0.00    +0.000 C 
ENDBRANCH  12  14
ENDBRANCH  11  12
ENDBRANCH  10  11
ENDBRANCH   3   9
BRANCH   1  16
ATOM     16  O   UNL     1      56.868  36.473  80.137  0.00  0.00    +0.000 OA
BRANCH  16  18
ATOM     17  O   UNL     1      56.209  34.315  79.572  0.00  0.00    +0.000 OA
ATOM     18  C   UNL     1      56.794  35.097  80.312  0.00  0.00    +0.000 C 
BRANCH  18  19
ATOM     19  C   UNL     1      57.514  34.686  81.543  0.00  0.00    +0.000 C 
ATOM     20  C   UNL     1      58.178  33.326  81.712  0.00  0.00    +0.000 C 
BRANCH  19  21
ATOM     21  C   UNL     1      57.603  35.599  82.626  0.00  0.00    +0.000 C 
ATOM     22  C   UNL     1      57.706  36.585  83.805  0.00  0.00    +0.000 C 
ENDBRANCH  19  21
ENDBRANCH  18  19
ENDBRANCH  16  18
ENDBRANCH   1  16
TORSDOF 9
ENDMDL
MODEL 8
REMARK VINA RESULT:      -5.0      5.875      8.785
REMARK  Name = 122180587_TripolinolateA.pdbqt.pdb
REMARK  9 active torsions:
REMARK  status: ('A' for Active; 'I' for Inactive)
REMARK    1  A    between atoms: C_1  and  O_16
REMARK    2  A    between atoms: C_2  and  O_7
REMARK    3  A    between atoms: C_3  and  C_9
REMARK    4  A    between atoms: C_10  and  C_11
REMARK    5  A    between atoms: C_11  and  O_12
REMARK    6  A    between atoms: O_12  and  C_14
REMARK    7  A    between atoms: O_16  and  C_18
REMARK    8  A    between atoms: C_18  and  C_19
REMARK    9  A    between atoms: C_19  and  C_21
REMARK                            x       y       z     vdW  Elec       q    Type
REMARK                         _______ _______ _______ _____ _____    ______ ____
ROOT
ATOM      1  C   UNL     1      60.351  32.737  70.935  0.00  0.00    +0.000 A 
ATOM      2  C   UNL     1      60.726  32.641  72.279  0.00  0.00    +0.000 A 
ATOM      3  C   UNL     1      59.051  34.314  72.807  0.00  0.00    +0.000 A 
ATOM      4  C   UNL     1      59.362  33.629  70.516  0.00  0.00    +0.000 A 
ATOM      5  C   UNL     1      60.058  33.438  73.212  0.00  0.00    +0.000 A 
ATOM      6  C   UNL     1      58.705  34.412  71.460  0.00  0.00    +0.000 A 
ENDROOT
BRANCH   2   7
ATOM      7  O   UNL     1      61.746  31.777  72.587  0.00  0.00    +0.000 OA
ATOM      8  C   UNL     1      61.460  30.829  73.578  0.00  0.00    +0.000 C 
ENDBRANCH   2   7
BRANCH   3   9
ATOM      9  C   UNL     1      58.376  35.116  73.774  0.00  0.00    +0.000 C 
ATOM     10  C   UNL     1      57.808  35.792  74.587  0.00  0.00    +0.000 C 
BRANCH  10  11
ATOM     11  C   UNL     1      57.085  36.659  75.623  0.00  0.00    +0.000 C 
BRANCH  11  12
ATOM     12  O   UNL     1      56.456  37.413  76.521  0.00  0.00    +0.000 OA
BRANCH  12  14
ATOM     13  O   UNL     1      57.582  39.385  77.082  0.00  0.00    +0.000 OA
ATOM     14  C   UNL     1      57.253  38.224  77.245  0.00  0.00    +0.000 C 
ATOM     15  C   UNL     1      57.837  37.589  78.462  0.00  0.00    +0.000 C 
ENDBRANCH  12  14
ENDBRANCH  11  12
ENDBRANCH  10  11
ENDBRANCH   3   9
BRANCH   1  16
ATOM     16  O   UNL     1      61.035  31.991  69.965  0.00  0.00    +0.000 OA
BRANCH  16  18
ATOM     17  O   UNL     1      59.880  29.984  70.179  0.00  0.00    +0.000 OA
ATOM     18  C   UNL     1      60.310  30.903  69.494  0.00  0.00    +0.000 C 
BRANCH  18  19
ATOM     19  C   UNL     1      60.133  30.990  68.023  0.00  0.00    +0.000 C 
ATOM     20  C   UNL     1      61.040  31.812  67.116  0.00  0.00    +0.000 C 
BRANCH  19  21
ATOM     21  C   UNL     1      59.073  30.270  67.413  0.00  0.00    +0.000 C 
ATOM     22  C   UNL     1      57.920  29.485  66.758  0.00  0.00    +0.000 C 
ENDBRANCH  19  21
ENDBRANCH  18  19
ENDBRANCH  16  18
ENDBRANCH   1  16
TORSDOF 9
ENDMDL
MODEL 9
REMARK VINA RESULT:      -5.0      5.607      8.192
REMARK  Name = 122180587_TripolinolateA.pdbqt.pdb
REMARK  9 active torsions:
REMARK  status: ('A' for Active; 'I' for Inactive)
REMARK    1  A    between atoms: C_1  and  O_16
REMARK    2  A    between atoms: C_2  and  O_7
REMARK    3  A    between atoms: C_3  and  C_9
REMARK    4  A    between atoms: C_10  and  C_11
REMARK    5  A    between atoms: C_11  and  O_12
REMARK    6  A    between atoms: O_12  and  C_14
REMARK    7  A    between atoms: O_16  and  C_18
REMARK    8  A    between atoms: C_18  and  C_19
REMARK    9  A    between atoms: C_19  and  C_21
REMARK                            x       y       z     vdW  Elec       q    Type
REMARK                         _______ _______ _______ _____ _____    ______ ____
ROOT
ATOM      1  C   UNL     1      60.679  33.908  72.286  0.00  0.00    +0.000 A 
ATOM      2  C   UNL     1      60.993  34.882  73.240  0.00  0.00    +0.000 A 
ATOM      3  C   UNL     1      58.619  35.156  73.659  0.00  0.00    +0.000 A 
ATOM      4  C   UNL     1      59.355  33.577  71.991  0.00  0.00    +0.000 A 
ATOM      5  C   UNL     1      59.944  35.499  73.928  0.00  0.00    +0.000 A 
ATOM      6  C   UNL     1      58.324  34.199  72.689  0.00  0.00    +0.000 A 
ENDROOT
BRANCH   2   7
ATOM      7  O   UNL     1      62.320  35.180  73.422  0.00  0.00    +0.000 OA
ATOM      8  C   UNL     1      62.794  35.062  74.735  0.00  0.00    +0.000 C 
ENDBRANCH   2   7
BRANCH   3   9
ATOM      9  C   UNL     1      57.562  35.793  74.374  0.00  0.00    +0.000 C 
ATOM     10  C   UNL     1      56.672  36.328  74.978  0.00  0.00    +0.000 C 
BRANCH  10  11
ATOM     11  C   UNL     1      55.536  37.006  75.749  0.00  0.00    +0.000 C 
BRANCH  11  12
ATOM     12  O   UNL     1      54.547  37.596  76.417  0.00  0.00    +0.000 OA
BRANCH  12  14
ATOM     13  O   UNL     1      54.209  39.548  77.659  0.00  0.00    +0.000 OA
ATOM     14  C   UNL     1      54.868  38.772  76.992  0.00  0.00    +0.000 C 
ATOM     15  C   UNL     1      56.279  39.201  76.772  0.00  0.00    +0.000 C 
ENDBRANCH  12  14
ENDBRANCH  11  12
ENDBRANCH  10  11
ENDBRANCH   3   9
BRANCH   1  16
ATOM     16  O   UNL     1      61.701  33.306  71.541  0.00  0.00    +0.000 OA
BRANCH  16  18
ATOM     17  O   UNL     1      63.464  32.254  72.634  0.00  0.00    +0.000 OA
ATOM     18  C   UNL     1      62.318  32.251  72.202  0.00  0.00    +0.000 C 
BRANCH  18  19
ATOM     19  C   UNL     1      61.399  31.091  72.307  0.00  0.00    +0.000 C 
ATOM     20  C   UNL     1      60.837  30.583  73.628  0.00  0.00    +0.000 C 
BRANCH  19  21
ATOM     21  C   UNL     1      61.009  30.412  71.123  0.00  0.00    +0.000 C 
ATOM     22  C   UNL     1      60.589  29.680  69.834  0.00  0.00    +0.000 C 
ENDBRANCH  19  21
ENDBRANCH  18  19
ENDBRANCH  16  18
ENDBRANCH   1  16
TORSDOF 9
ENDMDL
