MODEL 1
REMARK VINA RESULT:      -5.7      0.000      0.000
REMARK  Name = 122178712_SalternamideA.pdbqt.pdb
REMARK  8 active torsions:
REMARK  status: ('A' for Active; 'I' for Inactive)
REMARK    1  A    between atoms: C_3  and  O_24
REMARK    2  A    between atoms: C_3  and  C_26
REMARK    3  A    between atoms: C_6  and  N_10
REMARK    4  A    between atoms: C_11  and  C_14
REMARK    5  A    between atoms: C_13  and  C_15
REMARK    6  A    between atoms: C_27  and  C_28
REMARK    7  A    between atoms: C_29  and  C_31
REMARK    8  A    between atoms: C_31  and  O_32
REMARK                            x       y       z     vdW  Elec       q    Type
REMARK                         _______ _______ _______ _____ _____    ______ ____
ROOT
ATOM      1 CL   UNL     1      61.581  29.865  72.020  0.00  0.00    +0.000 Cl
ATOM      2  O   UNL     1      60.107  32.544  72.787  0.00  0.00    +0.000 OA
ATOM      3  C   UNL     1      60.171  31.554  68.595  0.00  0.00    +0.000 C 
ATOM      4  C   UNL     1      59.546  32.671  69.322  0.00  0.00    +0.000 C 
ATOM      5  C   UNL     1      60.777  30.862  69.744  0.00  0.00    +0.000 C 
ATOM      6  C   UNL     1      59.443  33.107  70.545  0.00  0.00    +0.000 C 
ATOM      7  C   UNL     1      60.861  31.036  71.031  0.00  0.00    +0.000 C 
ATOM      8  C   UNL     1      60.149  32.247  71.600  0.00  0.00    +0.000 C 
ENDROOT
BRANCH   6  10
ATOM      9  O   UNL     1      59.920  35.899  69.820  0.00  0.00    +0.000 OA
ATOM     10  N   UNL     1      58.770  34.230  70.951  0.00  0.00    +0.000 N 
ATOM     11  C   UNL     1      59.037  35.523  70.578  0.00  0.00    +0.000 C 
ATOM     12  H   UNL     1      58.001  34.063  71.597  0.00  0.00    +0.000 HD
BRANCH  11  14
ATOM     13  C   UNL     1      57.441  37.346  71.640  0.00  0.00    +0.000 C 
ATOM     14  C   UNL     1      58.161  36.513  71.159  0.00  0.00    +0.000 C 
BRANCH  13  15
ATOM     15  C   UNL     1      56.594  38.333  72.201  0.00  0.00    +0.000 C 
ATOM     16  C   UNL     1      56.147  38.157  73.624  0.00  0.00    +0.000 C 
ATOM     17  C   UNL     1      56.093  39.451  71.505  0.00  0.00    +0.000 C 
ATOM     18  C   UNL     1      55.586  40.576  70.822  0.00  0.00    +0.000 C 
ATOM     19  C   UNL     1      56.289  40.998  69.566  0.00  0.00    +0.000 C 
ATOM     20  C   UNL     1      54.458  41.311  71.222  0.00  0.00    +0.000 C 
ATOM     21  C   UNL     1      53.419  41.984  71.584  0.00  0.00    +0.000 C 
ATOM     22  C   UNL     1      53.578  43.124  72.541  0.00  0.00    +0.000 C 
ATOM     23  C   UNL     1      52.057  41.419  71.322  0.00  0.00    +0.000 C 
ENDBRANCH  13  15
ENDBRANCH  11  14
ENDBRANCH   6  10
BRANCH   3  24
ATOM     24  O   UNL     1      61.196  32.055  67.761  0.00  0.00    +0.000 OA
ATOM     25  H   UNL     1      60.854  31.992  66.852  0.00  0.00    +0.000 HD
ENDBRANCH   3  24
BRANCH   3  26
ATOM     26  C   UNL     1      59.240  30.738  67.827  0.00  0.00    +0.000 C 
ATOM     27  C   UNL     1      58.266  29.876  67.018  0.00  0.00    +0.000 C 
BRANCH  27  28
ATOM     28  C   UNL     1      57.295  29.013  66.208  0.00  0.00    +0.000 C 
ATOM     29  C   UNL     1      56.326  28.147  65.396  0.00  0.00    +0.000 C 
BRANCH  29  31
ATOM     30  O   UNL     1      54.280  27.673  64.372  0.00  0.00    +0.000 OA
ATOM     31  C   UNL     1      55.421  27.338  64.639  0.00  0.00    +0.000 C 
BRANCH  31  32
ATOM     32  O   UNL     1      55.940  26.163  64.241  0.00  0.00    +0.000 OA
ATOM     33  H   UNL     1      56.726  26.423  63.719  0.00  0.00    +0.000 HD
ENDBRANCH  31  32
ENDBRANCH  29  31
ENDBRANCH  27  28
ENDBRANCH   3  26
TORSDOF 8
ENDMDL
MODEL 2
REMARK VINA RESULT:      -5.4      1.645      2.389
REMARK  Name = 122178712_SalternamideA.pdbqt.pdb
REMARK  8 active torsions:
REMARK  status: ('A' for Active; 'I' for Inactive)
REMARK    1  A    between atoms: C_3  and  O_24
REMARK    2  A    between atoms: C_3  and  C_26
REMARK    3  A    between atoms: C_6  and  N_10
REMARK    4  A    between atoms: C_11  and  C_14
REMARK    5  A    between atoms: C_13  and  C_15
REMARK    6  A    between atoms: C_27  and  C_28
REMARK    7  A    between atoms: C_29  and  C_31
REMARK    8  A    between atoms: C_31  and  O_32
REMARK                            x       y       z     vdW  Elec       q    Type
REMARK                         _______ _______ _______ _____ _____    ______ ____
ROOT
ATOM      1 CL   UNL     1      60.332  31.603  73.499  0.00  0.00    +0.000 Cl
ATOM      2  O   UNL     1      58.721  34.303  73.268  0.00  0.00    +0.000 OA
ATOM      3  C   UNL     1      60.141  32.624  69.563  0.00  0.00    +0.000 C 
ATOM      4  C   UNL     1      59.326  33.818  69.842  0.00  0.00    +0.000 C 
ATOM      5  C   UNL     1      60.329  32.165  70.949  0.00  0.00    +0.000 C 
ATOM      6  C   UNL     1      58.834  34.449  70.869  0.00  0.00    +0.000 C 
ATOM      7  C   UNL     1      59.990  32.557  72.142  0.00  0.00    +0.000 C 
ATOM      8  C   UNL     1      59.145  33.813  72.229  0.00  0.00    +0.000 C 
ENDROOT
BRANCH   6  10
ATOM      9  O   UNL     1      57.545  35.729  68.579  0.00  0.00    +0.000 OA
ATOM     10  N   UNL     1      58.079  35.592  70.834  0.00  0.00    +0.000 N 
ATOM     11  C   UNL     1      57.494  36.151  69.725  0.00  0.00    +0.000 C 
ATOM     12  H   UNL     1      57.956  36.058  71.731  0.00  0.00    +0.000 HD
BRANCH  11  14
ATOM     13  C   UNL     1      56.124  38.368  70.181  0.00  0.00    +0.000 C 
ATOM     14  C   UNL     1      56.748  37.361  69.981  0.00  0.00    +0.000 C 
BRANCH  13  15
ATOM     15  C   UNL     1      55.384  39.554  70.410  0.00  0.00    +0.000 C 
ATOM     16  C   UNL     1      54.574  40.114  69.275  0.00  0.00    +0.000 C 
ATOM     17  C   UNL     1      55.389  40.284  71.615  0.00  0.00    +0.000 C 
ATOM     18  C   UNL     1      55.382  41.022  72.816  0.00  0.00    +0.000 C 
ATOM     19  C   UNL     1      55.842  40.324  74.062  0.00  0.00    +0.000 C 
ATOM     20  C   UNL     1      54.998  42.369  72.923  0.00  0.00    +0.000 C 
ATOM     21  C   UNL     1      54.653  43.607  73.022  0.00  0.00    +0.000 C 
ATOM     22  C   UNL     1      53.215  43.953  73.257  0.00  0.00    +0.000 C 
ATOM     23  C   UNL     1      55.606  44.669  72.569  0.00  0.00    +0.000 C 
ENDBRANCH  13  15
ENDBRANCH  11  14
ENDBRANCH   6  10
BRANCH   3  24
ATOM     24  O   UNL     1      61.388  33.023  69.033  0.00  0.00    +0.000 OA
ATOM     25  H   UNL     1      61.457  33.978  69.204  0.00  0.00    +0.000 HD
ENDBRANCH   3  24
BRANCH   3  26
ATOM     26  C   UNL     1      59.503  31.648  68.689  0.00  0.00    +0.000 C 
ATOM     27  C   UNL     1      58.830  30.620  67.776  0.00  0.00    +0.000 C 
BRANCH  27  28
ATOM     28  C   UNL     1      58.156  29.589  66.865  0.00  0.00    +0.000 C 
ATOM     29  C   UNL     1      57.479  28.557  65.958  0.00  0.00    +0.000 C 
BRANCH  29  31
ATOM     30  O   UNL     1      57.460  26.793  64.425  0.00  0.00    +0.000 OA
ATOM     31  C   UNL     1      56.847  27.594  65.109  0.00  0.00    +0.000 C 
BRANCH  31  32
ATOM     32  O   UNL     1      55.503  27.647  65.128  0.00  0.00    +0.000 OA
ATOM     33  H   UNL     1      55.304  28.569  64.865  0.00  0.00    +0.000 HD
ENDBRANCH  31  32
ENDBRANCH  29  31
ENDBRANCH  27  28
ENDBRANCH   3  26
TORSDOF 8
ENDMDL
MODEL 3
REMARK VINA RESULT:      -5.1     41.307     43.322
REMARK  Name = 122178712_SalternamideA.pdbqt.pdb
REMARK  8 active torsions:
REMARK  status: ('A' for Active; 'I' for Inactive)
REMARK    1  A    between atoms: C_3  and  O_24
REMARK    2  A    between atoms: C_3  and  C_26
REMARK    3  A    between atoms: C_6  and  N_10
REMARK    4  A    between atoms: C_11  and  C_14
REMARK    5  A    between atoms: C_13  and  C_15
REMARK    6  A    between atoms: C_27  and  C_28
REMARK    7  A    between atoms: C_29  and  C_31
REMARK    8  A    between atoms: C_31  and  O_32
REMARK                            x       y       z     vdW  Elec       q    Type
REMARK                         _______ _______ _______ _____ _____    ______ ____
ROOT
ATOM      1 CL   UNL     1      19.927  19.326  96.021  0.00  0.00    +0.000 Cl
ATOM      2  O   UNL     1      21.458  21.835  94.880  0.00  0.00    +0.000 OA
ATOM      3  C   UNL     1      21.655  18.253  92.494  0.00  0.00    +0.000 C 
ATOM      4  C   UNL     1      22.188  19.607  92.265  0.00  0.00    +0.000 C 
ATOM      5  C   UNL     1      21.022  18.491  93.802  0.00  0.00    +0.000 C 
ATOM      6  C   UNL     1      22.224  20.759  92.870  0.00  0.00    +0.000 C 
ATOM      7  C   UNL     1      20.892  19.480  94.637  0.00  0.00    +0.000 C 
ATOM      8  C   UNL     1      21.509  20.802  94.226  0.00  0.00    +0.000 C 
ENDROOT
BRANCH   6  10
ATOM      9  O   UNL     1      21.025  23.006  91.435  0.00  0.00    +0.000 OA
ATOM     10  N   UNL     1      22.822  21.901  92.404  0.00  0.00    +0.000 N 
ATOM     11  C   UNL     1      22.208  22.930  91.734  0.00  0.00    +0.000 C 
ATOM     12  H   UNL     1      23.822  21.970  92.582  0.00  0.00    +0.000 HD
BRANCH  11  14
ATOM     13  C   UNL     1      23.817  24.920  91.065  0.00  0.00    +0.000 C 
ATOM     14  C   UNL     1      23.084  24.016  91.362  0.00  0.00    +0.000 C 
BRANCH  13  15
ATOM     15  C   UNL     1      24.687  25.984  90.721  0.00  0.00    +0.000 C 
ATOM     16  C   UNL     1      24.091  27.212  90.094  0.00  0.00    +0.000 C 
ATOM     17  C   UNL     1      26.088  25.958  90.875  0.00  0.00    +0.000 C 
ATOM     18  C   UNL     1      27.489  25.948  91.026  0.00  0.00    +0.000 C 
ATOM     19  C   UNL     1      28.076  24.944  91.975  0.00  0.00    +0.000 C 
ATOM     20  C   UNL     1      28.373  26.792  90.335  0.00  0.00    +0.000 C 
ATOM     21  C   UNL     1      29.187  27.562  89.696  0.00  0.00    +0.000 C 
ATOM     22  C   UNL     1      29.526  28.905  90.263  0.00  0.00    +0.000 C 
ATOM     23  C   UNL     1      29.506  27.259  88.265  0.00  0.00    +0.000 C 
ENDBRANCH  13  15
ENDBRANCH  11  14
ENDBRANCH   6  10
BRANCH   3  24
ATOM     24  O   UNL     1      22.729  17.349  92.655  0.00  0.00    +0.000 OA
ATOM     25  H   UNL     1      23.492  17.887  92.927  0.00  0.00    +0.000 HD
ENDBRANCH   3  24
BRANCH   3  26
ATOM     26  C   UNL     1      20.741  17.783  91.462  0.00  0.00    +0.000 C 
ATOM     27  C   UNL     1      19.778  17.284  90.380  0.00  0.00    +0.000 C 
BRANCH  27  28
ATOM     28  C   UNL     1      18.813  16.783  89.302  0.00  0.00    +0.000 C 
ATOM     29  C   UNL     1      17.847  16.284  88.223  0.00  0.00    +0.000 C 
BRANCH  29  31
ATOM     30  O   UNL     1      17.023  14.718  86.697  0.00  0.00    +0.000 OA
ATOM     31  C   UNL     1      16.945  15.819  87.214  0.00  0.00    +0.000 C 
BRANCH  31  32
ATOM     32  O   UNL     1      15.993  16.708  86.879  0.00  0.00    +0.000 OA
ATOM     33  H   UNL     1      16.339  17.557  87.223  0.00  0.00    +0.000 HD
ENDBRANCH  31  32
ENDBRANCH  29  31
ENDBRANCH  27  28
ENDBRANCH   3  26
TORSDOF 8
ENDMDL
MODEL 4
REMARK VINA RESULT:      -5.1     62.668     65.339
REMARK  Name = 122178712_SalternamideA.pdbqt.pdb
REMARK  8 active torsions:
REMARK  status: ('A' for Active; 'I' for Inactive)
REMARK    1  A    between atoms: C_3  and  O_24
REMARK    2  A    between atoms: C_3  and  C_26
REMARK    3  A    between atoms: C_6  and  N_10
REMARK    4  A    between atoms: C_11  and  C_14
REMARK    5  A    between atoms: C_13  and  C_15
REMARK    6  A    between atoms: C_27  and  C_28
REMARK    7  A    between atoms: C_29  and  C_31
REMARK    8  A    between atoms: C_31  and  O_32
REMARK                            x       y       z     vdW  Elec       q    Type
REMARK                         _______ _______ _______ _____ _____    ______ ____
ROOT
ATOM      1 CL   UNL     1       2.214  16.105  94.794  0.00  0.00    +0.000 Cl
ATOM      2  O   UNL     1       1.638  13.207  95.894  0.00  0.00    +0.000 OA
ATOM      3  C   UNL     1       5.775  14.402  95.792  0.00  0.00    +0.000 C 
ATOM      4  C   UNL     1       5.129  13.173  96.279  0.00  0.00    +0.000 C 
ATOM      5  C   UNL     1       4.568  15.116  95.344  0.00  0.00    +0.000 C 
ATOM      6  C   UNL     1       3.933  12.666  96.370  0.00  0.00    +0.000 C 
ATOM      7  C   UNL     1       3.288  14.892  95.292  0.00  0.00    +0.000 C 
ATOM      8  C   UNL     1       2.807  13.565  95.844  0.00  0.00    +0.000 C 
ENDROOT
BRANCH   6  10
ATOM      9  O   UNL     1       3.235  11.960  99.120  0.00  0.00    +0.000 OA
ATOM     10  N   UNL     1       3.609  11.440  96.889  0.00  0.00    +0.000 N 
ATOM     11  C   UNL     1       3.286  11.163  98.194  0.00  0.00    +0.000 C 
ATOM     12  H   UNL     1       3.616  10.671  96.221  0.00  0.00    +0.000 HD
BRANCH  11  14
ATOM     13  C   UNL     1       2.738   8.624  98.694  0.00  0.00    +0.000 C 
ATOM     14  C   UNL     1       2.983   9.777  98.461  0.00  0.00    +0.000 C 
BRANCH  13  15
ATOM     15  C   UNL     1       2.449   7.267  98.977  0.00  0.00    +0.000 C 
ATOM     16  C   UNL     1       2.657   6.777 100.382  0.00  0.00    +0.000 C 
ATOM     17  C   UNL     1       2.026   6.319  98.024  0.00  0.00    +0.000 C 
ATOM     18  C   UNL     1       1.599   5.362  97.082  0.00  0.00    +0.000 C 
ATOM     19  C   UNL     1       1.017   5.868  95.795  0.00  0.00    +0.000 C 
ATOM     20  C   UNL     1       1.703   3.972  97.253  0.00  0.00    +0.000 C 
ATOM     21  C   UNL     1       1.804   2.695  97.405  0.00  0.00    +0.000 C 
ATOM     22  C   UNL     1       0.700   1.946  98.085  0.00  0.00    +0.000 C 
ATOM     23  C   UNL     1       3.138   2.041  97.218  0.00  0.00    +0.000 C 
ENDBRANCH  13  15
ENDBRANCH  11  14
ENDBRANCH   6  10
BRANCH   3  24
ATOM     24  O   UNL     1       6.577  14.096  94.670  0.00  0.00    +0.000 OA
ATOM     25  H   UNL     1       7.419  13.764  95.027  0.00  0.00    +0.000 HD
ENDBRANCH   3  24
BRANCH   3  26
ATOM     26  C   UNL     1       6.554  15.113  96.798  0.00  0.00    +0.000 C 
ATOM     27  C   UNL     1       7.370  15.866  97.853  0.00  0.00    +0.000 C 
BRANCH  27  28
ATOM     28  C   UNL     1       8.185  16.622  98.907  0.00  0.00    +0.000 C 
ATOM     29  C   UNL     1       9.002  17.376  99.960  0.00  0.00    +0.000 C 
BRANCH  29  31
ATOM     30  O   UNL     1       9.852  17.730 102.108  0.00  0.00    +0.000 OA
ATOM     31  C   UNL     1       9.766  18.081 100.944  0.00  0.00    +0.000 C 
BRANCH  31  32
ATOM     32  O   UNL     1      10.388  19.175 100.471  0.00  0.00    +0.000 OA
ATOM     33  H   UNL     1      10.806  18.864  99.642  0.00  0.00    +0.000 HD
ENDBRANCH  31  32
ENDBRANCH  29  31
ENDBRANCH  27  28
ENDBRANCH   3  26
TORSDOF 8
ENDMDL
MODEL 5
REMARK VINA RESULT:      -5.0     15.493     19.798
REMARK  Name = 122178712_SalternamideA.pdbqt.pdb
REMARK  8 active torsions:
REMARK  status: ('A' for Active; 'I' for Inactive)
REMARK    1  A    between atoms: C_3  and  O_24
REMARK    2  A    between atoms: C_3  and  C_26
REMARK    3  A    between atoms: C_6  and  N_10
REMARK    4  A    between atoms: C_11  and  C_14
REMARK    5  A    between atoms: C_13  and  C_15
REMARK    6  A    between atoms: C_27  and  C_28
REMARK    7  A    between atoms: C_29  and  C_31
REMARK    8  A    between atoms: C_31  and  O_32
REMARK                            x       y       z     vdW  Elec       q    Type
REMARK                         _______ _______ _______ _____ _____    ______ ____
ROOT
ATOM      1 CL   UNL     1      48.691  39.661  86.257  0.00  0.00    +0.000 Cl
ATOM      2  O   UNL     1      48.277  39.974  83.147  0.00  0.00    +0.000 OA
ATOM      3  C   UNL     1      46.016  36.840  85.050  0.00  0.00    +0.000 C 
ATOM      4  C   UNL     1      46.044  37.312  83.656  0.00  0.00    +0.000 C 
ATOM      5  C   UNL     1      47.006  37.774  85.612  0.00  0.00    +0.000 C 
ATOM      6  C   UNL     1      46.657  38.209  82.938  0.00  0.00    +0.000 C 
ATOM      7  C   UNL     1      47.766  38.737  85.180  0.00  0.00    +0.000 C 
ATOM      8  C   UNL     1      47.654  39.082  83.708  0.00  0.00    +0.000 C 
ENDROOT
BRANCH   6  10
ATOM      9  O   UNL     1      48.231  37.214  80.685  0.00  0.00    +0.000 OA
ATOM     10  N   UNL     1      46.481  38.434  81.598  0.00  0.00    +0.000 N 
ATOM     11  C   UNL     1      47.253  37.939  80.577  0.00  0.00    +0.000 C 
ATOM     12  H   UNL     1      45.693  39.034  81.360  0.00  0.00    +0.000 HD
BRANCH  11  14
ATOM     13  C   UNL     1      46.491  38.658  78.148  0.00  0.00    +0.000 C 
ATOM     14  C   UNL     1      46.833  38.337  79.254  0.00  0.00    +0.000 C 
BRANCH  13  15
ATOM     15  C   UNL     1      46.086  39.028  76.842  0.00  0.00    +0.000 C 
ATOM     16  C   UNL     1      46.310  40.449  76.407  0.00  0.00    +0.000 C 
ATOM     17  C   UNL     1      45.437  38.173  75.929  0.00  0.00    +0.000 C 
ATOM     18  C   UNL     1      44.790  37.328  75.005  0.00  0.00    +0.000 C 
ATOM     19  C   UNL     1      44.892  35.848  75.230  0.00  0.00    +0.000 C 
ATOM     20  C   UNL     1      44.039  37.774  73.905  0.00  0.00    +0.000 C 
ATOM     21  C   UNL     1      43.344  38.182  72.899  0.00  0.00    +0.000 C 
ATOM     22  C   UNL     1      44.025  38.443  71.591  0.00  0.00    +0.000 C 
ATOM     23  C   UNL     1      41.961  38.708  73.133  0.00  0.00    +0.000 C 
ENDBRANCH  13  15
ENDBRANCH  11  14
ENDBRANCH   6  10
BRANCH   3  24
ATOM     24  O   UNL     1      46.531  35.526  85.109  0.00  0.00    +0.000 OA
ATOM     25  H   UNL     1      46.276  35.101  84.273  0.00  0.00    +0.000 HD
ENDBRANCH   3  24
BRANCH   3  26
ATOM     26  C   UNL     1      44.704  36.904  85.682  0.00  0.00    +0.000 C 
ATOM     27  C   UNL     1      43.327  36.977  86.348  0.00  0.00    +0.000 C 
BRANCH  27  28
ATOM     28  C   UNL     1      41.951  37.054  87.014  0.00  0.00    +0.000 C 
ATOM     29  C   UNL     1      40.575  37.133  87.682  0.00  0.00    +0.000 C 
BRANCH  29  31
ATOM     30  O   UNL     1      39.108  37.659  89.424  0.00  0.00    +0.000 OA
ATOM     31  C   UNL     1      39.289  37.208  88.306  0.00  0.00    +0.000 C 
BRANCH  31  32
ATOM     32  O   UNL     1      38.284  36.734  87.547  0.00  0.00    +0.000 OA
ATOM     33  H   UNL     1      38.021  37.506  87.004  0.00  0.00    +0.000 HD
ENDBRANCH  31  32
ENDBRANCH  29  31
ENDBRANCH  27  28
ENDBRANCH   3  26
TORSDOF 8
ENDMDL
MODEL 6
REMARK VINA RESULT:      -4.9     23.503     25.079
REMARK  Name = 122178712_SalternamideA.pdbqt.pdb
REMARK  8 active torsions:
REMARK  status: ('A' for Active; 'I' for Inactive)
REMARK    1  A    between atoms: C_3  and  O_24
REMARK    2  A    between atoms: C_3  and  C_26
REMARK    3  A    between atoms: C_6  and  N_10
REMARK    4  A    between atoms: C_11  and  C_14
REMARK    5  A    between atoms: C_13  and  C_15
REMARK    6  A    between atoms: C_27  and  C_28
REMARK    7  A    between atoms: C_29  and  C_31
REMARK    8  A    between atoms: C_31  and  O_32
REMARK                            x       y       z     vdW  Elec       q    Type
REMARK                         _______ _______ _______ _____ _____    ______ ____
ROOT
ATOM      1 CL   UNL     1      47.533  23.895  88.342  0.00  0.00    +0.000 Cl
ATOM      2  O   UNL     1      45.666  25.782  90.044  0.00  0.00    +0.000 OA
ATOM      3  C   UNL     1      45.804  26.576  85.812  0.00  0.00    +0.000 C 
ATOM      4  C   UNL     1      45.024  27.197  86.894  0.00  0.00    +0.000 C 
ATOM      5  C   UNL     1      46.535  25.584  86.618  0.00  0.00    +0.000 C 
ATOM      6  C   UNL     1      44.877  27.087  88.183  0.00  0.00    +0.000 C 
ATOM      7  C   UNL     1      46.616  25.239  87.869  0.00  0.00    +0.000 C 
ATOM      8  C   UNL     1      45.731  25.996  88.840  0.00  0.00    +0.000 C 
ENDROOT
BRANCH   6  10
ATOM      9  O   UNL     1      42.077  26.604  88.872  0.00  0.00    +0.000 OA
ATOM     10  N   UNL     1      44.043  27.835  88.972  0.00  0.00    +0.000 N 
ATOM     11  C   UNL     1      42.730  27.560  89.265  0.00  0.00    +0.000 C 
ATOM     12  H   UNL     1      44.460  28.675  89.368  0.00  0.00    +0.000 HD
BRANCH  11  14
ATOM     13  C   UNL     1      41.549  29.314  90.854  0.00  0.00    +0.000 C 
ATOM     14  C   UNL     1      42.090  28.523  90.129  0.00  0.00    +0.000 C 
BRANCH  13  15
ATOM     15  C   UNL     1      40.912  30.241  91.715  0.00  0.00    +0.000 C 
ATOM     16  C   UNL     1      41.774  31.074  92.621  0.00  0.00    +0.000 C 
ATOM     17  C   UNL     1      39.517  30.408  91.824  0.00  0.00    +0.000 C 
ATOM     18  C   UNL     1      38.124  30.589  91.942  0.00  0.00    +0.000 C 
ATOM     19  C   UNL     1      37.263  30.085  90.821  0.00  0.00    +0.000 C 
ATOM     20  C   UNL     1      37.486  31.183  93.043  0.00  0.00    +0.000 C 
ATOM     21  C   UNL     1      36.898  31.723  94.056  0.00  0.00    +0.000 C 
ATOM     22  C   UNL     1      36.700  33.207  94.086  0.00  0.00    +0.000 C 
ATOM     23  C   UNL     1      36.734  30.927  95.314  0.00  0.00    +0.000 C 
ENDBRANCH  13  15
ENDBRANCH  11  14
ENDBRANCH   6  10
BRANCH   3  24
ATOM     24  O   UNL     1      46.719  27.519  85.294  0.00  0.00    +0.000 OA
ATOM     25  H   UNL     1      46.221  28.349  85.198  0.00  0.00    +0.000 HD
ENDBRANCH   3  24
BRANCH   3  26
ATOM     26  C   UNL     1      44.999  26.002  84.740  0.00  0.00    +0.000 C 
ATOM     27  C   UNL     1      44.149  25.403  83.616  0.00  0.00    +0.000 C 
BRANCH  27  28
ATOM     28  C   UNL     1      43.296  24.807  82.493  0.00  0.00    +0.000 C 
ATOM     29  C   UNL     1      42.445  24.209  81.369  0.00  0.00    +0.000 C 
BRANCH  29  31
ATOM     30  O   UNL     1      40.852  22.744  80.489  0.00  0.00    +0.000 OA
ATOM     31  C   UNL     1      41.649  23.650  80.319  0.00  0.00    +0.000 C 
BRANCH  31  32
ATOM     32  O   UNL     1      41.858  24.213  79.115  0.00  0.00    +0.000 OA
ATOM     33  H   UNL     1      42.759  23.915  78.874  0.00  0.00    +0.000 HD
ENDBRANCH  31  32
ENDBRANCH  29  31
ENDBRANCH  27  28
ENDBRANCH   3  26
TORSDOF 8
ENDMDL
MODEL 7
REMARK VINA RESULT:      -4.8     15.266     19.582
REMARK  Name = 122178712_SalternamideA.pdbqt.pdb
REMARK  8 active torsions:
REMARK  status: ('A' for Active; 'I' for Inactive)
REMARK    1  A    between atoms: C_3  and  O_24
REMARK    2  A    between atoms: C_3  and  C_26
REMARK    3  A    between atoms: C_6  and  N_10
REMARK    4  A    between atoms: C_11  and  C_14
REMARK    5  A    between atoms: C_13  and  C_15
REMARK    6  A    between atoms: C_27  and  C_28
REMARK    7  A    between atoms: C_29  and  C_31
REMARK    8  A    between atoms: C_31  and  O_32
REMARK                            x       y       z     vdW  Elec       q    Type
REMARK                         _______ _______ _______ _____ _____    ______ ____
ROOT
ATOM      1 CL   UNL     1      48.668  39.746  86.304  0.00  0.00    +0.000 Cl
ATOM      2  O   UNL     1      48.271  39.939  83.181  0.00  0.00    +0.000 OA
ATOM      3  C   UNL     1      46.049  36.838  85.183  0.00  0.00    +0.000 C 
ATOM      4  C   UNL     1      46.079  37.259  83.772  0.00  0.00    +0.000 C 
ATOM      5  C   UNL     1      47.019  37.808  85.717  0.00  0.00    +0.000 C 
ATOM      6  C   UNL     1      46.682  38.140  83.027  0.00  0.00    +0.000 C 
ATOM      7  C   UNL     1      47.766  38.768  85.255  0.00  0.00    +0.000 C 
ATOM      8  C   UNL     1      47.659  39.058  83.771  0.00  0.00    +0.000 C 
ENDROOT
BRANCH   6  10
ATOM      9  O   UNL     1      48.351  37.184  80.826  0.00  0.00    +0.000 OA
ATOM     10  N   UNL     1      46.512  38.314  81.678  0.00  0.00    +0.000 N 
ATOM     11  C   UNL     1      47.330  37.840  80.683  0.00  0.00    +0.000 C 
ATOM     12  H   UNL     1      45.691  38.854  81.411  0.00  0.00    +0.000 HD
BRANCH  11  14
ATOM     13  C   UNL     1      46.544  38.456  78.233  0.00  0.00    +0.000 C 
ATOM     14  C   UNL     1      46.905  38.171  79.343  0.00  0.00    +0.000 C 
BRANCH  13  15
ATOM     15  C   UNL     1      46.117  38.800  76.927  0.00  0.00    +0.000 C 
ATOM     16  C   UNL     1      45.671  37.693  76.014  0.00  0.00    +0.000 C 
ATOM     17  C   UNL     1      46.128  40.105  76.396  0.00  0.00    +0.000 C 
ATOM     18  C   UNL     1      46.130  41.405  75.852  0.00  0.00    +0.000 C 
ATOM     19  C   UNL     1      46.190  42.557  76.812  0.00  0.00    +0.000 C 
ATOM     20  C   UNL     1      46.106  41.697  74.479  0.00  0.00    +0.000 C 
ATOM     21  C   UNL     1      46.089  41.966  73.218  0.00  0.00    +0.000 C 
ATOM     22  C   UNL     1      44.776  42.094  72.509  0.00  0.00    +0.000 C 
ATOM     23  C   UNL     1      47.348  41.811  72.422  0.00  0.00    +0.000 C 
ENDBRANCH  13  15
ENDBRANCH  11  14
ENDBRANCH   6  10
BRANCH   3  24
ATOM     24  O   UNL     1      46.586  35.536  85.293  0.00  0.00    +0.000 OA
ATOM     25  H   UNL     1      46.343  35.077  84.471  0.00  0.00    +0.000 HD
ENDBRANCH   3  24
BRANCH   3  26
ATOM     26  C   UNL     1      44.732  36.902  85.803  0.00  0.00    +0.000 C 
ATOM     27  C   UNL     1      43.349  36.976  86.457  0.00  0.00    +0.000 C 
BRANCH  27  28
ATOM     28  C   UNL     1      41.967  37.054  87.111  0.00  0.00    +0.000 C 
ATOM     29  C   UNL     1      40.585  37.134  87.767  0.00  0.00    +0.000 C 
BRANCH  29  31
ATOM     30  O   UNL     1      39.099  37.685  89.484  0.00  0.00    +0.000 OA
ATOM     31  C   UNL     1      39.293  37.210  88.379  0.00  0.00    +0.000 C 
BRANCH  31  32
ATOM     32  O   UNL     1      38.300  36.707  87.624  0.00  0.00    +0.000 OA
ATOM     33  H   UNL     1      38.033  37.462  87.061  0.00  0.00    +0.000 HD
ENDBRANCH  31  32
ENDBRANCH  29  31
ENDBRANCH  27  28
ENDBRANCH   3  26
TORSDOF 8
ENDMDL
MODEL 8
REMARK VINA RESULT:      -4.8     64.192     67.227
REMARK  Name = 122178712_SalternamideA.pdbqt.pdb
REMARK  8 active torsions:
REMARK  status: ('A' for Active; 'I' for Inactive)
REMARK    1  A    between atoms: C_3  and  O_24
REMARK    2  A    between atoms: C_3  and  C_26
REMARK    3  A    between atoms: C_6  and  N_10
REMARK    4  A    between atoms: C_11  and  C_14
REMARK    5  A    between atoms: C_13  and  C_15
REMARK    6  A    between atoms: C_27  and  C_28
REMARK    7  A    between atoms: C_29  and  C_31
REMARK    8  A    between atoms: C_31  and  O_32
REMARK                            x       y       z     vdW  Elec       q    Type
REMARK                         _______ _______ _______ _____ _____    ______ ____
ROOT
ATOM      1 CL   UNL     1      -1.087   9.259  99.689  0.00  0.00    +0.000 Cl
ATOM      2  O   UNL     1      -0.050   6.622  98.306  0.00  0.00    +0.000 OA
ATOM      3  C   UNL     1       0.683  10.291  96.171  0.00  0.00    +0.000 C 
ATOM      4  C   UNL     1       1.059   8.899  95.873  0.00  0.00    +0.000 C 
ATOM      5  C   UNL     1      -0.028  10.054  97.438  0.00  0.00    +0.000 C 
ATOM      6  C   UNL     1       0.911   7.713  96.390  0.00  0.00    +0.000 C 
ATOM      7  C   UNL     1      -0.341   9.036  98.184  0.00  0.00    +0.000 C 
ATOM      8  C   UNL     1       0.136   7.676  97.713  0.00  0.00    +0.000 C 
ENDROOT
BRANCH   6  10
ATOM      9  O   UNL     1      -0.062   6.195  94.090  0.00  0.00    +0.000 OA
ATOM     10  N   UNL     1       1.386   6.537  95.871  0.00  0.00    +0.000 N 
ATOM     11  C   UNL     1       0.889   5.864  94.783  0.00  0.00    +0.000 C 
ATOM     12  H   UNL     1       2.187   6.140  96.360  0.00  0.00    +0.000 HD
BRANCH  11  14
ATOM     13  C   UNL     1       2.186   3.639  94.179  0.00  0.00    +0.000 C 
ATOM     14  C   UNL     1       1.591   4.646  94.454  0.00  0.00    +0.000 C 
BRANCH  13  15
ATOM     15  C   UNL     1       2.895   2.455  93.859  0.00  0.00    +0.000 C 
ATOM     16  C   UNL     1       2.973   1.374  94.900  0.00  0.00    +0.000 C 
ATOM     17  C   UNL     1       3.581   2.231  92.649  0.00  0.00    +0.000 C 
ATOM     18  C   UNL     1       4.269   1.992  91.443  0.00  0.00    +0.000 C 
ATOM     19  C   UNL     1       3.908   2.841  90.259  0.00  0.00    +0.000 C 
ATOM     20  C   UNL     1       5.283   1.035  91.277  0.00  0.00    +0.000 C 
ATOM     21  C   UNL     1       6.218   0.160  91.126  0.00  0.00    +0.000 C 
ATOM     22  C   UNL     1       5.859  -1.243  90.745  0.00  0.00    +0.000 C 
ATOM     23  C   UNL     1       7.587   0.457  91.654  0.00  0.00    +0.000 C 
ENDBRANCH  13  15
ENDBRANCH  11  14
ENDBRANCH   6  10
BRANCH   3  24
ATOM     24  O   UNL     1      -0.237  10.745  95.200  0.00  0.00    +0.000 OA
ATOM     25  H   UNL     1      -1.117  10.496  95.529  0.00  0.00    +0.000 HD
ENDBRANCH   3  24
BRANCH   3  26
ATOM     26  C   UNL     1       1.809  11.210  96.278  0.00  0.00    +0.000 C 
ATOM     27  C   UNL     1       2.989  12.180  96.390  0.00  0.00    +0.000 C 
BRANCH  27  28
ATOM     28  C   UNL     1       4.166  13.154  96.501  0.00  0.00    +0.000 C 
ATOM     29  C   UNL     1       5.345  14.125  96.613  0.00  0.00    +0.000 C 
BRANCH  29  31
ATOM     30  O   UNL     1       7.102  15.182  97.732  0.00  0.00    +0.000 OA
ATOM     31  C   UNL     1       6.447  15.032  96.716  0.00  0.00    +0.000 C 
BRANCH  31  32
ATOM     32  O   UNL     1       6.701  15.714  95.585  0.00  0.00    +0.000 OA
ATOM     33  H   UNL     1       6.128  15.280  94.920  0.00  0.00    +0.000 HD
ENDBRANCH  31  32
ENDBRANCH  29  31
ENDBRANCH  27  28
ENDBRANCH   3  26
TORSDOF 8
ENDMDL
MODEL 9
REMARK VINA RESULT:      -4.8     17.022     20.373
REMARK  Name = 122178712_SalternamideA.pdbqt.pdb
REMARK  8 active torsions:
REMARK  status: ('A' for Active; 'I' for Inactive)
REMARK    1  A    between atoms: C_3  and  O_24
REMARK    2  A    between atoms: C_3  and  C_26
REMARK    3  A    between atoms: C_6  and  N_10
REMARK    4  A    between atoms: C_11  and  C_14
REMARK    5  A    between atoms: C_13  and  C_15
REMARK    6  A    between atoms: C_27  and  C_28
REMARK    7  A    between atoms: C_29  and  C_31
REMARK    8  A    between atoms: C_31  and  O_32
REMARK                            x       y       z     vdW  Elec       q    Type
REMARK                         _______ _______ _______ _____ _____    ______ ____
ROOT
ATOM      1 CL   UNL     1      43.436  22.195  67.420  0.00  0.00    +0.000 Cl
ATOM      2  O   UNL     1      41.656  21.907  70.007  0.00  0.00    +0.000 OA
ATOM      3  C   UNL     1      45.431  23.918  70.522  0.00  0.00    +0.000 C 
ATOM      4  C   UNL     1      44.334  23.650  71.466  0.00  0.00    +0.000 C 
ATOM      5  C   UNL     1      44.845  23.288  69.328  0.00  0.00    +0.000 C 
ATOM      6  C   UNL     1      43.171  23.065  71.474  0.00  0.00    +0.000 C 
ATOM      7  C   UNL     1      43.757  22.644  69.021  0.00  0.00    +0.000 C 
ATOM      8  C   UNL     1      42.739  22.465  70.131  0.00  0.00    +0.000 C 
ENDROOT
BRANCH   6  10
ATOM      9  O   UNL     1      40.941  24.794  72.239  0.00  0.00    +0.000 OA
ATOM     10  N   UNL     1      42.325  22.956  72.547  0.00  0.00    +0.000 N 
ATOM     11  C   UNL     1      41.288  23.800  72.860  0.00  0.00    +0.000 C 
ATOM     12  H   UNL     1      42.504  22.163  73.160  0.00  0.00    +0.000 HD
BRANCH  11  14
ATOM     13  C   UNL     1      39.937  23.151  75.039  0.00  0.00    +0.000 C 
ATOM     14  C   UNL     1      40.556  23.441  74.051  0.00  0.00    +0.000 C 
BRANCH  13  15
ATOM     15  C   UNL     1      39.200  22.809  76.200  0.00  0.00    +0.000 C 
ATOM     16  C   UNL     1      37.739  23.156  76.238  0.00  0.00    +0.000 C 
ATOM     17  C   UNL     1      39.747  22.210  77.352  0.00  0.00    +0.000 C 
ATOM     18  C   UNL     1      40.280  21.608  78.509  0.00  0.00    +0.000 C 
ATOM     19  C   UNL     1      41.600  20.906  78.380  0.00  0.00    +0.000 C 
ATOM     20  C   UNL     1      39.676  21.640  79.777  0.00  0.00    +0.000 C 
ATOM     21  C   UNL     1      39.125  21.674  80.942  0.00  0.00    +0.000 C 
ATOM     22  C   UNL     1      38.137  20.615  81.320  0.00  0.00    +0.000 C 
ATOM     23  C   UNL     1      39.215  22.928  81.755  0.00  0.00    +0.000 C 
ENDBRANCH  13  15
ENDBRANCH  11  14
ENDBRANCH   6  10
BRANCH   3  24
ATOM     24  O   UNL     1      46.577  23.192  70.917  0.00  0.00    +0.000 OA
ATOM     25  H   UNL     1      47.212  23.852  71.243  0.00  0.00    +0.000 HD
ENDBRANCH   3  24
BRANCH   3  26
ATOM     26  C   UNL     1      45.753  25.331  70.358  0.00  0.00    +0.000 C 
ATOM     27  C   UNL     1      46.088  26.814  70.180  0.00  0.00    +0.000 C 
BRANCH  27  28
ATOM     28  C   UNL     1      46.421  28.298  69.999  0.00  0.00    +0.000 C 
ATOM     29  C   UNL     1      46.751  29.783  69.819  0.00  0.00    +0.000 C 
BRANCH  29  31
ATOM     30  O   UNL     1      47.566  31.631  68.644  0.00  0.00    +0.000 OA
ATOM     31  C   UNL     1      47.060  31.170  69.652  0.00  0.00    +0.000 C 
BRANCH  31  32
ATOM     32  O   UNL     1      46.743  31.933  70.714  0.00  0.00    +0.000 OA
ATOM     33  H   UNL     1      45.784  32.096  70.603  0.00  0.00    +0.000 HD
ENDBRANCH  31  32
ENDBRANCH  29  31
ENDBRANCH  27  28
ENDBRANCH   3  26
TORSDOF 8
ENDMDL
