MODEL 1
REMARK VINA RESULT:      -6.5      0.000      0.000
REMARK  Name = 135423438_Nintedanib.pdbqt.pdb
REMARK  9 active torsions:
REMARK  status: ('A' for Active; 'I' for Inactive)
REMARK    1  A    between atoms: N_1  and  C_22
REMARK    2  A    between atoms: C_2  and  C_4
REMARK    3  A    between atoms: C_2  and  C_37
REMARK    4  A    between atoms: C_7  and  O_13
REMARK    5  A    between atoms: C_10  and  C_16
REMARK    6  A    between atoms: C_16  and  O_17
REMARK    7  A    between atoms: C_19  and  N_26
REMARK    8  A    between atoms: C_27  and  C_29
REMARK    9  A    between atoms: C_29  and  N_30
REMARK                            x       y       z     vdW  Elec       q    Type
REMARK                         _______ _______ _______ _____ _____    ______ ____
ROOT
ATOM      1  N   UNL     1      63.007  36.170  76.739  0.00  0.00    +0.000 NA
ATOM      2  C   UNL     1      62.078  35.879  75.874  0.00  0.00    +0.000 C 
ENDROOT
BRANCH   2   4
ATOM      3  N   UNL     1      59.302  38.247  75.550  0.00  0.00    +0.000 N 
ATOM      4  C   UNL     1      60.847  36.677  75.938  0.00  0.00    +0.000 A 
ATOM      5  C   UNL     1      59.724  36.465  76.813  0.00  0.00    +0.000 A 
ATOM      6  C   UNL     1      58.782  37.456  76.544  0.00  0.00    +0.000 A 
ATOM      7  C   UNL     1      60.543  37.798  75.176  0.00  0.00    +0.000 A 
ATOM      8  C   UNL     1      59.421  35.512  77.807  0.00  0.00    +0.000 A 
ATOM      9  C   UNL     1      57.559  37.549  77.216  0.00  0.00    +0.000 A 
ATOM     10  C   UNL     1      57.289  36.590  78.201  0.00  0.00    +0.000 A 
ATOM     11  C   UNL     1      58.206  35.585  78.491  0.00  0.00    +0.000 A 
ATOM     12  H   UNL     1      58.828  39.049  75.161  0.00  0.00    +0.000 HD
BRANCH   7  13
ATOM     13  O   UNL     1      61.249  38.420  74.238  0.00  0.00    +0.000 OA
ATOM     14  H   UNL     1      61.448  37.817  73.500  0.00  0.00    +0.000 HD
ENDBRANCH   7  13
BRANCH  10  16
ATOM     15  O   UNL     1      55.034  37.222  78.585  0.00  0.00    +0.000 OA
ATOM     16  C   UNL     1      56.022  36.609  78.963  0.00  0.00    +0.000 C 
BRANCH  16  17
ATOM     17  O   UNL     1      56.178  35.855  80.088  0.00  0.00    +0.000 OA
ATOM     18  C   UNL     1      56.392  36.519  81.307  0.00  0.00    +0.000 C 
ENDBRANCH  16  17
ENDBRANCH  10  16
ENDBRANCH   2   4
BRANCH   1  22
ATOM     19  C   UNL     1      66.654  34.037  76.956  0.00  0.00    +0.000 A 
ATOM     20  C   UNL     1      66.587  35.316  76.397  0.00  0.00    +0.000 A 
ATOM     21  C   UNL     1      65.460  33.488  77.441  0.00  0.00    +0.000 A 
ATOM     22  C   UNL     1      64.202  35.443  76.779  0.00  0.00    +0.000 A 
ATOM     23  C   UNL     1      65.385  36.018  76.316  0.00  0.00    +0.000 A 
ATOM     24  C   UNL     1      64.252  34.180  77.367  0.00  0.00    +0.000 A 
BRANCH  19  26
ATOM     25  O   UNL     1      68.270  33.736  79.338  0.00  0.00    +0.000 OA
ATOM     26  N   UNL     1      67.897  33.302  77.035  0.00  0.00    +0.000 N 
ATOM     27  C   UNL     1      68.594  33.232  78.267  0.00  0.00    +0.000 C 
ATOM     28  C   UNL     1      68.337  32.683  75.782  0.00  0.00    +0.000 C 
BRANCH  27  29
ATOM     29  C   UNL     1      69.842  32.481  78.267  0.00  0.00    +0.000 C 
BRANCH  29  30
ATOM     30  N   UNL     1      71.085  31.713  78.291  0.00  0.00    +0.000 N 
ATOM     31  N   UNL     1      70.932  28.620  80.027  0.00  0.00    +0.000 N 
ATOM     32  C   UNL     1      71.340  31.353  79.713  0.00  0.00    +0.000 C 
ATOM     33  C   UNL     1      70.738  30.335  77.844  0.00  0.00    +0.000 C 
ATOM     34  C   UNL     1      71.270  29.998  80.475  0.00  0.00    +0.000 C 
ATOM     35  C   UNL     1      70.668  28.979  78.607  0.00  0.00    +0.000 C 
ATOM     36  C   UNL     1      69.646  28.286  80.624  0.00  0.00    +0.000 C 
ENDBRANCH  29  30
ENDBRANCH  27  29
ENDBRANCH  19  26
ENDBRANCH   1  22
BRANCH   2  37
ATOM     37  C   UNL     1      62.176  34.818  74.856  0.00  0.00    +0.000 A 
ATOM     38  C   UNL     1      62.918  35.045  73.698  0.00  0.00    +0.000 A 
ATOM     39  C   UNL     1      61.550  33.595  75.088  0.00  0.00    +0.000 A 
ATOM     40  C   UNL     1      63.027  34.029  72.754  0.00  0.00    +0.000 A 
ATOM     41  C   UNL     1      61.664  32.586  74.137  0.00  0.00    +0.000 A 
ATOM     42  C   UNL     1      62.401  32.802  72.973  0.00  0.00    +0.000 A 
ENDBRANCH   2  37
TORSDOF 9
ENDMDL
MODEL 2
REMARK VINA RESULT:      -6.2     19.984     26.511
REMARK  Name = 135423438_Nintedanib.pdbqt.pdb
REMARK  9 active torsions:
REMARK  status: ('A' for Active; 'I' for Inactive)
REMARK    1  A    between atoms: N_1  and  C_22
REMARK    2  A    between atoms: C_2  and  C_4
REMARK    3  A    between atoms: C_2  and  C_37
REMARK    4  A    between atoms: C_7  and  O_13
REMARK    5  A    between atoms: C_10  and  C_16
REMARK    6  A    between atoms: C_16  and  O_17
REMARK    7  A    between atoms: C_19  and  N_26
REMARK    8  A    between atoms: C_27  and  C_29
REMARK    9  A    between atoms: C_29  and  N_30
REMARK                            x       y       z     vdW  Elec       q    Type
REMARK                         _______ _______ _______ _____ _____    ______ ____
ROOT
ATOM      1  N   UNL     1      44.403  24.106  84.232  0.00  0.00    +0.000 NA
ATOM      2  C   UNL     1      44.819  25.294  84.566  0.00  0.00    +0.000 C 
ENDROOT
BRANCH   2   4
ATOM      3  N   UNL     1      48.473  25.518  84.425  0.00  0.00    +0.000 N 
ATOM      4  C   UNL     1      46.264  25.450  84.774  0.00  0.00    +0.000 A 
ATOM      5  C   UNL     1      46.930  25.782  86.006  0.00  0.00    +0.000 A 
ATOM      6  C   UNL     1      48.300  25.818  85.753  0.00  0.00    +0.000 A 
ATOM      7  C   UNL     1      47.262  25.289  83.821  0.00  0.00    +0.000 A 
ATOM      8  C   UNL     1      46.488  26.063  87.315  0.00  0.00    +0.000 A 
ATOM      9  C   UNL     1      49.250  26.114  86.737  0.00  0.00    +0.000 A 
ATOM     10  C   UNL     1      48.778  26.384  88.028  0.00  0.00    +0.000 A 
ATOM     11  C   UNL     1      47.418  26.360  88.313  0.00  0.00    +0.000 A 
ATOM     12  H   UNL     1      49.372  25.470  83.970  0.00  0.00    +0.000 HD
BRANCH   7  13
ATOM     13  O   UNL     1      47.182  24.964  82.535  0.00  0.00    +0.000 OA
ATOM     14  H   UNL     1      46.649  25.616  82.047  0.00  0.00    +0.000 HD
ENDBRANCH   7  13
BRANCH  10  16
ATOM     15  O   UNL     1      49.578  26.253  90.259  0.00  0.00    +0.000 OA
ATOM     16  C   UNL     1      49.709  26.707  89.132  0.00  0.00    +0.000 C 
BRANCH  16  17
ATOM     17  O   UNL     1      50.668  27.553  88.660  0.00  0.00    +0.000 OA
ATOM     18  C   UNL     1      51.231  28.481  89.552  0.00  0.00    +0.000 C 
ENDBRANCH  16  17
ENDBRANCH  10  16
ENDBRANCH   2   4
BRANCH   1  22
ATOM     19  C   UNL     1      40.255  23.423  83.746  0.00  0.00    +0.000 A 
ATOM     20  C   UNL     1      40.943  22.976  84.876  0.00  0.00    +0.000 A 
ATOM     21  C   UNL     1      40.999  24.109  82.776  0.00  0.00    +0.000 A 
ATOM     22  C   UNL     1      43.039  23.850  84.046  0.00  0.00    +0.000 A 
ATOM     23  C   UNL     1      42.311  23.191  85.036  0.00  0.00    +0.000 A 
ATOM     24  C   UNL     1      42.367  24.331  82.924  0.00  0.00    +0.000 A 
BRANCH  19  26
ATOM     25  O   UNL     1      38.150  24.874  85.102  0.00  0.00    +0.000 OA
ATOM     26  N   UNL     1      38.838  23.195  83.573  0.00  0.00    +0.000 N 
ATOM     27  C   UNL     1      37.907  23.978  84.300  0.00  0.00    +0.000 C 
ATOM     28  C   UNL     1      38.488  22.129  82.630  0.00  0.00    +0.000 C 
BRANCH  27  29
ATOM     29  C   UNL     1      36.498  23.684  84.079  0.00  0.00    +0.000 C 
BRANCH  29  30
ATOM     30  N   UNL     1      35.076  23.413  83.876  0.00  0.00    +0.000 N 
ATOM     31  N   UNL     1      34.320  20.276  82.397  0.00  0.00    +0.000 N 
ATOM     32  C   UNL     1      34.918  22.991  82.457  0.00  0.00    +0.000 C 
ATOM     33  C   UNL     1      34.814  22.070  84.465  0.00  0.00    +0.000 C 
ATOM     34  C   UNL     1      34.589  21.616  81.808  0.00  0.00    +0.000 C 
ATOM     35  C   UNL     1      34.486  20.694  83.815  0.00  0.00    +0.000 C 
ATOM     36  C   UNL     1      35.461  19.433  82.068  0.00  0.00    +0.000 C 
ENDBRANCH  29  30
ENDBRANCH  27  29
ENDBRANCH  19  26
ENDBRANCH   1  22
BRANCH   2  37
ATOM     37  C   UNL     1      43.951  26.471  84.752  0.00  0.00    +0.000 A 
ATOM     38  C   UNL     1      43.931  27.468  83.778  0.00  0.00    +0.000 A 
ATOM     39  C   UNL     1      43.142  26.546  85.884  0.00  0.00    +0.000 A 
ATOM     40  C   UNL     1      43.089  28.563  83.949  0.00  0.00    +0.000 A 
ATOM     41  C   UNL     1      42.305  27.646  86.045  0.00  0.00    +0.000 A 
ATOM     42  C   UNL     1      42.278  28.652  85.079  0.00  0.00    +0.000 A 
ENDBRANCH   2  37
TORSDOF 9
ENDMDL
MODEL 3
REMARK VINA RESULT:      -6.1     59.793     63.071
REMARK  Name = 135423438_Nintedanib.pdbqt.pdb
REMARK  9 active torsions:
REMARK  status: ('A' for Active; 'I' for Inactive)
REMARK    1  A    between atoms: N_1  and  C_22
REMARK    2  A    between atoms: C_2  and  C_4
REMARK    3  A    between atoms: C_2  and  C_37
REMARK    4  A    between atoms: C_7  and  O_13
REMARK    5  A    between atoms: C_10  and  C_16
REMARK    6  A    between atoms: C_16  and  O_17
REMARK    7  A    between atoms: C_19  and  N_26
REMARK    8  A    between atoms: C_27  and  C_29
REMARK    9  A    between atoms: C_29  and  N_30
REMARK                            x       y       z     vdW  Elec       q    Type
REMARK                         _______ _______ _______ _____ _____    ______ ____
ROOT
ATOM      1  N   UNL     1      11.405   6.085 100.490  0.00  0.00    +0.000 NA
ATOM      2  C   UNL     1      12.522   5.924  99.841  0.00  0.00    +0.000 C 
ENDROOT
BRANCH   2   4
ATOM      3  N   UNL     1      12.823   2.437  98.760  0.00  0.00    +0.000 N 
ATOM      4  C   UNL     1      12.896   4.543  99.508  0.00  0.00    +0.000 A 
ATOM      5  C   UNL     1      14.151   3.896  99.789  0.00  0.00    +0.000 A 
ATOM      6  C   UNL     1      14.072   2.590  99.309  0.00  0.00    +0.000 A 
ATOM      7  C   UNL     1      12.101   3.597  98.874  0.00  0.00    +0.000 A 
ATOM      8  C   UNL     1      15.351   4.308 100.403  0.00  0.00    +0.000 A 
ATOM      9  C   UNL     1      15.124   1.674  99.414  0.00  0.00    +0.000 A 
ATOM     10  C   UNL     1      16.302   2.113 100.034  0.00  0.00    +0.000 A 
ATOM     11  C   UNL     1      16.414   3.411 100.519  0.00  0.00    +0.000 A 
ATOM     12  H   UNL     1      12.493   1.581  98.339  0.00  0.00    +0.000 HD
BRANCH   7  13
ATOM     13  O   UNL     1      10.853   3.681  98.426  0.00  0.00    +0.000 OA
ATOM     14  H   UNL     1      10.271   4.077  99.099  0.00  0.00    +0.000 HD
ENDBRANCH   7  13
BRANCH  10  16
ATOM     15  O   UNL     1      18.279   1.339 101.093  0.00  0.00    +0.000 OA
ATOM     16  C   UNL     1      17.467   1.214 100.189  0.00  0.00    +0.000 C 
BRANCH  16  17
ATOM     17  O   UNL     1      17.441   0.290  99.187  0.00  0.00    +0.000 OA
ATOM     18  C   UNL     1      17.754  -1.042  99.506  0.00  0.00    +0.000 C 
ENDBRANCH  16  17
ENDBRANCH  10  16
ENDBRANCH   2   4
BRANCH   1  22
ATOM     19  C   UNL     1      10.237   9.979 101.664  0.00  0.00    +0.000 A 
ATOM     20  C   UNL     1      10.855   9.100 102.557  0.00  0.00    +0.000 A 
ATOM     21  C   UNL     1      10.018   9.516 100.360  0.00  0.00    +0.000 A 
ATOM     22  C   UNL     1      10.981   7.361 100.881  0.00  0.00    +0.000 A 
ATOM     23  C   UNL     1      11.233   7.813 102.176  0.00  0.00    +0.000 A 
ATOM     24  C   UNL     1      10.392   8.232  99.967  0.00  0.00    +0.000 A 
BRANCH  19  26
ATOM     25  O   UNL     1      11.757  12.394 101.178  0.00  0.00    +0.000 OA
ATOM     26  N   UNL     1       9.837  11.311 102.057  0.00  0.00    +0.000 N 
ATOM     27  C   UNL     1      10.676  12.413 101.759  0.00  0.00    +0.000 C 
ATOM     28  C   UNL     1       8.554  11.396 102.762  0.00  0.00    +0.000 C 
BRANCH  27  29
ATOM     29  C   UNL     1      10.210  13.723 102.194  0.00  0.00    +0.000 C 
BRANCH  29  30
ATOM     30  N   UNL     1       9.748  15.029 102.658  0.00  0.00    +0.000 N 
ATOM     31  N   UNL     1       8.220  17.073 100.191  0.00  0.00    +0.000 N 
ATOM     32  C   UNL     1      10.303  16.041 101.717  0.00  0.00    +0.000 C 
ATOM     33  C   UNL     1       8.334  15.163 102.209  0.00  0.00    +0.000 C 
ATOM     34  C   UNL     1       9.634  16.935 100.633  0.00  0.00    +0.000 C 
ATOM     35  C   UNL     1       7.665  16.057 101.125  0.00  0.00    +0.000 C 
ATOM     36  C   UNL     1       8.139  16.506  98.851  0.00  0.00    +0.000 C 
ENDBRANCH  29  30
ENDBRANCH  27  29
ENDBRANCH  19  26
ENDBRANCH   1  22
BRANCH   2  37
ATOM     37  C   UNL     1      13.424   7.015  99.429  0.00  0.00    +0.000 A 
ATOM     38  C   UNL     1      14.230   7.635 100.381  0.00  0.00    +0.000 A 
ATOM     39  C   UNL     1      13.476   7.381  98.085  0.00  0.00    +0.000 A 
ATOM     40  C   UNL     1      15.098   8.645  99.979  0.00  0.00    +0.000 A 
ATOM     41  C   UNL     1      14.346   8.393  97.693  0.00  0.00    +0.000 A 
ATOM     42  C   UNL     1      15.156   9.024  98.638  0.00  0.00    +0.000 A 
ENDBRANCH   2  37
TORSDOF 9
ENDMDL
MODEL 4
REMARK VINA RESULT:      -6.0      9.869     13.395
REMARK  Name = 135423438_Nintedanib.pdbqt.pdb
REMARK  9 active torsions:
REMARK  status: ('A' for Active; 'I' for Inactive)
REMARK    1  A    between atoms: N_1  and  C_22
REMARK    2  A    between atoms: C_2  and  C_4
REMARK    3  A    between atoms: C_2  and  C_37
REMARK    4  A    between atoms: C_7  and  O_13
REMARK    5  A    between atoms: C_10  and  C_16
REMARK    6  A    between atoms: C_16  and  O_17
REMARK    7  A    between atoms: C_19  and  N_26
REMARK    8  A    between atoms: C_27  and  C_29
REMARK    9  A    between atoms: C_29  and  N_30
REMARK                            x       y       z     vdW  Elec       q    Type
REMARK                         _______ _______ _______ _____ _____    ______ ____
ROOT
ATOM      1  N   UNL     1      59.294  36.731  86.448  0.00  0.00    +0.000 NA
ATOM      2  C   UNL     1      58.052  36.425  86.204  0.00  0.00    +0.000 C 
ENDROOT
BRANCH   2   4
ATOM      3  N   UNL     1      56.619  37.757  83.106  0.00  0.00    +0.000 N 
ATOM      4  C   UNL     1      57.555  36.721  84.854  0.00  0.00    +0.000 A 
ATOM      5  C   UNL     1      57.599  35.852  83.707  0.00  0.00    +0.000 A 
ATOM      6  C   UNL     1      57.012  36.528  82.639  0.00  0.00    +0.000 A 
ATOM      7  C   UNL     1      56.933  37.890  84.435  0.00  0.00    +0.000 A 
ATOM      8  C   UNL     1      58.094  34.551  83.480  0.00  0.00    +0.000 A 
ATOM      9  C   UNL     1      56.888  35.973  81.361  0.00  0.00    +0.000 A 
ATOM     10  C   UNL     1      57.385  34.677  81.169  0.00  0.00    +0.000 A 
ATOM     11  C   UNL     1      57.981  33.978  82.212  0.00  0.00    +0.000 A 
ATOM     12  H   UNL     1      56.159  38.455  82.541  0.00  0.00    +0.000 HD
BRANCH   7  13
ATOM     13  O   UNL     1      56.632  38.995  85.109  0.00  0.00    +0.000 OA
ATOM     14  H   UNL     1      56.639  39.770  84.521  0.00  0.00    +0.000 HD
ENDBRANCH   7  13
BRANCH  10  16
ATOM     15  O   UNL     1      58.254  33.452  79.331  0.00  0.00    +0.000 OA
ATOM     16  C   UNL     1      57.299  34.010  79.851  0.00  0.00    +0.000 C 
BRANCH  16  17
ATOM     17  O   UNL     1      56.027  34.142  79.378  0.00  0.00    +0.000 OA
ATOM     18  C   UNL     1      55.847  34.728  78.115  0.00  0.00    +0.000 C 
ENDBRANCH  16  17
ENDBRANCH  10  16
ENDBRANCH   2   4
BRANCH   1  22
ATOM     19  C   UNL     1      60.861  36.062  90.321  0.00  0.00    +0.000 A 
ATOM     20  C   UNL     1      60.199  37.248  89.995  0.00  0.00    +0.000 A 
ATOM     21  C   UNL     1      60.986  35.100  89.309  0.00  0.00    +0.000 A 
ATOM     22  C   UNL     1      59.849  36.519  87.716  0.00  0.00    +0.000 A 
ATOM     23  C   UNL     1      59.689  37.475  88.717  0.00  0.00    +0.000 A 
ATOM     24  C   UNL     1      60.480  35.316  88.028  0.00  0.00    +0.000 A 
BRANCH  19  26
ATOM     25  O   UNL     1      59.432  34.812  92.507  0.00  0.00    +0.000 OA
ATOM     26  N   UNL     1      61.397  35.825  91.642  0.00  0.00    +0.000 N 
ATOM     27  C   UNL     1      60.590  35.202  92.627  0.00  0.00    +0.000 C 
ATOM     28  C   UNL     1      62.777  36.276  91.847  0.00  0.00    +0.000 C 
BRANCH  27  29
ATOM     29  C   UNL     1      61.197  35.004  93.936  0.00  0.00    +0.000 C 
BRANCH  29  30
ATOM     30  N   UNL     1      61.785  34.784  95.256  0.00  0.00    +0.000 N 
ATOM     31  N   UNL     1      65.194  35.721  95.581  0.00  0.00    +0.000 N 
ATOM     32  C   UNL     1      63.052  34.031  95.041  0.00  0.00    +0.000 C 
ATOM     33  C   UNL     1      62.434  36.066  95.648  0.00  0.00    +0.000 C 
ATOM     34  C   UNL     1      64.546  34.442  95.181  0.00  0.00    +0.000 C 
ATOM     35  C   UNL     1      63.929  36.477  95.787  0.00  0.00    +0.000 C 
ATOM     36  C   UNL     1      65.823  36.267  94.386  0.00  0.00    +0.000 C 
ENDBRANCH  29  30
ENDBRANCH  27  29
ENDBRANCH  19  26
ENDBRANCH   1  22
BRANCH   2  37
ATOM     37  C   UNL     1      57.126  35.816  87.175  0.00  0.00    +0.000 A 
ATOM     38  C   UNL     1      56.322  36.636  87.964  0.00  0.00    +0.000 A 
ATOM     39  C   UNL     1      57.050  34.426  87.260  0.00  0.00    +0.000 A 
ATOM     40  C   UNL     1      55.432  36.052  88.859  0.00  0.00    +0.000 A 
ATOM     41  C   UNL     1      56.157  33.853  88.159  0.00  0.00    +0.000 A 
ATOM     42  C   UNL     1      55.349  34.663  88.957  0.00  0.00    +0.000 A 
ENDBRANCH   2  37
TORSDOF 9
ENDMDL
MODEL 5
REMARK VINA RESULT:      -5.9     46.544     49.365
REMARK  Name = 135423438_Nintedanib.pdbqt.pdb
REMARK  9 active torsions:
REMARK  status: ('A' for Active; 'I' for Inactive)
REMARK    1  A    between atoms: N_1  and  C_22
REMARK    2  A    between atoms: C_2  and  C_4
REMARK    3  A    between atoms: C_2  and  C_37
REMARK    4  A    between atoms: C_7  and  O_13
REMARK    5  A    between atoms: C_10  and  C_16
REMARK    6  A    between atoms: C_16  and  O_17
REMARK    7  A    between atoms: C_19  and  N_26
REMARK    8  A    between atoms: C_27  and  C_29
REMARK    9  A    between atoms: C_29  and  N_30
REMARK                            x       y       z     vdW  Elec       q    Type
REMARK                         _______ _______ _______ _____ _____    ______ ____
ROOT
ATOM      1  N   UNL     1      18.715  15.831  88.079  0.00  0.00    +0.000 NA
ATOM      2  C   UNL     1      18.082  16.322  87.053  0.00  0.00    +0.000 C 
ENDROOT
BRANCH   2   4
ATOM      3  N   UNL     1      15.937  14.075  85.111  0.00  0.00    +0.000 N 
ATOM      4  C   UNL     1      17.453  15.355  86.144  0.00  0.00    +0.000 A 
ATOM      5  C   UNL     1      18.110  14.552  85.147  0.00  0.00    +0.000 A 
ATOM      6  C   UNL     1      17.139  13.771  84.522  0.00  0.00    +0.000 A 
ATOM      7  C   UNL     1      16.106  15.021  86.090  0.00  0.00    +0.000 A 
ATOM      8  C   UNL     1      19.445  14.424  84.713  0.00  0.00    +0.000 A 
ATOM      9  C   UNL     1      17.431  12.869  83.494  0.00  0.00    +0.000 A 
ATOM     10  C   UNL     1      18.768  12.762  83.089  0.00  0.00    +0.000 A 
ATOM     11  C   UNL     1      19.760  13.530  83.688  0.00  0.00    +0.000 A 
ATOM     12  H   UNL     1      15.059  13.650  84.853  0.00  0.00    +0.000 HD
BRANCH   7  13
ATOM     13  O   UNL     1      15.079  15.460  86.811  0.00  0.00    +0.000 OA
ATOM     14  H   UNL     1      15.192  15.228  87.749  0.00  0.00    +0.000 HD
ENDBRANCH   7  13
BRANCH  10  16
ATOM     15  O   UNL     1      20.051  12.104  81.204  0.00  0.00    +0.000 OA
ATOM     16  C   UNL     1      19.171  11.835  82.009  0.00  0.00    +0.000 C 
BRANCH  16  17
ATOM     17  O   UNL     1      18.411  10.707  82.097  0.00  0.00    +0.000 OA
ATOM     18  C   UNL     1      19.068   9.467  82.140  0.00  0.00    +0.000 C 
ENDBRANCH  16  17
ENDBRANCH  10  16
ENDBRANCH   2   4
BRANCH   1  22
ATOM     19  C   UNL     1      20.738  18.275  90.879  0.00  0.00    +0.000 A 
ATOM     20  C   UNL     1      19.439  17.817  91.112  0.00  0.00    +0.000 A 
ATOM     21  C   UNL     1      21.345  17.891  89.676  0.00  0.00    +0.000 A 
ATOM     22  C   UNL     1      19.376  16.671  88.983  0.00  0.00    +0.000 A 
ATOM     23  C   UNL     1      18.766  17.019  90.187  0.00  0.00    +0.000 A 
ATOM     24  C   UNL     1      20.683  17.093  88.744  0.00  0.00    +0.000 A 
BRANCH  19  26
ATOM     25  O   UNL     1      22.884  17.399  92.612  0.00  0.00    +0.000 OA
ATOM     26  N   UNL     1      21.436  19.109  91.831  0.00  0.00    +0.000 N 
ATOM     27  C   UNL     1      22.472  18.554  92.623  0.00  0.00    +0.000 C 
ATOM     28  C   UNL     1      20.982  20.502  91.893  0.00  0.00    +0.000 C 
BRANCH  27  29
ATOM     29  C   UNL     1      23.123  19.454  93.565  0.00  0.00    +0.000 C 
BRANCH  29  30
ATOM     30  N   UNL     1      23.793  20.334  94.521  0.00  0.00    +0.000 N 
ATOM     31  N   UNL     1      22.376  20.413  97.774  0.00  0.00    +0.000 N 
ATOM     32  C   UNL     1      22.738  21.191  95.129  0.00  0.00    +0.000 C 
ATOM     33  C   UNL     1      24.049  19.518  95.740  0.00  0.00    +0.000 C 
ATOM     34  C   UNL     1      22.114  21.224  96.554  0.00  0.00    +0.000 C 
ATOM     35  C   UNL     1      23.424  19.551  97.166  0.00  0.00    +0.000 C 
ATOM     36  C   UNL     1      21.204  19.573  97.981  0.00  0.00    +0.000 C 
ENDBRANCH  29  30
ENDBRANCH  27  29
ENDBRANCH  19  26
ENDBRANCH   1  22
BRANCH   2  37
ATOM     37  C   UNL     1      17.960  17.758  86.744  0.00  0.00    +0.000 A 
ATOM     38  C   UNL     1      16.935  18.500  87.327  0.00  0.00    +0.000 A 
ATOM     39  C   UNL     1      18.896  18.353  85.900  0.00  0.00    +0.000 A 
ATOM     40  C   UNL     1      16.843  19.861  87.051  0.00  0.00    +0.000 A 
ATOM     41  C   UNL     1      18.795  19.713  85.630  0.00  0.00    +0.000 A 
ATOM     42  C   UNL     1      17.771  20.466  86.204  0.00  0.00    +0.000 A 
ENDBRANCH   2  37
TORSDOF 9
ENDMDL
MODEL 6
REMARK VINA RESULT:      -5.9     20.317     26.837
REMARK  Name = 135423438_Nintedanib.pdbqt.pdb
REMARK  9 active torsions:
REMARK  status: ('A' for Active; 'I' for Inactive)
REMARK    1  A    between atoms: N_1  and  C_22
REMARK    2  A    between atoms: C_2  and  C_4
REMARK    3  A    between atoms: C_2  and  C_37
REMARK    4  A    between atoms: C_7  and  O_13
REMARK    5  A    between atoms: C_10  and  C_16
REMARK    6  A    between atoms: C_16  and  O_17
REMARK    7  A    between atoms: C_19  and  N_26
REMARK    8  A    between atoms: C_27  and  C_29
REMARK    9  A    between atoms: C_29  and  N_30
REMARK                            x       y       z     vdW  Elec       q    Type
REMARK                         _______ _______ _______ _____ _____    ______ ____
ROOT
ATOM      1  N   UNL     1      44.362  24.456  84.257  0.00  0.00    +0.000 NA
ATOM      2  C   UNL     1      44.746  25.272  85.197  0.00  0.00    +0.000 C 
ENDROOT
BRANCH   2   4
ATOM      3  N   UNL     1      48.205  26.421  85.561  0.00  0.00    +0.000 N 
ATOM      4  C   UNL     1      46.193  25.467  85.348  0.00  0.00    +0.000 A 
ATOM      5  C   UNL     1      47.201  24.441  85.416  0.00  0.00    +0.000 A 
ATOM      6  C   UNL     1      48.438  25.069  85.551  0.00  0.00    +0.000 A 
ATOM      7  C   UNL     1      46.864  26.680  85.436  0.00  0.00    +0.000 A 
ATOM      8  C   UNL     1      47.171  23.032  85.383  0.00  0.00    +0.000 A 
ATOM      9  C   UNL     1      49.644  24.366  85.649  0.00  0.00    +0.000 A 
ATOM     10  C   UNL     1      49.580  22.967  85.608  0.00  0.00    +0.000 A 
ATOM     11  C   UNL     1      48.362  22.310  85.478  0.00  0.00    +0.000 A 
ATOM     12  H   UNL     1      48.930  27.118  85.645  0.00  0.00    +0.000 HD
BRANCH   7  13
ATOM     13  O   UNL     1      46.400  27.925  85.404  0.00  0.00    +0.000 OA
ATOM     14  H   UNL     1      46.893  28.460  84.757  0.00  0.00    +0.000 HD
ENDBRANCH   7  13
BRANCH  10  16
ATOM     15  O   UNL     1      50.824  20.957  85.400  0.00  0.00    +0.000 OA
ATOM     16  C   UNL     1      50.803  22.140  85.705  0.00  0.00    +0.000 C 
BRANCH  16  17
ATOM     17  O   UNL     1      51.820  22.920  86.169  0.00  0.00    +0.000 OA
ATOM     18  C   UNL     1      52.945  22.283  86.718  0.00  0.00    +0.000 C 
ENDBRANCH  16  17
ENDBRANCH  10  16
ENDBRANCH   2   4
BRANCH   1  22
ATOM     19  C   UNL     1      40.232  23.694  83.746  0.00  0.00    +0.000 A 
ATOM     20  C   UNL     1      40.969  23.078  84.759  0.00  0.00    +0.000 A 
ATOM     21  C   UNL     1      40.919  24.578  82.903  0.00  0.00    +0.000 A 
ATOM     22  C   UNL     1      43.004  24.180  84.058  0.00  0.00    +0.000 A 
ATOM     23  C   UNL     1      42.333  23.319  84.925  0.00  0.00    +0.000 A 
ATOM     24  C   UNL     1      42.281  24.828  83.059  0.00  0.00    +0.000 A 
BRANCH  19  26
ATOM     25  O   UNL     1      38.101  24.959  85.243  0.00  0.00    +0.000 OA
ATOM     26  N   UNL     1      38.820  23.441  83.566  0.00  0.00    +0.000 N 
ATOM     27  C   UNL     1      37.875  24.129  84.368  0.00  0.00    +0.000 C 
ATOM     28  C   UNL     1      38.490  22.452  82.536  0.00  0.00    +0.000 C 
BRANCH  27  29
ATOM     29  C   UNL     1      36.472  23.814  84.134  0.00  0.00    +0.000 C 
BRANCH  29  30
ATOM     30  N   UNL     1      35.065  23.479  83.922  0.00  0.00    +0.000 N 
ATOM     31  N   UNL     1      34.457  20.294  82.478  0.00  0.00    +0.000 N 
ATOM     32  C   UNL     1      34.938  23.033  82.507  0.00  0.00    +0.000 C 
ATOM     33  C   UNL     1      34.856  22.134  84.526  0.00  0.00    +0.000 C 
ATOM     34  C   UNL     1      34.674  21.636  81.874  0.00  0.00    +0.000 C 
ATOM     35  C   UNL     1      34.592  20.737  83.892  0.00  0.00    +0.000 C 
ATOM     36  C   UNL     1      35.636  19.496  82.170  0.00  0.00    +0.000 C 
ENDBRANCH  29  30
ENDBRANCH  27  29
ENDBRANCH  19  26
ENDBRANCH   1  22
BRANCH   2  37
ATOM     37  C   UNL     1      43.841  25.997  86.106  0.00  0.00    +0.000 A 
ATOM     38  C   UNL     1      43.746  25.601  87.439  0.00  0.00    +0.000 A 
ATOM     39  C   UNL     1      43.121  27.088  85.621  0.00  0.00    +0.000 A 
ATOM     40  C   UNL     1      42.910  26.308  88.298  0.00  0.00    +0.000 A 
ATOM     41  C   UNL     1      42.287  27.787  86.487  0.00  0.00    +0.000 A 
ATOM     42  C   UNL     1      42.181  27.398  87.823  0.00  0.00    +0.000 A 
ENDBRANCH   2  37
TORSDOF 9
ENDMDL
MODEL 7
REMARK VINA RESULT:      -5.8     40.971     46.299
REMARK  Name = 135423438_Nintedanib.pdbqt.pdb
REMARK  9 active torsions:
REMARK  status: ('A' for Active; 'I' for Inactive)
REMARK    1  A    between atoms: N_1  and  C_22
REMARK    2  A    between atoms: C_2  and  C_4
REMARK    3  A    between atoms: C_2  and  C_37
REMARK    4  A    between atoms: C_7  and  O_13
REMARK    5  A    between atoms: C_10  and  C_16
REMARK    6  A    between atoms: C_16  and  O_17
REMARK    7  A    between atoms: C_19  and  N_26
REMARK    8  A    between atoms: C_27  and  C_29
REMARK    9  A    between atoms: C_29  and  N_30
REMARK                            x       y       z     vdW  Elec       q    Type
REMARK                         _______ _______ _______ _____ _____    ______ ____
ROOT
ATOM      1  N   UNL     1      23.975  10.867  86.051  0.00  0.00    +0.000 NA
ATOM      2  C   UNL     1      24.072   9.962  86.982  0.00  0.00    +0.000 C 
ENDROOT
BRANCH   2   4
ATOM      3  N   UNL     1      21.365   7.509  86.716  0.00  0.00    +0.000 N 
ATOM      4  C   UNL     1      23.188   8.795  86.861  0.00  0.00    +0.000 A 
ATOM      5  C   UNL     1      23.587   7.415  86.770  0.00  0.00    +0.000 A 
ATOM      6  C   UNL     1      22.430   6.644  86.678  0.00  0.00    +0.000 A 
ATOM      7  C   UNL     1      21.800   8.805  86.830  0.00  0.00    +0.000 A 
ATOM      8  C   UNL     1      24.831   6.753  86.749  0.00  0.00    +0.000 A 
ATOM      9  C   UNL     1      22.449   5.249  86.573  0.00  0.00    +0.000 A 
ATOM     10  C   UNL     1      23.701   4.620  86.560  0.00  0.00    +0.000 A 
ATOM     11  C   UNL     1      24.875   5.361  86.645  0.00  0.00    +0.000 A 
ATOM     12  H   UNL     1      20.399   7.217  86.671  0.00  0.00    +0.000 HD
BRANCH   7  13
ATOM     13  O   UNL     1      20.943   9.817  86.902  0.00  0.00    +0.000 OA
ATOM     14  H   UNL     1      20.052   9.536  86.627  0.00  0.00    +0.000 HD
ENDBRANCH   7  13
BRANCH  10  16
ATOM     15  O   UNL     1      24.268   2.456  87.352  0.00  0.00    +0.000 OA
ATOM     16  C   UNL     1      23.820   3.150  86.451  0.00  0.00    +0.000 C 
BRANCH  16  17
ATOM     17  O   UNL     1      23.358   2.765  85.227  0.00  0.00    +0.000 OA
ATOM     18  C   UNL     1      24.298   2.442  84.236  0.00  0.00    +0.000 C 
ENDBRANCH  16  17
ENDBRANCH  10  16
ENDBRANCH   2   4
BRANCH   1  22
ATOM     19  C   UNL     1      26.264  14.425  86.096  0.00  0.00    +0.000 A 
ATOM     20  C   UNL     1      26.551  13.381  85.213  0.00  0.00    +0.000 A 
ATOM     21  C   UNL     1      25.183  14.244  86.970  0.00  0.00    +0.000 A 
ATOM     22  C   UNL     1      24.751  12.031  86.098  0.00  0.00    +0.000 A 
ATOM     23  C   UNL     1      25.805  12.204  85.202  0.00  0.00    +0.000 A 
ATOM     24  C   UNL     1      24.429  13.071  86.968  0.00  0.00    +0.000 A 
BRANCH  19  26
ATOM     25  O   UNL     1      25.443  16.950  84.943  0.00  0.00    +0.000 OA
ATOM     26  N   UNL     1      27.040  15.644  86.117  0.00  0.00    +0.000 N 
ATOM     27  C   UNL     1      26.522  16.817  85.513  0.00  0.00    +0.000 C 
ATOM     28  C   UNL     1      28.344  15.544  86.780  0.00  0.00    +0.000 C 
BRANCH  27  29
ATOM     29  C   UNL     1      27.365  18.004  85.567  0.00  0.00    +0.000 C 
BRANCH  29  30
ATOM     30  N   UNL     1      28.231  19.178  85.636  0.00  0.00    +0.000 N 
ATOM     31  N   UNL     1      29.908  20.017  82.622  0.00  0.00    +0.000 N 
ATOM     32  C   UNL     1      29.552  18.771  85.083  0.00  0.00    +0.000 C 
ATOM     33  C   UNL     1      27.850  20.054  84.493  0.00  0.00    +0.000 C 
ATOM     34  C   UNL     1      30.287  19.137  83.760  0.00  0.00    +0.000 C 
ATOM     35  C   UNL     1      28.584  20.418  83.170  0.00  0.00    +0.000 C 
ATOM     36  C   UNL     1      29.649  19.147  81.483  0.00  0.00    +0.000 C 
ENDBRANCH  29  30
ENDBRANCH  27  29
ENDBRANCH  19  26
ENDBRANCH   1  22
BRANCH   2  37
ATOM     37  C   UNL     1      24.991  10.031  88.133  0.00  0.00    +0.000 A 
ATOM     38  C   UNL     1      26.353   9.810  87.937  0.00  0.00    +0.000 A 
ATOM     39  C   UNL     1      24.481  10.348  89.391  0.00  0.00    +0.000 A 
ATOM     40  C   UNL     1      27.217   9.903  89.024  0.00  0.00    +0.000 A 
ATOM     41  C   UNL     1      25.353  10.438  90.471  0.00  0.00    +0.000 A 
ATOM     42  C   UNL     1      26.718  10.216  90.288  0.00  0.00    +0.000 A 
ENDBRANCH   2  37
TORSDOF 9
ENDMDL
MODEL 8
REMARK VINA RESULT:      -5.7     63.684     67.008
REMARK  Name = 135423438_Nintedanib.pdbqt.pdb
REMARK  9 active torsions:
REMARK  status: ('A' for Active; 'I' for Inactive)
REMARK    1  A    between atoms: N_1  and  C_22
REMARK    2  A    between atoms: C_2  and  C_4
REMARK    3  A    between atoms: C_2  and  C_37
REMARK    4  A    between atoms: C_7  and  O_13
REMARK    5  A    between atoms: C_10  and  C_16
REMARK    6  A    between atoms: C_16  and  O_17
REMARK    7  A    between atoms: C_19  and  N_26
REMARK    8  A    between atoms: C_27  and  C_29
REMARK    9  A    between atoms: C_29  and  N_30
REMARK                            x       y       z     vdW  Elec       q    Type
REMARK                         _______ _______ _______ _____ _____    ______ ____
ROOT
ATOM      1  N   UNL     1       5.370   5.265  88.216  0.00  0.00    +0.000 NA
ATOM      2  C   UNL     1       6.161   4.444  87.588  0.00  0.00    +0.000 C 
ENDROOT
BRANCH   2   4
ATOM      3  N   UNL     1       8.267   2.085  89.437  0.00  0.00    +0.000 N 
ATOM      4  C   UNL     1       6.770   3.374  88.388  0.00  0.00    +0.000 A 
ATOM      5  C   UNL     1       6.089   2.277  89.026  0.00  0.00    +0.000 A 
ATOM      6  C   UNL     1       7.048   1.498  89.670  0.00  0.00    +0.000 A 
ATOM      7  C   UNL     1       8.121   3.210  88.666  0.00  0.00    +0.000 A 
ATOM      8  C   UNL     1       4.739   1.880  89.118  0.00  0.00    +0.000 A 
ATOM      9  C   UNL     1       6.733   0.344  90.396  0.00  0.00    +0.000 A 
ATOM     10  C   UNL     1       5.383  -0.025  90.465  0.00  0.00    +0.000 A 
ATOM     11  C   UNL     1       4.401   0.733  89.837  0.00  0.00    +0.000 A 
ATOM     12  H   UNL     1       9.143   1.725  89.787  0.00  0.00    +0.000 HD
BRANCH   7  13
ATOM     13  O   UNL     1       9.171   3.936  88.298  0.00  0.00    +0.000 OA
ATOM     14  H   UNL     1       8.898   4.838  88.054  0.00  0.00    +0.000 HD
ENDBRANCH   7  13
BRANCH  10  16
ATOM     15  O   UNL     1       5.622  -2.252  91.248  0.00  0.00    +0.000 OA
ATOM     16  C   UNL     1       4.955  -1.229  91.211  0.00  0.00    +0.000 C 
BRANCH  16  17
ATOM     17  O   UNL     1       3.752  -0.972  91.800  0.00  0.00    +0.000 OA
ATOM     18  C   UNL     1       3.162  -1.988  92.570  0.00  0.00    +0.000 C 
ENDBRANCH  16  17
ENDBRANCH  10  16
ENDBRANCH   2   4
BRANCH   1  22
ATOM     19  C   UNL     1       3.470   8.508  86.273  0.00  0.00    +0.000 A 
ATOM     20  C   UNL     1       2.990   7.201  86.155  0.00  0.00    +0.000 A 
ATOM     21  C   UNL     1       4.611   8.700  87.064  0.00  0.00    +0.000 A 
ATOM     22  C   UNL     1       4.770   6.337  87.546  0.00  0.00    +0.000 A 
ATOM     23  C   UNL     1       3.619   6.129  86.787  0.00  0.00    +0.000 A 
ATOM     24  C   UNL     1       5.248   7.636  87.701  0.00  0.00    +0.000 A 
BRANCH  19  26
ATOM     25  O   UNL     1       1.868  10.529  87.587  0.00  0.00    +0.000 OA
ATOM     26  N   UNL     1       2.825   9.621  85.614  0.00  0.00    +0.000 N 
ATOM     27  C   UNL     1       2.065  10.544  86.376  0.00  0.00    +0.000 C 
ATOM     28  C   UNL     1       3.022   9.687  84.163  0.00  0.00    +0.000 C 
BRANCH  27  29
ATOM     29  C   UNL     1       1.439  11.634  85.641  0.00  0.00    +0.000 C 
BRANCH  29  30
ATOM     30  N   UNL     1       0.791  12.731  84.925  0.00  0.00    +0.000 N 
ATOM     31  N   UNL     1       2.219  15.940  85.438  0.00  0.00    +0.000 N 
ATOM     32  C   UNL     1       0.517  13.797  85.929  0.00  0.00    +0.000 C 
ATOM     33  C   UNL     1       1.871  13.468  84.212  0.00  0.00    +0.000 C 
ATOM     34  C   UNL     1       1.145  15.202  86.156  0.00  0.00    +0.000 C 
ATOM     35  C   UNL     1       2.500  14.874  84.440  0.00  0.00    +0.000 C 
ATOM     36  C   UNL     1       3.367  15.994  86.334  0.00  0.00    +0.000 C 
ENDBRANCH  29  30
ENDBRANCH  27  29
ENDBRANCH  19  26
ENDBRANCH   1  22
BRANCH   2  37
ATOM     37  C   UNL     1       6.484   4.516  86.152  0.00  0.00    +0.000 A 
ATOM     38  C   UNL     1       7.465   5.404  85.713  0.00  0.00    +0.000 A 
ATOM     39  C   UNL     1       5.823   3.669  85.263  0.00  0.00    +0.000 A 
ATOM     40  C   UNL     1       7.782   5.447  84.359  0.00  0.00    +0.000 A 
ATOM     41  C   UNL     1       6.148   3.721  83.911  0.00  0.00    +0.000 A 
ATOM     42  C   UNL     1       7.125   4.608  83.460  0.00  0.00    +0.000 A 
ENDBRANCH   2  37
TORSDOF 9
ENDMDL
MODEL 9
REMARK VINA RESULT:      -5.6     45.868     48.233
REMARK  Name = 135423438_Nintedanib.pdbqt.pdb
REMARK  9 active torsions:
REMARK  status: ('A' for Active; 'I' for Inactive)
REMARK    1  A    between atoms: N_1  and  C_22
REMARK    2  A    between atoms: C_2  and  C_4
REMARK    3  A    between atoms: C_2  and  C_37
REMARK    4  A    between atoms: C_7  and  O_13
REMARK    5  A    between atoms: C_10  and  C_16
REMARK    6  A    between atoms: C_16  and  O_17
REMARK    7  A    between atoms: C_19  and  N_26
REMARK    8  A    between atoms: C_27  and  C_29
REMARK    9  A    between atoms: C_29  and  N_30
REMARK                            x       y       z     vdW  Elec       q    Type
REMARK                         _______ _______ _______ _____ _____    ______ ____
ROOT
ATOM      1  N   UNL     1      22.042  17.757  90.135  0.00  0.00    +0.000 NA
ATOM      2  C   UNL     1      20.859  17.858  89.602  0.00  0.00    +0.000 C 
ENDROOT
BRANCH   2   4
ATOM      3  N   UNL     1      21.038  16.384  86.253  0.00  0.00    +0.000 N 
ATOM      4  C   UNL     1      20.667  17.210  88.298  0.00  0.00    +0.000 A 
ATOM      5  C   UNL     1      19.441  16.664  87.777  0.00  0.00    +0.000 A 
ATOM      6  C   UNL     1      19.708  16.157  86.506  0.00  0.00    +0.000 A 
ATOM      7  C   UNL     1      21.629  17.019  87.315  0.00  0.00    +0.000 A 
ATOM      8  C   UNL     1      18.128  16.549  88.276  0.00  0.00    +0.000 A 
ATOM      9  C   UNL     1      18.735  15.547  85.708  0.00  0.00    +0.000 A 
ATOM     10  C   UNL     1      17.438  15.451  86.232  0.00  0.00    +0.000 A 
ATOM     11  C   UNL     1      17.140  15.943  87.497  0.00  0.00    +0.000 A 
ATOM     12  H   UNL     1      21.502  16.119  85.397  0.00  0.00    +0.000 HD
BRANCH   7  13
ATOM     13  O   UNL     1      22.914  17.358  87.289  0.00  0.00    +0.000 OA
ATOM     14  H   UNL     1      23.302  17.174  86.416  0.00  0.00    +0.000 HD
ENDBRANCH   7  13
BRANCH  10  16
ATOM     15  O   UNL     1      15.670  13.904  85.903  0.00  0.00    +0.000 OA
ATOM     16  C   UNL     1      16.345  14.821  85.460  0.00  0.00    +0.000 C 
BRANCH  16  17
ATOM     17  O   UNL     1      16.257  15.436  84.246  0.00  0.00    +0.000 OA
ATOM     18  C   UNL     1      15.780  16.756  84.205  0.00  0.00    +0.000 C 
ENDBRANCH  16  17
ENDBRANCH  10  16
ENDBRANCH   2   4
BRANCH   1  22
ATOM     19  C   UNL     1      23.023  19.551  93.839  0.00  0.00    +0.000 A 
ATOM     20  C   UNL     1      22.546  18.240  93.765  0.00  0.00    +0.000 A 
ATOM     21  C   UNL     1      23.162  20.249  92.633  0.00  0.00    +0.000 A 
ATOM     22  C   UNL     1      22.332  18.370  91.359  0.00  0.00    +0.000 A 
ATOM     23  C   UNL     1      22.213  17.649  92.547  0.00  0.00    +0.000 A 
ATOM     24  C   UNL     1      22.834  19.669  91.409  0.00  0.00    +0.000 A 
BRANCH  19  26
ATOM     25  O   UNL     1      25.319  18.880  95.469  0.00  0.00    +0.000 OA
ATOM     26  N   UNL     1      23.361  20.170  95.101  0.00  0.00    +0.000 N 
ATOM     27  C   UNL     1      24.518  19.747  95.803  0.00  0.00    +0.000 C 
ATOM     28  C   UNL     1      22.435  21.212  95.554  0.00  0.00    +0.000 C 
BRANCH  27  29
ATOM     29  C   UNL     1      24.789  20.412  97.070  0.00  0.00    +0.000 C 
BRANCH  29  30
ATOM     30  N   UNL     1      25.090  21.072  98.339  0.00  0.00    +0.000 N 
ATOM     31  N   UNL     1      24.910  18.998 101.215  0.00  0.00    +0.000 N 
ATOM     32  C   UNL     1      23.972  20.748  99.267  0.00  0.00    +0.000 C 
ATOM     33  C   UNL     1      26.107  20.226  99.024  0.00  0.00    +0.000 C 
ATOM     34  C   UNL     1      23.892  19.837 100.526  0.00  0.00    +0.000 C 
ATOM     35  C   UNL     1      26.027  19.314 100.283  0.00  0.00    +0.000 C 
ATOM     36  C   UNL     1      24.543  17.609 100.979  0.00  0.00    +0.000 C 
ENDBRANCH  29  30
ENDBRANCH  27  29
ENDBRANCH  19  26
ENDBRANCH   1  22
BRANCH   2  37
ATOM     37  C   UNL     1      19.720  18.572  90.206  0.00  0.00    +0.000 A 
ATOM     38  C   UNL     1      18.987  17.959  91.221  0.00  0.00    +0.000 A 
ATOM     39  C   UNL     1      19.419  19.862  89.772  0.00  0.00    +0.000 A 
ATOM     40  C   UNL     1      17.929  18.650  91.804  0.00  0.00    +0.000 A 
ATOM     41  C   UNL     1      18.359  20.543  90.362  0.00  0.00    +0.000 A 
ATOM     42  C   UNL     1      17.616  19.939  91.375  0.00  0.00    +0.000 A 
ENDBRANCH   2  37
TORSDOF 9
ENDMDL
