MODEL 1
REMARK VINA RESULT:      -7.4      0.000      0.000
REMARK  Name = 135403648_CalciumFolinate.pdbqt.pdb
REMARK  10 active torsions:
REMARK  status: ('A' for Active; 'I' for Inactive)
REMARK    1  A    between atoms: N_1  and  C_3
REMARK    2  A    between atoms: N_1  and  C_24
REMARK    3  A    between atoms: C_6  and  C_11
REMARK    4  A    between atoms: CA_13  and  C_15
REMARK    5  A    between atoms: CA_13  and  CB_18
REMARK    6  A    between atoms: C_15  and  O_16
REMARK    7  A    between atoms: CG_19  and  CD_21
REMARK    8  A    between atoms: CD_21  and  OE1_22
REMARK    9  A    between atoms: C_24  and  C_32
REMARK   10  A    between atoms: N_27  and  C_37
REMARK                            x       y       z     vdW  Elec       q    Type
REMARK                         _______ _______ _______ _____ _____    ______ ____
ROOT
ATOM      1  N   UNL     1      56.909  37.601  74.802  0.00  0.00    +0.000 N 
ATOM      2  H   UNL     1      57.065  38.594  74.632  0.00  0.00    +0.000 HD
ENDROOT
BRANCH   1   3
ATOM      3  C   UNL     1      57.523  36.791  73.824  0.00  0.00    +0.000 A 
ATOM      4  C   UNL     1      57.674  37.287  72.525  0.00  0.00    +0.000 A 
ATOM      5  C   UNL     1      57.826  35.444  74.055  0.00  0.00    +0.000 A 
ATOM      6  C   UNL     1      58.520  35.159  71.759  0.00  0.00    +0.000 A 
ATOM      7  C   UNL     1      58.183  36.485  71.504  0.00  0.00    +0.000 A 
ATOM      8  C   UNL     1      58.335  34.637  73.040  0.00  0.00    +0.000 A 
BRANCH   6  11
ATOM      9  O   UNL     1      59.236  34.724  69.580  0.00  0.00    +0.000 OA
ATOM     10  N   UNL     1      59.350  32.971  71.090  0.00  0.00    +0.000 N 
ATOM     11  C   ACE A   0      59.069  34.268  70.706  0.00  0.00    +0.000 C 
ATOM     12  H   UNL     1      59.173  32.685  72.050  0.00  0.00    +0.000 HD
ATOM     13  CA  UNL     1      59.862  31.959  70.298  0.00  0.00    +0.000 C 
BRANCH  13  15
ATOM     14  OXT UNL     1      60.739  29.745  70.508  0.00  0.00    +0.000 OA
ATOM     15  C   UNL     1      60.064  30.653  70.971  0.00  0.00    +0.000 C 
BRANCH  15  16
ATOM     16  O   UNL     1      59.439  30.540  72.153  0.00  0.00    +0.000 OA
ATOM     17  H   UNL     1      58.746  29.862  72.007  0.00  0.00    +0.000 HD
ENDBRANCH  15  16
ENDBRANCH  13  15
BRANCH  13  18
ATOM     18  CB  UNL     1      60.177  32.154  68.927  0.00  0.00    +0.000 C 
ATOM     19  CG  UNL     1      60.526  32.372  67.451  0.00  0.00    +0.000 C 
BRANCH  19  21
ATOM     20  OE2 UNL     1      61.130  33.679  65.610  0.00  0.00    +0.000 OA
ATOM     21  CD  UNL     1      60.867  32.585  66.077  0.00  0.00    +0.000 C 
BRANCH  21  22
ATOM     22  OE1 UNL     1      60.852  31.467  65.329  0.00  0.00    +0.000 OA
ATOM     23  HE1 UNL     1      60.955  30.752  65.989  0.00  0.00    +0.000 HD
ENDBRANCH  21  22
ENDBRANCH  19  21
ENDBRANCH  13  18
ENDBRANCH   6  11
ENDBRANCH   1   3
BRANCH   1  24
ATOM     24  C   UNL     1      56.963  37.177  76.196  0.00  0.00    +0.000 C 
BRANCH  24  31
ATOM     25  O   UNL     1      60.124  34.704  79.597  0.00  0.00    +0.000 OA
ATOM     26  N   UNL     1      58.067  36.175  78.164  0.00  0.00    +0.000 N 
ATOM     27  N   UNL     1      55.726  36.655  79.837  0.00  0.00    +0.000 N 
ATOM     28  N   UNL     1      56.736  35.449  81.593  0.00  0.00    +0.000 NA
ATOM     29  N   UNL     1      58.907  34.658  81.472  0.00  0.00    +0.000 N 
ATOM     30  N   UNL     1      57.671  34.371  83.393  0.00  0.00    +0.000 N 
ATOM     31  C   UNL     1      56.964  36.764  77.555  0.00  0.00    +0.000 C 
ATOM     32  C   UNL     1      55.887  36.919  78.441  0.00  0.00    +0.000 C 
ATOM     33  C   UNL     1      57.955  35.754  79.518  0.00  0.00    +0.000 A 
ATOM     34  C   UNL     1      56.844  35.945  80.311  0.00  0.00    +0.000 A 
ATOM     35  C   UNL     1      59.084  35.012  80.170  0.00  0.00    +0.000 A 
ATOM     36  C   UNL     1      57.742  34.846  82.128  0.00  0.00    +0.000 A 
ATOM     37  H   UNL     1      54.868  36.279  80.230  0.00  0.00    +0.000 HD
ATOM     38  H   UNL     1      59.649  34.119  81.888  0.00  0.00    +0.000 HD
ATOM     39  H   UNL     1      56.859  34.727  83.891  0.00  0.00    +0.000 HD
ATOM     40  H   UNL     1      58.516  34.416  83.947  0.00  0.00    +0.000 HD
BRANCH  26  42
ATOM     41  O   UNL     1      60.123  35.819  76.741  0.00  0.00    +0.000 OA
ATOM     42  C   UNL     1      59.189  35.990  77.434  0.00  0.00    +0.000 C 
ENDBRANCH  26  42
ENDBRANCH  24  31
ENDBRANCH   1  24
TORSDOF 10
ENDMDL
MODEL 2
REMARK VINA RESULT:      -6.6      1.490      2.718
REMARK  Name = 135403648_CalciumFolinate.pdbqt.pdb
REMARK  10 active torsions:
REMARK  status: ('A' for Active; 'I' for Inactive)
REMARK    1  A    between atoms: N_1  and  C_3
REMARK    2  A    between atoms: N_1  and  C_24
REMARK    3  A    between atoms: C_6  and  C_11
REMARK    4  A    between atoms: CA_13  and  C_15
REMARK    5  A    between atoms: CA_13  and  CB_18
REMARK    6  A    between atoms: C_15  and  O_16
REMARK    7  A    between atoms: CG_19  and  CD_21
REMARK    8  A    between atoms: CD_21  and  OE1_22
REMARK    9  A    between atoms: C_24  and  C_32
REMARK   10  A    between atoms: N_27  and  C_37
REMARK                            x       y       z     vdW  Elec       q    Type
REMARK                         _______ _______ _______ _____ _____    ______ ____
ROOT
ATOM      1  N   UNL     1      56.560  37.598  74.992  0.00  0.00    +0.000 N 
ATOM      2  H   UNL     1      56.669  38.602  74.851  0.00  0.00    +0.000 HD
ENDROOT
BRANCH   1   3
ATOM      3  C   UNL     1      57.207  36.846  73.988  0.00  0.00    +0.000 A 
ATOM      4  C   UNL     1      57.573  35.524  74.257  0.00  0.00    +0.000 A 
ATOM      5  C   UNL     1      57.656  37.426  72.796  0.00  0.00    +0.000 A 
ATOM      6  C   UNL     1      58.705  35.355  72.131  0.00  0.00    +0.000 A 
ATOM      7  C   UNL     1      58.302  34.777  73.332  0.00  0.00    +0.000 A 
ATOM      8  C   UNL     1      58.384  36.687  71.867  0.00  0.00    +0.000 A 
BRANCH   6  11
ATOM      9  O   UNL     1      60.015  33.548  71.445  0.00  0.00    +0.000 OA
ATOM     10  N   UNL     1      59.532  35.157  69.851  0.00  0.00    +0.000 N 
ATOM     11  C   ACE A   0      59.479  34.599  71.114  0.00  0.00    +0.000 C 
ATOM     12  H   UNL     1      59.057  36.039  69.674  0.00  0.00    +0.000 HD
ATOM     13  CA  UNL     1      60.186  34.650  68.742  0.00  0.00    +0.000 C 
BRANCH  13  15
ATOM     14  OXT UNL     1      59.458  35.114  66.513  0.00  0.00    +0.000 OA
ATOM     15  C   UNL     1      60.082  35.462  67.505  0.00  0.00    +0.000 C 
BRANCH  15  16
ATOM     16  O   UNL     1      60.738  36.631  67.557  0.00  0.00    +0.000 OA
ATOM     17  H   UNL     1      61.686  36.386  67.605  0.00  0.00    +0.000 HD
ENDBRANCH  15  16
ENDBRANCH  13  15
BRANCH  13  18
ATOM     18  CB  UNL     1      60.911  33.430  68.781  0.00  0.00    +0.000 C 
ATOM     19  CG  UNL     1      61.701  32.117  68.830  0.00  0.00    +0.000 C 
BRANCH  19  21
ATOM     20  OE2 UNL     1      63.424  30.673  68.190  0.00  0.00    +0.000 OA
ATOM     21  CD  UNL     1      62.452  30.900  68.888  0.00  0.00    +0.000 C 
BRANCH  21  22
ATOM     22  OE1 UNL     1      61.977  30.005  69.773  0.00  0.00    +0.000 OA
ATOM     23  HE1 UNL     1      61.080  30.340  69.975  0.00  0.00    +0.000 HD
ENDBRANCH  21  22
ENDBRANCH  19  21
ENDBRANCH  13  18
ENDBRANCH   6  11
ENDBRANCH   1   3
BRANCH   1  24
ATOM     24  C   UNL     1      56.643  37.137  76.373  0.00  0.00    +0.000 C 
BRANCH  24  31
ATOM     25  O   UNL     1      60.051  34.820  79.643  0.00  0.00    +0.000 OA
ATOM     26  N   UNL     1      57.874  36.197  78.295  0.00  0.00    +0.000 N 
ATOM     27  N   UNL     1      55.595  36.601  80.071  0.00  0.00    +0.000 N 
ATOM     28  N   UNL     1      56.732  35.451  81.788  0.00  0.00    +0.000 NA
ATOM     29  N   UNL     1      58.923  34.744  81.572  0.00  0.00    +0.000 N 
ATOM     30  N   UNL     1      57.789  34.427  83.550  0.00  0.00    +0.000 N 
ATOM     31  C   UNL     1      56.723  36.737  77.734  0.00  0.00    +0.000 C 
ATOM     32  C   UNL     1      55.681  36.857  78.667  0.00  0.00    +0.000 C 
ATOM     33  C   UNL     1      57.840  35.784  79.656  0.00  0.00    +0.000 A 
ATOM     34  C   UNL     1      56.761  35.938  80.498  0.00  0.00    +0.000 A 
ATOM     35  C   UNL     1      59.027  35.093  80.261  0.00  0.00    +0.000 A 
ATOM     36  C   UNL     1      57.783  34.892  82.280  0.00  0.00    +0.000 A 
ATOM     37  H   UNL     1      54.772  36.195  80.506  0.00  0.00    +0.000 HD
ATOM     38  H   UNL     1      59.705  34.238  81.958  0.00  0.00    +0.000 HD
ATOM     39  H   UNL     1      56.988  34.755  84.083  0.00  0.00    +0.000 HD
ATOM     40  H   UNL     1      58.657  34.510  84.064  0.00  0.00    +0.000 HD
BRANCH  26  42
ATOM     41  O   UNL     1      59.909  35.987  76.814  0.00  0.00    +0.000 OA
ATOM     42  C   UNL     1      58.968  36.049  77.516  0.00  0.00    +0.000 C 
ENDBRANCH  26  42
ENDBRANCH  24  31
ENDBRANCH   1  24
TORSDOF 10
ENDMDL
MODEL 3
REMARK VINA RESULT:      -6.4     17.475     20.577
REMARK  Name = 135403648_CalciumFolinate.pdbqt.pdb
REMARK  10 active torsions:
REMARK  status: ('A' for Active; 'I' for Inactive)
REMARK    1  A    between atoms: N_1  and  C_3
REMARK    2  A    between atoms: N_1  and  C_24
REMARK    3  A    between atoms: C_6  and  C_11
REMARK    4  A    between atoms: CA_13  and  C_15
REMARK    5  A    between atoms: CA_13  and  CB_18
REMARK    6  A    between atoms: C_15  and  O_16
REMARK    7  A    between atoms: CG_19  and  CD_21
REMARK    8  A    between atoms: CD_21  and  OE1_22
REMARK    9  A    between atoms: C_24  and  C_32
REMARK   10  A    between atoms: N_27  and  C_37
REMARK                            x       y       z     vdW  Elec       q    Type
REMARK                         _______ _______ _______ _____ _____    ______ ____
ROOT
ATOM      1  N   UNL     1      50.042  20.271  83.440  0.00  0.00    +0.000 N 
ATOM      2  H   UNL     1      50.737  20.075  84.159  0.00  0.00    +0.000 HD
ENDROOT
BRANCH   1   3
ATOM      3  C   UNL     1      49.211  21.359  83.784  0.00  0.00    +0.000 A 
ATOM      4  C   UNL     1      48.026  21.563  83.071  0.00  0.00    +0.000 A 
ATOM      5  C   UNL     1      49.614  22.346  84.691  0.00  0.00    +0.000 A 
ATOM      6  C   UNL     1      47.619  23.633  84.247  0.00  0.00    +0.000 A 
ATOM      7  C   UNL     1      47.227  22.681  83.310  0.00  0.00    +0.000 A 
ATOM      8  C   UNL     1      48.821  23.465  84.936  0.00  0.00    +0.000 A 
BRANCH   6  11
ATOM      9  O   UNL     1      45.929  25.161  83.739  0.00  0.00    +0.000 OA
ATOM     10  N   UNL     1      47.096  25.505  85.710  0.00  0.00    +0.000 N 
ATOM     11  C   ACE A   0      46.800  24.836  84.538  0.00  0.00    +0.000 C 
ATOM     12  H   UNL     1      47.843  25.160  86.308  0.00  0.00    +0.000 HD
ATOM     13  CA  UNL     1      46.482  26.645  86.198  0.00  0.00    +0.000 C 
BRANCH  13  15
ATOM     14  OXT UNL     1      48.089  26.843  87.957  0.00  0.00    +0.000 OA
ATOM     15  C   UNL     1      47.005  27.158  87.488  0.00  0.00    +0.000 C 
BRANCH  15  16
ATOM     16  O   UNL     1      46.183  28.014  88.114  0.00  0.00    +0.000 OA
ATOM     17  H   UNL     1      45.351  27.988  87.597  0.00  0.00    +0.000 HD
ENDBRANCH  15  16
ENDBRANCH  13  15
BRANCH  13  18
ATOM     18  CB  UNL     1      45.416  27.285  85.512  0.00  0.00    +0.000 C 
ATOM     19  CG  UNL     1      44.274  27.980  84.762  0.00  0.00    +0.000 C 
BRANCH  19  21
ATOM     20  OE2 UNL     1      43.278  28.910  82.863  0.00  0.00    +0.000 OA
ATOM     21  CD  UNL     1      43.220  28.634  84.048  0.00  0.00    +0.000 C 
BRANCH  21  22
ATOM     22  OE1 UNL     1      42.153  28.943  84.808  0.00  0.00    +0.000 OA
ATOM     23  HE1 UNL     1      42.000  28.127  85.326  0.00  0.00    +0.000 HD
ENDBRANCH  21  22
ENDBRANCH  19  21
ENDBRANCH  13  18
ENDBRANCH   6  11
ENDBRANCH   1   3
BRANCH   1  24
ATOM     24  C   UNL     1      50.501  20.151  82.061  0.00  0.00    +0.000 C 
BRANCH  24  31
ATOM     25  O   UNL     1      49.628  16.992  77.946  0.00  0.00    +0.000 OA
ATOM     26  N   UNL     1      50.404  19.037  79.860  0.00  0.00    +0.000 N 
ATOM     27  N   UNL     1      52.469  20.791  78.779  0.00  0.00    +0.000 N 
ATOM     28  N   UNL     1      52.514  19.514  76.797  0.00  0.00    +0.000 NA
ATOM     29  N   UNL     1      51.028  17.788  76.396  0.00  0.00    +0.000 N 
ATOM     30  N   UNL     1      52.569  18.390  74.795  0.00  0.00    +0.000 N 
ATOM     31  C   UNL     1      50.947  19.983  80.723  0.00  0.00    +0.000 C 
ATOM     32  C   UNL     1      51.951  20.749  80.110  0.00  0.00    +0.000 C 
ATOM     33  C   UNL     1      50.951  18.914  78.552  0.00  0.00    +0.000 A 
ATOM     34  C   UNL     1      51.949  19.714  78.039  0.00  0.00    +0.000 A 
ATOM     35  C   UNL     1      50.468  17.830  77.635  0.00  0.00    +0.000 A 
ATOM     36  C   UNL     1      52.048  18.592  76.028  0.00  0.00    +0.000 A 
ATOM     37  H   UNL     1      53.456  20.922  78.577  0.00  0.00    +0.000 HD
ATOM     38  H   UNL     1      50.733  17.029  75.803  0.00  0.00    +0.000 HD
ATOM     39  H   UNL     1      53.178  19.151  74.507  0.00  0.00    +0.000 HD
ATOM     40  H   UNL     1      51.926  18.110  74.066  0.00  0.00    +0.000 HD
BRANCH  26  42
ATOM     41  O   UNL     1      48.583  17.532  80.750  0.00  0.00    +0.000 OA
ATOM     42  C   UNL     1      49.406  18.246  80.309  0.00  0.00    +0.000 C 
ENDBRANCH  26  42
ENDBRANCH  24  31
ENDBRANCH   1  24
TORSDOF 10
ENDMDL
MODEL 4
REMARK VINA RESULT:      -6.0     17.634     21.210
REMARK  Name = 135403648_CalciumFolinate.pdbqt.pdb
REMARK  10 active torsions:
REMARK  status: ('A' for Active; 'I' for Inactive)
REMARK    1  A    between atoms: N_1  and  C_3
REMARK    2  A    between atoms: N_1  and  C_24
REMARK    3  A    between atoms: C_6  and  C_11
REMARK    4  A    between atoms: CA_13  and  C_15
REMARK    5  A    between atoms: CA_13  and  CB_18
REMARK    6  A    between atoms: C_15  and  O_16
REMARK    7  A    between atoms: CG_19  and  CD_21
REMARK    8  A    between atoms: CD_21  and  OE1_22
REMARK    9  A    between atoms: C_24  and  C_32
REMARK   10  A    between atoms: N_27  and  C_37
REMARK                            x       y       z     vdW  Elec       q    Type
REMARK                         _______ _______ _______ _____ _____    ______ ____
ROOT
ATOM      1  N   UNL     1      50.226  20.617  83.396  0.00  0.00    +0.000 N 
ATOM      2  H   UNL     1      50.982  20.674  84.078  0.00  0.00    +0.000 HD
ENDROOT
BRANCH   1   3
ATOM      3  C   UNL     1      49.185  21.526  83.677  0.00  0.00    +0.000 A 
ATOM      4  C   UNL     1      49.353  22.457  84.707  0.00  0.00    +0.000 A 
ATOM      5  C   UNL     1      47.921  21.418  83.086  0.00  0.00    +0.000 A 
ATOM      6  C   UNL     1      47.074  23.215  84.459  0.00  0.00    +0.000 A 
ATOM      7  C   UNL     1      48.314  23.306  85.086  0.00  0.00    +0.000 A 
ATOM      8  C   UNL     1      46.878  22.263  83.458  0.00  0.00    +0.000 A 
BRANCH   6  11
ATOM      9  O   UNL     1      45.964  24.670  85.910  0.00  0.00    +0.000 OA
ATOM     10  N   UNL     1      44.926  24.209  83.891  0.00  0.00    +0.000 N 
ATOM     11  C   ACE A   0      45.940  24.100  84.825  0.00  0.00    +0.000 C 
ATOM     12  H   UNL     1      44.994  23.692  83.018  0.00  0.00    +0.000 HD
ATOM     13  CA  UNL     1      43.771  24.963  83.998  0.00  0.00    +0.000 C 
BRANCH  13  15
ATOM     14  OXT UNL     1      43.096  24.295  81.805  0.00  0.00    +0.000 OA
ATOM     15  C   UNL     1      42.846  24.893  82.841  0.00  0.00    +0.000 C 
BRANCH  15  16
ATOM     16  O   UNL     1      41.688  25.547  83.021  0.00  0.00    +0.000 OA
ATOM     17  H   UNL     1      41.950  26.457  83.271  0.00  0.00    +0.000 HD
ENDBRANCH  15  16
ENDBRANCH  13  15
BRANCH  13  18
ATOM     18  CB  UNL     1      43.486  25.756  85.140  0.00  0.00    +0.000 C 
ATOM     19  CG  UNL     1      43.191  26.614  86.377  0.00  0.00    +0.000 C 
BRANCH  19  21
ATOM     20  OE2 UNL     1      43.673  28.305  87.916  0.00  0.00    +0.000 OA
ATOM     21  CD  UNL     1      42.934  27.415  87.534  0.00  0.00    +0.000 C 
BRANCH  21  22
ATOM     22  OE1 UNL     1      41.804  27.089  88.187  0.00  0.00    +0.000 OA
ATOM     23  HE1 UNL     1      41.599  27.895  88.702  0.00  0.00    +0.000 HD
ENDBRANCH  21  22
ENDBRANCH  19  21
ENDBRANCH  13  18
ENDBRANCH   6  11
ENDBRANCH   1   3
BRANCH   1  24
ATOM     24  C   UNL     1      50.634  20.428  82.009  0.00  0.00    +0.000 C 
BRANCH  24  31
ATOM     25  O   UNL     1      49.606  17.114  78.054  0.00  0.00    +0.000 OA
ATOM     26  N   UNL     1      50.465  19.225  79.860  0.00  0.00    +0.000 N 
ATOM     27  N   UNL     1      52.531  20.894  78.656  0.00  0.00    +0.000 N 
ATOM     28  N   UNL     1      52.506  19.534  76.730  0.00  0.00    +0.000 NA
ATOM     29  N   UNL     1      50.981  17.819  76.438  0.00  0.00    +0.000 N 
ATOM     30  N   UNL     1      52.492  18.326  74.777  0.00  0.00    +0.000 N 
ATOM     31  C   UNL     1      51.044  20.196  80.669  0.00  0.00    +0.000 C 
ATOM     32  C   UNL     1      52.046  20.917  80.000  0.00  0.00    +0.000 C 
ATOM     33  C   UNL     1      50.977  19.037  78.546  0.00  0.00    +0.000 A 
ATOM     34  C   UNL     1      51.974  19.796  77.975  0.00  0.00    +0.000 A 
ATOM     35  C   UNL     1      50.453  17.923  77.688  0.00  0.00    +0.000 A 
ATOM     36  C   UNL     1      52.005  18.589  76.012  0.00  0.00    +0.000 A 
ATOM     37  H   UNL     1      53.515  20.999  78.425  0.00  0.00    +0.000 HD
ATOM     38  H   UNL     1      50.659  17.041  75.885  0.00  0.00    +0.000 HD
ATOM     39  H   UNL     1      53.106  19.063  74.442  0.00  0.00    +0.000 HD
ATOM     40  H   UNL     1      51.826  18.027  74.076  0.00  0.00    +0.000 HD
BRANCH  26  42
ATOM     41  O   UNL     1      48.548  17.855  80.769  0.00  0.00    +0.000 OA
ATOM     42  C   UNL     1      49.464  18.471  80.367  0.00  0.00    +0.000 C 
ENDBRANCH  26  42
ENDBRANCH  24  31
ENDBRANCH   1  24
TORSDOF 10
ENDMDL
MODEL 5
REMARK VINA RESULT:      -5.9     16.405     18.683
REMARK  Name = 135403648_CalciumFolinate.pdbqt.pdb
REMARK  10 active torsions:
REMARK  status: ('A' for Active; 'I' for Inactive)
REMARK    1  A    between atoms: N_1  and  C_3
REMARK    2  A    between atoms: N_1  and  C_24
REMARK    3  A    between atoms: C_6  and  C_11
REMARK    4  A    between atoms: CA_13  and  C_15
REMARK    5  A    between atoms: CA_13  and  CB_18
REMARK    6  A    between atoms: C_15  and  O_16
REMARK    7  A    between atoms: CG_19  and  CD_21
REMARK    8  A    between atoms: CD_21  and  OE1_22
REMARK    9  A    between atoms: C_24  and  C_32
REMARK   10  A    between atoms: N_27  and  C_37
REMARK                            x       y       z     vdW  Elec       q    Type
REMARK                         _______ _______ _______ _____ _____    ______ ____
ROOT
ATOM      1  N   UNL     1      45.981  20.706  84.033  0.00  0.00    +0.000 N 
ATOM      2  H   UNL     1      45.384  19.911  83.809  0.00  0.00    +0.000 HD
ENDROOT
BRANCH   1   3
ATOM      3  C   UNL     1      47.303  20.526  83.573  0.00  0.00    +0.000 A 
ATOM      4  C   UNL     1      48.267  21.493  83.874  0.00  0.00    +0.000 A 
ATOM      5  C   UNL     1      47.646  19.509  82.674  0.00  0.00    +0.000 A 
ATOM      6  C   UNL     1      49.898  20.364  82.496  0.00  0.00    +0.000 A 
ATOM      7  C   UNL     1      49.558  21.406  83.355  0.00  0.00    +0.000 A 
ATOM      8  C   UNL     1      48.935  19.415  82.153  0.00  0.00    +0.000 A 
BRANCH   6  11
ATOM      9  O   UNL     1      52.173  19.863  82.655  0.00  0.00    +0.000 OA
ATOM     10  N   UNL     1      51.390  20.534  80.581  0.00  0.00    +0.000 N 
ATOM     11  C   ACE A   0      51.261  20.228  81.923  0.00  0.00    +0.000 C 
ATOM     12  H   UNL     1      50.572  20.834  80.056  0.00  0.00    +0.000 HD
ATOM     13  CA  UNL     1      52.546  20.488  79.823  0.00  0.00    +0.000 C 
BRANCH  13  15
ATOM     14  OXT UNL     1      52.286  20.071  77.483  0.00  0.00    +0.000 OA
ATOM     15  C   UNL     1      52.399  20.874  78.398  0.00  0.00    +0.000 C 
BRANCH  15  16
ATOM     16  O   UNL     1      52.397  22.198  78.184  0.00  0.00    +0.000 OA
ATOM     17  H   UNL     1      52.673  22.591  79.038  0.00  0.00    +0.000 HD
ENDBRANCH  15  16
ENDBRANCH  13  15
BRANCH  13  18
ATOM     18  CB  UNL     1      53.796  20.095  80.369  0.00  0.00    +0.000 C 
ATOM     19  CG  UNL     1      55.143  19.660  80.957  0.00  0.00    +0.000 C 
BRANCH  19  21
ATOM     20  OE2 UNL     1      57.286  20.003  81.826  0.00  0.00    +0.000 OA
ATOM     21  CD  UNL     1      56.398  19.235  81.500  0.00  0.00    +0.000 C 
BRANCH  21  22
ATOM     22  OE1 UNL     1      56.527  17.900  81.604  0.00  0.00    +0.000 OA
ATOM     23  HE1 UNL     1      55.896  17.667  82.315  0.00  0.00    +0.000 HD
ENDBRANCH  21  22
ENDBRANCH  19  21
ENDBRANCH  13  18
ENDBRANCH   6  11
ENDBRANCH   1   3
BRANCH   1  24
ATOM     24  C   UNL     1      45.368  22.022  83.900  0.00  0.00    +0.000 C 
BRANCH  24  31
ATOM     25  O   UNL     1      46.110  26.860  85.828  0.00  0.00    +0.000 OA
ATOM     26  N   UNL     1      45.352  24.437  84.413  0.00  0.00    +0.000 N 
ATOM     27  N   UNL     1      43.068  24.889  82.655  0.00  0.00    +0.000 N 
ATOM     28  N   UNL     1      42.944  27.125  83.394  0.00  0.00    +0.000 NA
ATOM     29  N   UNL     1      44.518  28.056  84.810  0.00  0.00    +0.000 N 
ATOM     30  N   UNL     1      42.796  29.340  83.981  0.00  0.00    +0.000 N 
ATOM     31  C   UNL     1      44.817  23.325  83.771  0.00  0.00    +0.000 C 
ATOM     32  C   UNL     1      43.705  23.651  82.979  0.00  0.00    +0.000 C 
ATOM     33  C   UNL     1      44.701  25.692  84.258  0.00  0.00    +0.000 A 
ATOM     34  C   UNL     1      43.602  25.915  83.457  0.00  0.00    +0.000 A 
ATOM     35  C   UNL     1      45.182  26.888  85.026  0.00  0.00    +0.000 A 
ATOM     36  C   UNL     1      43.409  28.135  84.044  0.00  0.00    +0.000 A 
ATOM     37  H   UNL     1      42.060  24.983  82.576  0.00  0.00    +0.000 HD
ATOM     38  H   UNL     1      44.816  28.843  85.365  0.00  0.00    +0.000 HD
ATOM     39  H   UNL     1      42.107  29.381  83.236  0.00  0.00    +0.000 HD
ATOM     40  H   UNL     1      43.391  30.158  84.005  0.00  0.00    +0.000 HD
BRANCH  26  42
ATOM     41  O   UNL     1      47.382  24.062  85.867  0.00  0.00    +0.000 OA
ATOM     42  C   UNL     1      46.445  24.274  85.189  0.00  0.00    +0.000 C 
ENDBRANCH  26  42
ENDBRANCH  24  31
ENDBRANCH   1  24
TORSDOF 10
ENDMDL
MODEL 6
REMARK VINA RESULT:      -5.8     11.593     15.256
REMARK  Name = 135403648_CalciumFolinate.pdbqt.pdb
REMARK  10 active torsions:
REMARK  status: ('A' for Active; 'I' for Inactive)
REMARK    1  A    between atoms: N_1  and  C_3
REMARK    2  A    between atoms: N_1  and  C_24
REMARK    3  A    between atoms: C_6  and  C_11
REMARK    4  A    between atoms: CA_13  and  C_15
REMARK    5  A    between atoms: CA_13  and  CB_18
REMARK    6  A    between atoms: C_15  and  O_16
REMARK    7  A    between atoms: CG_19  and  CD_21
REMARK    8  A    between atoms: CD_21  and  OE1_22
REMARK    9  A    between atoms: C_24  and  C_32
REMARK   10  A    between atoms: N_27  and  C_37
REMARK                            x       y       z     vdW  Elec       q    Type
REMARK                         _______ _______ _______ _____ _____    ______ ____
ROOT
ATOM      1  N   UNL     1      65.062  33.274  87.013  0.00  0.00    +0.000 N 
ATOM      2  H   UNL     1      65.385  33.535  87.944  0.00  0.00    +0.000 HD
ENDROOT
BRANCH   1   3
ATOM      3  C   UNL     1      63.672  33.466  86.859  0.00  0.00    +0.000 A 
ATOM      4  C   UNL     1      63.200  34.713  86.437  0.00  0.00    +0.000 A 
ATOM      5  C   UNL     1      62.737  32.516  87.285  0.00  0.00    +0.000 A 
ATOM      6  C   UNL     1      60.912  34.007  86.754  0.00  0.00    +0.000 A 
ATOM      7  C   UNL     1      61.833  34.978  86.368  0.00  0.00    +0.000 A 
ATOM      8  C   UNL     1      61.369  32.773  87.218  0.00  0.00    +0.000 A 
BRANCH   6  11
ATOM      9  O   UNL     1      58.724  33.646  87.484  0.00  0.00    +0.000 OA
ATOM     10  N   UNL     1      59.012  35.132  85.731  0.00  0.00    +0.000 N 
ATOM     11  C   ACE A   0      59.448  34.242  86.694  0.00  0.00    +0.000 C 
ATOM     12  H   UNL     1      59.691  35.575  85.117  0.00  0.00    +0.000 HD
ATOM     13  CA  UNL     1      57.707  35.513  85.476  0.00  0.00    +0.000 C 
BRANCH  13  15
ATOM     14  OXT UNL     1      56.439  36.755  83.875  0.00  0.00    +0.000 OA
ATOM     15  C   UNL     1      57.523  36.487  84.373  0.00  0.00    +0.000 C 
BRANCH  15  16
ATOM     16  O   UNL     1      58.658  37.066  83.954  0.00  0.00    +0.000 OA
ATOM     17  H   UNL     1      59.362  36.671  84.511  0.00  0.00    +0.000 HD
ENDBRANCH  15  16
ENDBRANCH  13  15
BRANCH  13  18
ATOM     18  CB  UNL     1      56.610  35.007  86.222  0.00  0.00    +0.000 C 
ATOM     19  CG  UNL     1      55.428  34.449  87.024  0.00  0.00    +0.000 C 
BRANCH  19  21
ATOM     20  OE2 UNL     1      53.308  34.530  88.003  0.00  0.00    +0.000 OA
ATOM     21  CD  UNL     1      54.330  33.911  87.767  0.00  0.00    +0.000 C 
BRANCH  21  22
ATOM     22  OE1 UNL     1      54.529  32.656  88.209  0.00  0.00    +0.000 OA
ATOM     23  HE1 UNL     1      53.630  32.271  88.207  0.00  0.00    +0.000 HD
ENDBRANCH  21  22
ENDBRANCH  19  21
ENDBRANCH  13  18
ENDBRANCH   6  11
ENDBRANCH   1   3
BRANCH   1  24
ATOM     24  C   UNL     1      65.943  33.631  85.909  0.00  0.00    +0.000 C 
BRANCH  24  31
ATOM     25  O   UNL     1      69.760  31.315  83.125  0.00  0.00    +0.000 OA
ATOM     26  N   UNL     1      67.694  32.998  84.287  0.00  0.00    +0.000 N 
ATOM     27  N   UNL     1      67.677  35.658  83.090  0.00  0.00    +0.000 N 
ATOM     28  N   UNL     1      69.529  35.068  81.756  0.00  0.00    +0.000 NA
ATOM     29  N   UNL     1      70.398  32.925  81.711  0.00  0.00    +0.000 N 
ATOM     30  N   UNL     1      71.274  34.563  80.351  0.00  0.00    +0.000 N 
ATOM     31  C   UNL     1      66.831  33.936  84.842  0.00  0.00    +0.000 C 
ATOM     32  C   UNL     1      66.927  35.187  84.212  0.00  0.00    +0.000 C 
ATOM     33  C   UNL     1      68.578  33.413  83.253  0.00  0.00    +0.000 A 
ATOM     34  C   UNL     1      68.604  34.675  82.699  0.00  0.00    +0.000 A 
ATOM     35  C   UNL     1      69.601  32.459  82.711  0.00  0.00    +0.000 A 
ATOM     36  C   UNL     1      70.370  34.209  81.294  0.00  0.00    +0.000 A 
ATOM     37  H   UNL     1      68.098  36.582  83.060  0.00  0.00    +0.000 HD
ATOM     38  H   UNL     1      71.113  32.295  81.385  0.00  0.00    +0.000 HD
ATOM     39  H   UNL     1      71.062  35.467  79.937  0.00  0.00    +0.000 HD
ATOM     40  H   UNL     1      71.509  33.865  79.657  0.00  0.00    +0.000 HD
BRANCH  26  42
ATOM     41  O   UNL     1      67.623  30.632  85.167  0.00  0.00    +0.000 OA
ATOM     42  C   UNL     1      67.688  31.740  84.779  0.00  0.00    +0.000 C 
ENDBRANCH  26  42
ENDBRANCH  24  31
ENDBRANCH   1  24
TORSDOF 10
ENDMDL
MODEL 7
REMARK VINA RESULT:      -5.7      3.534      6.001
REMARK  Name = 135403648_CalciumFolinate.pdbqt.pdb
REMARK  10 active torsions:
REMARK  status: ('A' for Active; 'I' for Inactive)
REMARK    1  A    between atoms: N_1  and  C_3
REMARK    2  A    between atoms: N_1  and  C_24
REMARK    3  A    between atoms: C_6  and  C_11
REMARK    4  A    between atoms: CA_13  and  C_15
REMARK    5  A    between atoms: CA_13  and  CB_18
REMARK    6  A    between atoms: C_15  and  O_16
REMARK    7  A    between atoms: CG_19  and  CD_21
REMARK    8  A    between atoms: CD_21  and  OE1_22
REMARK    9  A    between atoms: C_24  and  C_32
REMARK   10  A    between atoms: N_27  and  C_37
REMARK                            x       y       z     vdW  Elec       q    Type
REMARK                         _______ _______ _______ _____ _____    ______ ____
ROOT
ATOM      1  N   UNL     1      61.480  32.128  72.067  0.00  0.00    +0.000 N 
ATOM      2  H   UNL     1      61.920  31.368  72.584  0.00  0.00    +0.000 HD
ENDROOT
BRANCH   1   3
ATOM      3  C   UNL     1      60.882  31.682  70.870  0.00  0.00    +0.000 A 
ATOM      4  C   UNL     1      60.144  32.585  70.099  0.00  0.00    +0.000 A 
ATOM      5  C   UNL     1      60.848  30.328  70.514  0.00  0.00    +0.000 A 
ATOM      6  C   UNL     1      59.463  30.821  68.597  0.00  0.00    +0.000 A 
ATOM      7  C   UNL     1      59.453  32.164  68.963  0.00  0.00    +0.000 A 
ATOM      8  C   UNL     1      60.160  29.900  69.380  0.00  0.00    +0.000 A 
BRANCH   6  11
ATOM      9  O   UNL     1      58.703  29.118  67.191  0.00  0.00    +0.000 OA
ATOM     10  N   UNL     1      58.176  31.291  66.585  0.00  0.00    +0.000 N 
ATOM     11  C   ACE A   0      58.746  30.326  67.395  0.00  0.00    +0.000 C 
ATOM     12  H   UNL     1      58.270  32.272  66.836  0.00  0.00    +0.000 HD
ATOM     13  CA  UNL     1      57.464  31.085  65.417  0.00  0.00    +0.000 C 
BRANCH  13  15
ATOM     14  OXT UNL     1      57.658  33.028  64.038  0.00  0.00    +0.000 OA
ATOM     15  C   UNL     1      56.965  32.308  64.743  0.00  0.00    +0.000 C 
BRANCH  15  16
ATOM     16  O   UNL     1      55.669  32.571  64.967  0.00  0.00    +0.000 OA
ATOM     17  H   UNL     1      55.255  32.572  64.079  0.00  0.00    +0.000 HD
ENDBRANCH  15  16
ENDBRANCH  13  15
BRANCH  13  18
ATOM     18  CB  UNL     1      57.223  29.788  64.895  0.00  0.00    +0.000 C 
ATOM     19  CG  UNL     1      56.962  28.391  64.319  0.00  0.00    +0.000 C 
BRANCH  19  21
ATOM     20  OE2 UNL     1      55.732  26.427  64.015  0.00  0.00    +0.000 OA
ATOM     21  CD  UNL     1      56.721  27.094  63.765  0.00  0.00    +0.000 C 
BRANCH  21  22
ATOM     22  OE1 UNL     1      57.697  26.655  62.951  0.00  0.00    +0.000 OA
ATOM     23  HE1 UNL     1      57.898  27.436  62.397  0.00  0.00    +0.000 HD
ENDBRANCH  21  22
ENDBRANCH  19  21
ENDBRANCH  13  18
ENDBRANCH   6  11
ENDBRANCH   1   3
BRANCH   1  24
ATOM     24  C   UNL     1      60.779  33.123  72.870  0.00  0.00    +0.000 C 
BRANCH  24  31
ATOM     25  O   UNL     1      61.081  35.083  77.743  0.00  0.00    +0.000 OA
ATOM     26  N   UNL     1      60.565  34.419  74.960  0.00  0.00    +0.000 N 
ATOM     27  N   UNL     1      58.333  35.960  73.884  0.00  0.00    +0.000 N 
ATOM     28  N   UNL     1      58.015  36.967  75.992  0.00  0.00    +0.000 NA
ATOM     29  N   UNL     1      59.453  36.615  77.769  0.00  0.00    +0.000 N 
ATOM     30  N   UNL     1      57.680  38.069  77.979  0.00  0.00    +0.000 N 
ATOM     31  C   UNL     1      60.141  34.105  73.673  0.00  0.00    +0.000 C 
ATOM     32  C   UNL     1      59.044  34.883  73.269  0.00  0.00    +0.000 C 
ATOM     33  C   UNL     1      59.831  35.386  75.702  0.00  0.00    +0.000 A 
ATOM     34  C   UNL     1      58.756  36.098  75.219  0.00  0.00    +0.000 A 
ATOM     35  C   UNL     1      60.190  35.665  77.132  0.00  0.00    +0.000 A 
ATOM     36  C   UNL     1      58.376  37.203  77.206  0.00  0.00    +0.000 A 
ATOM     37  H   UNL     1      57.325  36.064  73.813  0.00  0.00    +0.000 HD
ATOM     38  H   UNL     1      59.668  36.763  78.742  0.00  0.00    +0.000 HD
ATOM     39  H   UNL     1      57.023  38.624  77.438  0.00  0.00    +0.000 HD
ATOM     40  H   UNL     1      58.212  38.628  78.634  0.00  0.00    +0.000 HD
BRANCH  26  42
ATOM     41  O   UNL     1      62.551  33.146  75.862  0.00  0.00    +0.000 OA
ATOM     42  C   UNL     1      61.632  33.766  75.469  0.00  0.00    +0.000 C 
ENDBRANCH  26  42
ENDBRANCH  24  31
ENDBRANCH   1  24
TORSDOF 10
ENDMDL
MODEL 8
REMARK VINA RESULT:      -5.6     57.944     59.966
REMARK  Name = 135403648_CalciumFolinate.pdbqt.pdb
REMARK  10 active torsions:
REMARK  status: ('A' for Active; 'I' for Inactive)
REMARK    1  A    between atoms: N_1  and  C_3
REMARK    2  A    between atoms: N_1  and  C_24
REMARK    3  A    between atoms: C_6  and  C_11
REMARK    4  A    between atoms: CA_13  and  C_15
REMARK    5  A    between atoms: CA_13  and  CB_18
REMARK    6  A    between atoms: C_15  and  O_16
REMARK    7  A    between atoms: CG_19  and  CD_21
REMARK    8  A    between atoms: CD_21  and  OE1_22
REMARK    9  A    between atoms: C_24  and  C_32
REMARK   10  A    between atoms: N_27  and  C_37
REMARK                            x       y       z     vdW  Elec       q    Type
REMARK                         _______ _______ _______ _____ _____    ______ ____
ROOT
ATOM      1  N   UNL     1       1.695  14.351  84.875  0.00  0.00    +0.000 N 
ATOM      2  H   UNL     1       1.397  14.651  83.948  0.00  0.00    +0.000 HD
ENDROOT
BRANCH   1   3
ATOM      3  C   UNL     1       2.260  13.059  84.861  0.00  0.00    +0.000 A 
ATOM      4  C   UNL     1       1.588  12.015  85.505  0.00  0.00    +0.000 A 
ATOM      5  C   UNL     1       3.553  12.815  84.383  0.00  0.00    +0.000 A 
ATOM      6  C   UNL     1       3.427  10.507  85.084  0.00  0.00    +0.000 A 
ATOM      7  C   UNL     1       2.157  10.745  85.602  0.00  0.00    +0.000 A 
ATOM      8  C   UNL     1       4.128  11.550  84.476  0.00  0.00    +0.000 A 
BRANCH   6  11
ATOM      9  O   UNL     1       4.846   8.842  84.269  0.00  0.00    +0.000 OA
ATOM     10  N   UNL     1       3.736   8.395  86.252  0.00  0.00    +0.000 N 
ATOM     11  C   ACE A   0       4.072   9.172  85.160  0.00  0.00    +0.000 C 
ATOM     12  H   UNL     1       3.077   8.756  86.938  0.00  0.00    +0.000 HD
ATOM     13  CA  UNL     1       4.197   7.124  86.545  0.00  0.00    +0.000 C 
BRANCH  13  15
ATOM     14  OXT UNL     1       4.016   5.426  88.218  0.00  0.00    +0.000 OA
ATOM     15  C   UNL     1       3.665   6.516  87.789  0.00  0.00    +0.000 C 
BRANCH  15  16
ATOM     16  O   UNL     1       2.752   7.267  88.422  0.00  0.00    +0.000 OA
ATOM     17  H   UNL     1       2.453   7.917  87.753  0.00  0.00    +0.000 HD
ENDBRANCH  15  16
ENDBRANCH  13  15
BRANCH  13  18
ATOM     18  CB  UNL     1       5.122   6.442  85.712  0.00  0.00    +0.000 C 
ATOM     19  CG  UNL     1       6.125   5.701  84.821  0.00  0.00    +0.000 C 
BRANCH  19  21
ATOM     20  OE2 UNL     1       7.944   4.280  84.452  0.00  0.00    +0.000 OA
ATOM     21  CD  UNL     1       7.069   4.999  84.005  0.00  0.00    +0.000 C 
BRANCH  21  22
ATOM     22  OE1 UNL     1       6.922   5.218  82.686  0.00  0.00    +0.000 OA
ATOM     23  HE1 UNL     1       7.220   4.377  82.283  0.00  0.00    +0.000 HD
ENDBRANCH  21  22
ENDBRANCH  19  21
ENDBRANCH  13  18
ENDBRANCH   6  11
ENDBRANCH   1   3
BRANCH   1  24
ATOM     24  C   UNL     1       2.315  15.376  85.707  0.00  0.00    +0.000 C 
BRANCH  24  31
ATOM     25  O   UNL     1       6.661  18.340  85.625  0.00  0.00    +0.000 OA
ATOM     26  N   UNL     1       4.103  17.037  86.082  0.00  0.00    +0.000 N 
ATOM     27  N   UNL     1       2.844  17.973  88.541  0.00  0.00    +0.000 N 
ATOM     28  N   UNL     1       4.714  19.343  88.974  0.00  0.00    +0.000 NA
ATOM     29  N   UNL     1       6.453  19.587  87.469  0.00  0.00    +0.000 N 
ATOM     30  N   UNL     1       6.446  20.777  89.440  0.00  0.00    +0.000 N 
ATOM     31  C   UNL     1       2.930  16.401  86.474  0.00  0.00    +0.000 C 
ATOM     32  C   UNL     1       2.429  16.907  87.684  0.00  0.00    +0.000 C 
ATOM     33  C   UNL     1       4.666  18.020  86.942  0.00  0.00    +0.000 A 
ATOM     34  C   UNL     1       4.100  18.450  88.122  0.00  0.00    +0.000 A 
ATOM     35  C   UNL     1       5.989  18.643  86.605  0.00  0.00    +0.000 A 
ATOM     36  C   UNL     1       5.834  19.879  88.633  0.00  0.00    +0.000 A 
ATOM     37  H   UNL     1       2.803  17.911  89.554  0.00  0.00    +0.000 HD
ATOM     38  H   UNL     1       7.363  19.967  87.262  0.00  0.00    +0.000 HD
ATOM     39  H   UNL     1       5.835  21.103  90.183  0.00  0.00    +0.000 HD
ATOM     40  H   UNL     1       6.945  21.533  88.988  0.00  0.00    +0.000 HD
BRANCH  26  42
ATOM     41  O   UNL     1       5.123  16.320  83.886  0.00  0.00    +0.000 OA
ATOM     42  C   UNL     1       4.682  16.669  84.918  0.00  0.00    +0.000 C 
ENDBRANCH  26  42
ENDBRANCH  24  31
ENDBRANCH   1  24
TORSDOF 10
ENDMDL
MODEL 9
REMARK VINA RESULT:      -5.6      5.618      6.831
REMARK  Name = 135403648_CalciumFolinate.pdbqt.pdb
REMARK  10 active torsions:
REMARK  status: ('A' for Active; 'I' for Inactive)
REMARK    1  A    between atoms: N_1  and  C_3
REMARK    2  A    between atoms: N_1  and  C_24
REMARK    3  A    between atoms: C_6  and  C_11
REMARK    4  A    between atoms: CA_13  and  C_15
REMARK    5  A    between atoms: CA_13  and  CB_18
REMARK    6  A    between atoms: C_15  and  O_16
REMARK    7  A    between atoms: CG_19  and  CD_21
REMARK    8  A    between atoms: CD_21  and  OE1_22
REMARK    9  A    between atoms: C_24  and  C_32
REMARK   10  A    between atoms: N_27  and  C_37
REMARK                            x       y       z     vdW  Elec       q    Type
REMARK                         _______ _______ _______ _____ _____    ______ ____
ROOT
ATOM      1  N   UNL     1      56.896  38.848  72.458  0.00  0.00    +0.000 N 
ATOM      2  H   UNL     1      57.870  38.814  72.161  0.00  0.00    +0.000 HD
ENDROOT
BRANCH   1   3
ATOM      3  C   UNL     1      56.017  38.397  71.450  0.00  0.00    +0.000 A 
ATOM      4  C   UNL     1      54.643  38.609  71.600  0.00  0.00    +0.000 A 
ATOM      5  C   UNL     1      56.447  37.586  70.393  0.00  0.00    +0.000 A 
ATOM      6  C   UNL     1      54.178  37.323  69.610  0.00  0.00    +0.000 A 
ATOM      7  C   UNL     1      53.731  38.092  70.681  0.00  0.00    +0.000 A 
ATOM      8  C   UNL     1      55.542  37.067  69.470  0.00  0.00    +0.000 A 
BRANCH   6  11
ATOM      9  O   UNL     1      53.450  35.621  68.187  0.00  0.00    +0.000 OA
ATOM     10  N   UNL     1      52.203  37.573  68.210  0.00  0.00    +0.000 N 
ATOM     11  C   ACE A   0      53.246  36.756  68.603  0.00  0.00    +0.000 C 
ATOM     12  H   UNL     1      52.120  38.504  68.610  0.00  0.00    +0.000 HD
ATOM     13  CA  UNL     1      51.212  37.277  67.291  0.00  0.00    +0.000 C 
BRANCH  13  15
ATOM     14  OXT UNL     1      50.194  39.050  66.054  0.00  0.00    +0.000 OA
ATOM     15  C   UNL     1      50.212  38.346  67.053  0.00  0.00    +0.000 C 
BRANCH  15  16
ATOM     16  O   UNL     1      49.310  38.486  68.036  0.00  0.00    +0.000 OA
ATOM     17  H   UNL     1      48.849  37.622  68.079  0.00  0.00    +0.000 HD
ENDBRANCH  15  16
ENDBRANCH  13  15
BRANCH  13  18
ATOM     18  CB  UNL     1      51.150  36.028  66.618  0.00  0.00    +0.000 C 
ATOM     19  CG  UNL     1      51.095  34.682  65.887  0.00  0.00    +0.000 C 
BRANCH  19  21
ATOM     20  OE2 UNL     1      50.656  33.298  64.056  0.00  0.00    +0.000 OA
ATOM     21  CD  UNL     1      51.061  33.428  65.197  0.00  0.00    +0.000 C 
BRANCH  21  22
ATOM     22  OE1 UNL     1      51.497  32.387  65.929  0.00  0.00    +0.000 OA
ATOM     23  HE1 UNL     1      51.155  32.582  66.825  0.00  0.00    +0.000 HD
ENDBRANCH  21  22
ENDBRANCH  19  21
ENDBRANCH  13  18
ENDBRANCH   6  11
ENDBRANCH   1   3
BRANCH   1  24
ATOM     24  C   UNL     1      56.637  38.457  73.838  0.00  0.00    +0.000 C 
BRANCH  24  31
ATOM     25  O   UNL     1      58.796  35.246  77.402  0.00  0.00    +0.000 OA
ATOM     26  N   UNL     1      57.298  37.201  75.858  0.00  0.00    +0.000 N 
ATOM     27  N   UNL     1      55.042  38.265  77.371  0.00  0.00    +0.000 N 
ATOM     28  N   UNL     1      55.576  36.836  79.169  0.00  0.00    +0.000 NA
ATOM     29  N   UNL     1      57.473  35.512  79.185  0.00  0.00    +0.000 N 
ATOM     30  N   UNL     1      56.067  35.550  81.008  0.00  0.00    +0.000 N 
ATOM     31  C   UNL     1      56.432  38.056  75.185  0.00  0.00    +0.000 C 
ATOM     32  C   UNL     1      55.367  38.481  75.996  0.00  0.00    +0.000 C 
ATOM     33  C   UNL     1      56.981  36.820  77.191  0.00  0.00    +0.000 A 
ATOM     34  C   UNL     1      55.902  37.289  77.908  0.00  0.00    +0.000 A 
ATOM     35  C   UNL     1      57.830  35.811  77.906  0.00  0.00    +0.000 A 
ATOM     36  C   UNL     1      56.350  35.993  79.760  0.00  0.00    +0.000 A 
ATOM     37  H   UNL     1      54.090  38.122  77.694  0.00  0.00    +0.000 HD
ATOM     38  H   UNL     1      58.019  34.799  79.642  0.00  0.00    +0.000 HD
ATOM     39  H   UNL     1      55.339  36.102  81.454  0.00  0.00    +0.000 HD
ATOM     40  H   UNL     1      56.852  35.375  81.621  0.00  0.00    +0.000 HD
BRANCH  26  42
ATOM     41  O   UNL     1      59.319  36.377  74.587  0.00  0.00    +0.000 OA
ATOM     42  C   UNL     1      58.385  36.734  75.206  0.00  0.00    +0.000 C 
ENDBRANCH  26  42
ENDBRANCH  24  31
ENDBRANCH   1  24
TORSDOF 10
ENDMDL
