MODEL 1
REMARK VINA RESULT:      -7.6      0.000      0.000
REMARK  Name = 14132199_RiccardinD.pdbqt.pdb
REMARK  3 active torsions:
REMARK  status: ('A' for Active; 'I' for Inactive)
REMARK    1  A    between atoms: C_11  and  O_30
REMARK    2  A    between atoms: C_16  and  O_32
REMARK    3  A    between atoms: C_28  and  O_34
REMARK                            x       y       z     vdW  Elec       q    Type
REMARK                         _______ _______ _______ _____ _____    ______ ____
ROOT
ATOM      1  O   UNL     1      61.865  31.529  70.233  0.00  0.00    +0.000 OA
ATOM      2  C   UNL     1      57.695  35.600  74.027  0.00  0.00    +0.000 C 
ATOM      3  C   UNL     1      57.363  36.544  75.056  0.00  0.00    +0.000 A 
ATOM      4  C   UNL     1      58.342  37.036  75.957  0.00  0.00    +0.000 A 
ATOM      5  C   UNL     1      58.219  34.617  72.968  0.00  0.00    +0.000 C 
ATOM      6  C   UNL     1      63.294  34.567  74.932  0.00  0.00    +0.000 C 
ATOM      7  C   UNL     1      59.719  36.495  75.950  0.00  0.00    +0.000 A 
ATOM      8  C   UNL     1      62.225  35.271  75.560  0.00  0.00    +0.000 A 
ATOM      9  C   UNL     1      64.040  33.672  73.940  0.00  0.00    +0.000 C 
ATOM     10  C   UNL     1      58.905  33.742  72.075  0.00  0.00    +0.000 A 
ATOM     11  C   UNL     1      60.848  37.247  75.590  0.00  0.00    +0.000 A 
ATOM     12  C   UNL     1      64.195  32.816  72.816  0.00  0.00    +0.000 A 
ATOM     13  C   UNL     1      59.913  35.134  76.227  0.00  0.00    +0.000 A 
ATOM     14  C   UNL     1      62.088  36.643  75.374  0.00  0.00    +0.000 A 
ATOM     15  C   UNL     1      61.147  34.523  76.026  0.00  0.00    +0.000 A 
ATOM     16  C   UNL     1      57.933  38.038  76.857  0.00  0.00    +0.000 A 
ATOM     17  C   UNL     1      56.044  37.003  75.105  0.00  0.00    +0.000 A 
ATOM     18  C   UNL     1      56.611  38.479  76.914  0.00  0.00    +0.000 A 
ATOM     19  C   UNL     1      55.664  37.954  76.044  0.00  0.00    +0.000 A 
ATOM     20  C   UNL     1      63.036  32.586  72.083  0.00  0.00    +0.000 A 
ATOM     21  C   UNL     1      59.072  32.399  72.417  0.00  0.00    +0.000 A 
ATOM     22  C   UNL     1      59.584  34.277  70.979  0.00  0.00    +0.000 A 
ATOM     23  C   UNL     1      63.019  31.762  70.963  0.00  0.00    +0.000 A 
ATOM     24  C   UNL     1      65.384  32.214  72.432  0.00  0.00    +0.000 A 
ATOM     25  C   UNL     1      60.742  32.189  70.698  0.00  0.00    +0.000 A 
ATOM     26  C   UNL     1      59.986  31.612  71.720  0.00  0.00    +0.000 A 
ATOM     27  C   UNL     1      60.500  33.497  70.277  0.00  0.00    +0.000 A 
ATOM     28  C   UNL     1      64.211  31.159  70.580  0.00  0.00    +0.000 A 
ATOM     29  C   UNL     1      65.387  31.381  71.305  0.00  0.00    +0.000 A 
ENDROOT
BRANCH  11  30
ATOM     30  O   UNL     1      60.729  38.602  75.429  0.00  0.00    +0.000 OA
ATOM     31  H   UNL     1      61.513  39.025  75.828  0.00  0.00    +0.000 HD
ENDBRANCH  11  30
BRANCH  16  32
ATOM     32  O   UNL     1      58.808  38.654  77.713  0.00  0.00    +0.000 OA
ATOM     33  H   UNL     1      58.348  38.743  78.569  0.00  0.00    +0.000 HD
ENDBRANCH  16  32
BRANCH  28  34
ATOM     34  O   UNL     1      64.273  30.336  69.490  0.00  0.00    +0.000 OA
ATOM     35  H   UNL     1      63.640  29.611  69.638  0.00  0.00    +0.000 HD
ENDBRANCH  28  34
TORSDOF 3
ENDMDL
MODEL 2
REMARK VINA RESULT:      -6.9     18.237     20.463
REMARK  Name = 14132199_RiccardinD.pdbqt.pdb
REMARK  3 active torsions:
REMARK  status: ('A' for Active; 'I' for Inactive)
REMARK    1  A    between atoms: C_11  and  O_30
REMARK    2  A    between atoms: C_16  and  O_32
REMARK    3  A    between atoms: C_28  and  O_34
REMARK                            x       y       z     vdW  Elec       q    Type
REMARK                         _______ _______ _______ _____ _____    ______ ____
ROOT
ATOM      1  O   UNL     1      51.391  12.605  75.275  0.00  0.00    +0.000 OA
ATOM      2  C   UNL     1      52.581  19.457  75.345  0.00  0.00    +0.000 C 
ATOM      3  C   UNL     1      52.766  20.751  75.936  0.00  0.00    +0.000 A 
ATOM      4  C   UNL     1      52.642  20.954  77.335  0.00  0.00    +0.000 A 
ATOM      5  C   UNL     1      52.379  18.006  74.876  0.00  0.00    +0.000 C 
ATOM      6  C   UNL     1      51.168  16.135  79.840  0.00  0.00    +0.000 C 
ATOM      7  C   UNL     1      52.192  19.859  78.223  0.00  0.00    +0.000 A 
ATOM      8  C   UNL     1      51.392  17.516  79.565  0.00  0.00    +0.000 A 
ATOM      9  C   UNL     1      50.998  14.631  79.612  0.00  0.00    +0.000 C 
ATOM     10  C   UNL     1      52.170  16.612  74.656  0.00  0.00    +0.000 A 
ATOM     11  C   UNL     1      53.004  19.268  79.202  0.00  0.00    +0.000 A 
ATOM     12  C   UNL     1      50.942  13.423  78.865  0.00  0.00    +0.000 A 
ATOM     13  C   UNL     1      50.918  19.309  78.026  0.00  0.00    +0.000 A 
ATOM     14  C   UNL     1      52.624  18.094  79.855  0.00  0.00    +0.000 A 
ATOM     15  C   UNL     1      50.522  18.146  78.679  0.00  0.00    +0.000 A 
ATOM     16  C   UNL     1      52.950  22.238  77.822  0.00  0.00    +0.000 A 
ATOM     17  C   UNL     1      53.125  21.799  75.085  0.00  0.00    +0.000 A 
ATOM     18  C   UNL     1      53.289  23.286  76.966  0.00  0.00    +0.000 A 
ATOM     19  C   UNL     1      53.367  23.069  75.596  0.00  0.00    +0.000 A 
ATOM     20  C   UNL     1      51.185  13.558  77.502  0.00  0.00    +0.000 A 
ATOM     21  C   UNL     1      50.873  16.129  74.477  0.00  0.00    +0.000 A 
ATOM     22  C   UNL     1      53.232  15.724  74.836  0.00  0.00    +0.000 A 
ATOM     23  C   UNL     1      51.153  12.473  76.634  0.00  0.00    +0.000 A 
ATOM     24  C   UNL     1      50.659  12.173  79.394  0.00  0.00    +0.000 A 
ATOM     25  C   UNL     1      51.674  13.893  74.860  0.00  0.00    +0.000 A 
ATOM     26  C   UNL     1      50.621  14.762  74.567  0.00  0.00    +0.000 A 
ATOM     27  C   UNL     1      52.988  14.356  74.928  0.00  0.00    +0.000 A 
ATOM     28  C   UNL     1      50.869  11.220  77.166  0.00  0.00    +0.000 A 
ATOM     29  C   UNL     1      50.624  11.067  78.535  0.00  0.00    +0.000 A 
ENDROOT
BRANCH  11  30
ATOM     30  O   UNL     1      54.207  19.845  79.514  0.00  0.00    +0.000 OA
ATOM     31  H   UNL     1      54.506  20.361  78.741  0.00  0.00    +0.000 HD
ENDBRANCH  11  30
BRANCH  16  32
ATOM     32  O   UNL     1      52.954  22.531  79.160  0.00  0.00    +0.000 OA
ATOM     33  H   UNL     1      52.550  23.413  79.256  0.00  0.00    +0.000 HD
ENDBRANCH  16  32
BRANCH  28  34
ATOM     34  O   UNL     1      50.821  10.107  76.375  0.00  0.00    +0.000 OA
ATOM     35  H   UNL     1      49.955   9.684  76.523  0.00  0.00    +0.000 HD
ENDBRANCH  28  34
TORSDOF 3
ENDMDL
MODEL 3
REMARK VINA RESULT:      -6.5     47.052     48.676
REMARK  Name = 14132199_RiccardinD.pdbqt.pdb
REMARK  3 active torsions:
REMARK  status: ('A' for Active; 'I' for Inactive)
REMARK    1  A    between atoms: C_11  and  O_30
REMARK    2  A    between atoms: C_16  and  O_32
REMARK    3  A    between atoms: C_28  and  O_34
REMARK                            x       y       z     vdW  Elec       q    Type
REMARK                         _______ _______ _______ _____ _____    ______ ____
ROOT
ATOM      1  O   UNL     1      18.660  21.578  92.752  0.00  0.00    +0.000 OA
ATOM      2  C   UNL     1      16.198  20.110  86.417  0.00  0.00    +0.000 C 
ATOM      3  C   UNL     1      15.911  19.284  85.278  0.00  0.00    +0.000 A 
ATOM      4  C   UNL     1      16.329  17.930  85.218  0.00  0.00    +0.000 A 
ATOM      5  C   UNL     1      16.560  20.846  87.716  0.00  0.00    +0.000 C 
ATOM      6  C   UNL     1      19.290  16.639  89.826  0.00  0.00    +0.000 C 
ATOM      7  C   UNL     1      17.190  17.354  86.276  0.00  0.00    +0.000 A 
ATOM      8  C   UNL     1      18.738  16.625  88.512  0.00  0.00    +0.000 A 
ATOM      9  C   UNL     1      19.692  17.147  91.213  0.00  0.00    +0.000 C 
ATOM     10  C   UNL     1      16.980  21.337  88.988  0.00  0.00    +0.000 A 
ATOM     11  C   UNL     1      16.774  16.338  87.149  0.00  0.00    +0.000 A 
ATOM     12  C   UNL     1      19.801  18.081  92.279  0.00  0.00    +0.000 A 
ATOM     13  C   UNL     1      18.460  17.907  86.490  0.00  0.00    +0.000 A 
ATOM     14  C   UNL     1      17.526  15.987  88.272  0.00  0.00    +0.000 A 
ATOM     15  C   UNL     1      19.224  17.557  87.599  0.00  0.00    +0.000 A 
ATOM     16  C   UNL     1      15.903  17.180  84.106  0.00  0.00    +0.000 A 
ATOM     17  C   UNL     1      15.156  19.851  84.249  0.00  0.00    +0.000 A 
ATOM     18  C   UNL     1      15.166  17.756  83.071  0.00  0.00    +0.000 A 
ATOM     19  C   UNL     1      14.800  19.095  83.139  0.00  0.00    +0.000 A 
ATOM     20  C   UNL     1      19.212  19.318  92.045  0.00  0.00    +0.000 A 
ATOM     21  C   UNL     1      18.263  21.865  89.135  0.00  0.00    +0.000 A 
ATOM     22  C   UNL     1      16.191  21.087  90.112  0.00  0.00    +0.000 A 
ATOM     23  C   UNL     1      19.244  20.343  92.984  0.00  0.00    +0.000 A 
ATOM     24  C   UNL     1      20.445  17.841  93.484  0.00  0.00    +0.000 A 
ATOM     25  C   UNL     1      18.037  21.702  91.524  0.00  0.00    +0.000 A 
ATOM     26  C   UNL     1      18.794  22.062  90.408  0.00  0.00    +0.000 A 
ATOM     27  C   UNL     1      16.714  21.280  91.389  0.00  0.00    +0.000 A 
ATOM     28  C   UNL     1      19.890  20.102  94.191  0.00  0.00    +0.000 A 
ATOM     29  C   UNL     1      20.487  18.861  94.443  0.00  0.00    +0.000 A 
ENDROOT
BRANCH  11  30
ATOM     30  O   UNL     1      15.594  15.685  86.906  0.00  0.00    +0.000 OA
ATOM     31  H   UNL     1      15.192  15.454  87.766  0.00  0.00    +0.000 HD
ENDBRANCH  11  30
BRANCH  16  32
ATOM     32  O   UNL     1      16.168  15.842  83.981  0.00  0.00    +0.000 OA
ATOM     33  H   UNL     1      16.237  15.657  83.026  0.00  0.00    +0.000 HD
ENDBRANCH  16  32
BRANCH  28  34
ATOM     34  O   UNL     1      19.963  21.059  95.163  0.00  0.00    +0.000 OA
ATOM     35  H   UNL     1      20.664  21.684  94.903  0.00  0.00    +0.000 HD
ENDBRANCH  28  34
TORSDOF 3
ENDMDL
MODEL 4
REMARK VINA RESULT:      -6.4     44.774     47.389
REMARK  Name = 14132199_RiccardinD.pdbqt.pdb
REMARK  3 active torsions:
REMARK  status: ('A' for Active; 'I' for Inactive)
REMARK    1  A    between atoms: C_11  and  O_30
REMARK    2  A    between atoms: C_16  and  O_32
REMARK    3  A    between atoms: C_28  and  O_34
REMARK                            x       y       z     vdW  Elec       q    Type
REMARK                         _______ _______ _______ _____ _____    ______ ____
ROOT
ATOM      1  O   UNL     1      23.609  18.235  93.431  0.00  0.00    +0.000 OA
ATOM      2  C   UNL     1      18.046  19.578  89.479  0.00  0.00    +0.000 C 
ATOM      3  C   UNL     1      16.866  20.285  89.070  0.00  0.00    +0.000 A 
ATOM      4  C   UNL     1      16.362  21.384  89.813  0.00  0.00    +0.000 A 
ATOM      5  C   UNL     1      19.333  18.949  90.037  0.00  0.00    +0.000 C 
ATOM      6  C   UNL     1      19.507  22.180  94.412  0.00  0.00    +0.000 C 
ATOM      7  C   UNL     1      16.966  21.762  91.111  0.00  0.00    +0.000 A 
ATOM      8  C   UNL     1      18.436  22.204  93.472  0.00  0.00    +0.000 A 
ATOM      9  C   UNL     1      20.809  21.761  95.100  0.00  0.00    +0.000 C 
ATOM     10  C   UNL     1      20.519  18.525  90.707  0.00  0.00    +0.000 A 
ATOM     11  C   UNL     1      17.643  22.970  91.330  0.00  0.00    +0.000 A 
ATOM     12  C   UNL     1      21.997  21.007  95.295  0.00  0.00    +0.000 A 
ATOM     13  C   UNL     1      16.948  20.833  92.161  0.00  0.00    +0.000 A 
ATOM     14  C   UNL     1      18.392  23.187  92.489  0.00  0.00    +0.000 A 
ATOM     15  C   UNL     1      17.681  21.043  93.326  0.00  0.00    +0.000 A 
ATOM     16  C   UNL     1      15.264  22.072  89.267  0.00  0.00    +0.000 A 
ATOM     17  C   UNL     1      16.257  19.882  87.879  0.00  0.00    +0.000 A 
ATOM     18  C   UNL     1      14.648  21.655  88.088  0.00  0.00    +0.000 A 
ATOM     19  C   UNL     1      15.139  20.553  87.398  0.00  0.00    +0.000 A 
ATOM     20  C   UNL     1      22.246  20.035  94.332  0.00  0.00    +0.000 A 
ATOM     21  C   UNL     1      20.428  17.605  91.753  0.00  0.00    +0.000 A 
ATOM     22  C   UNL     1      21.720  19.190  90.458  0.00  0.00    +0.000 A 
ATOM     23  C   UNL     1      23.360  19.206  94.388  0.00  0.00    +0.000 A 
ATOM     24  C   UNL     1      22.879  21.170  96.353  0.00  0.00    +0.000 A 
ATOM     25  C   UNL     1      22.671  18.168  92.416  0.00  0.00    +0.000 A 
ATOM     26  C   UNL     1      21.512  17.414  92.607  0.00  0.00    +0.000 A 
ATOM     27  C   UNL     1      22.809  19.005  91.309  0.00  0.00    +0.000 A 
ATOM     28  C   UNL     1      24.243  19.370  95.448  0.00  0.00    +0.000 A 
ATOM     29  C   UNL     1      24.008  20.345  96.425  0.00  0.00    +0.000 A 
ENDROOT
BRANCH  11  30
ATOM     30  O   UNL     1      17.585  23.955  90.379  0.00  0.00    +0.000 OA
ATOM     31  H   UNL     1      16.725  24.409  90.464  0.00  0.00    +0.000 HD
ENDBRANCH  11  30
BRANCH  16  32
ATOM     32  O   UNL     1      14.747  23.202  89.846  0.00  0.00    +0.000 OA
ATOM     33  H   UNL     1      15.226  23.959  89.460  0.00  0.00    +0.000 HD
ENDBRANCH  16  32
BRANCH  28  34
ATOM     34  O   UNL     1      25.360  18.593  95.571  0.00  0.00    +0.000 OA
ATOM     35  H   UNL     1      25.081  17.666  95.461  0.00  0.00    +0.000 HD
ENDBRANCH  28  34
TORSDOF 3
ENDMDL
MODEL 5
REMARK VINA RESULT:      -6.4      1.450      2.110
REMARK  Name = 14132199_RiccardinD.pdbqt.pdb
REMARK  3 active torsions:
REMARK  status: ('A' for Active; 'I' for Inactive)
REMARK    1  A    between atoms: C_11  and  O_30
REMARK    2  A    between atoms: C_16  and  O_32
REMARK    3  A    between atoms: C_28  and  O_34
REMARK                            x       y       z     vdW  Elec       q    Type
REMARK                         _______ _______ _______ _____ _____    ______ ____
ROOT
ATOM      1  O   UNL     1      61.942  31.397  68.162  0.00  0.00    +0.000 OA
ATOM      2  C   UNL     1      58.599  34.694  73.292  0.00  0.00    +0.000 C 
ATOM      3  C   UNL     1      58.467  35.377  74.547  0.00  0.00    +0.000 A 
ATOM      4  C   UNL     1      59.576  35.561  75.413  0.00  0.00    +0.000 A 
ATOM      5  C   UNL     1      58.914  33.968  71.974  0.00  0.00    +0.000 C 
ATOM      6  C   UNL     1      64.131  33.075  73.236  0.00  0.00    +0.000 C 
ATOM      7  C   UNL     1      60.886  34.942  75.110  0.00  0.00    +0.000 A 
ATOM      8  C   UNL     1      63.207  33.677  74.139  0.00  0.00    +0.000 A 
ATOM      9  C   UNL     1      64.682  32.401  71.977  0.00  0.00    +0.000 C 
ATOM     10  C   UNL     1      59.416  33.293  70.822  0.00  0.00    +0.000 A 
ATOM     11  C   UNL     1      62.041  35.677  74.803  0.00  0.00    +0.000 A 
ATOM     12  C   UNL     1      64.637  31.839  70.672  0.00  0.00    +0.000 A 
ATOM     13  C   UNL     1      60.971  33.545  75.030  0.00  0.00    +0.000 A 
ATOM     14  C   UNL     1      63.187  35.058  74.300  0.00  0.00    +0.000 A 
ATOM     15  C   UNL     1      62.113  32.916  74.542  0.00  0.00    +0.000 A 
ATOM     16  C   UNL     1      59.361  36.337  76.566  0.00  0.00    +0.000 A 
ATOM     17  C   UNL     1      57.212  35.902  74.863  0.00  0.00    +0.000 A 
ATOM     18  C   UNL     1      58.102  36.843  76.888  0.00  0.00    +0.000 A 
ATOM     19  C   UNL     1      57.024  36.617  76.040  0.00  0.00    +0.000 A 
ATOM     20  C   UNL     1      63.393  31.880  70.052  0.00  0.00    +0.000 A 
ATOM     21  C   UNL     1      59.484  31.899  70.814  0.00  0.00    +0.000 A 
ATOM     22  C   UNL     1      60.031  34.032  69.810  0.00  0.00    +0.000 A 
ATOM     23  C   UNL     1      63.182  31.360  68.780  0.00  0.00    +0.000 A 
ATOM     24  C   UNL     1      65.716  31.267  70.014  0.00  0.00    +0.000 A 
ATOM     25  C   UNL     1      60.943  32.000  68.904  0.00  0.00    +0.000 A 
ATOM     26  C   UNL     1      60.241  31.245  69.844  0.00  0.00    +0.000 A 
ATOM     27  C   UNL     1      60.790  33.385  68.837  0.00  0.00    +0.000 A 
ATOM     28  C   UNL     1      64.264  30.787  68.122  0.00  0.00    +0.000 A 
ATOM     29  C   UNL     1      65.523  30.740  68.731  0.00  0.00    +0.000 A 
ENDROOT
BRANCH  11  30
ATOM     30  O   UNL     1      62.040  37.035  74.982  0.00  0.00    +0.000 OA
ATOM     31  H   UNL     1      61.372  37.420  74.384  0.00  0.00    +0.000 HD
ENDBRANCH  11  30
BRANCH  16  32
ATOM     32  O   UNL     1      60.375  36.659  77.431  0.00  0.00    +0.000 OA
ATOM     33  H   UNL     1      60.552  35.862  77.965  0.00  0.00    +0.000 HD
ENDBRANCH  16  32
BRANCH  28  34
ATOM     34  O   UNL     1      64.134  30.256  66.870  0.00  0.00    +0.000 OA
ATOM     35  H   UNL     1      63.201  30.358  66.607  0.00  0.00    +0.000 HD
ENDBRANCH  28  34
TORSDOF 3
ENDMDL
MODEL 6
REMARK VINA RESULT:      -6.4     44.033     46.760
REMARK  Name = 14132199_RiccardinD.pdbqt.pdb
REMARK  3 active torsions:
REMARK  status: ('A' for Active; 'I' for Inactive)
REMARK    1  A    between atoms: C_11  and  O_30
REMARK    2  A    between atoms: C_16  and  O_32
REMARK    3  A    between atoms: C_28  and  O_34
REMARK                            x       y       z     vdW  Elec       q    Type
REMARK                         _______ _______ _______ _____ _____    ______ ____
ROOT
ATOM      1  O   UNL     1      22.928  19.590  94.555  0.00  0.00    +0.000 OA
ATOM      2  C   UNL     1      18.944  16.713  89.635  0.00  0.00    +0.000 C 
ATOM      3  C   UNL     1      18.201  16.666  88.408  0.00  0.00    +0.000 A 
ATOM      4  C   UNL     1      18.063  17.809  87.579  0.00  0.00    +0.000 A 
ATOM      5  C   UNL     1      19.793  16.923  90.899  0.00  0.00    +0.000 C 
ATOM      6  C   UNL     1      20.583  22.228  89.985  0.00  0.00    +0.000 C 
ATOM      7  C   UNL     1      18.575  19.128  88.014  0.00  0.00    +0.000 A 
ATOM      8  C   UNL     1      19.751  21.415  89.162  0.00  0.00    +0.000 A 
ATOM      9  C   UNL     1      21.509  22.644  91.132  0.00  0.00    +0.000 C 
ATOM     10  C   UNL     1      20.613  17.323  91.995  0.00  0.00    +0.000 A 
ATOM     11  C   UNL     1      19.630  19.800  87.379  0.00  0.00    +0.000 A 
ATOM     12  C   UNL     1      22.271  22.475  92.319  0.00  0.00    +0.000 A 
ATOM     13  C   UNL     1      18.050  19.707  89.178  0.00  0.00    +0.000 A 
ATOM     14  C   UNL     1      20.232  20.922  87.954  0.00  0.00    +0.000 A 
ATOM     15  C   UNL     1      18.633  20.831  89.754  0.00  0.00    +0.000 A 
ATOM     16  C   UNL     1      17.408  17.627  86.347  0.00  0.00    +0.000 A 
ATOM     17  C   UNL     1      17.660  15.435  88.032  0.00  0.00    +0.000 A 
ATOM     18  C   UNL     1      16.852  16.401  85.985  0.00  0.00    +0.000 A 
ATOM     19  C   UNL     1      16.970  15.306  86.833  0.00  0.00    +0.000 A 
ATOM     20  C   UNL     1      22.258  21.191  92.854  0.00  0.00    +0.000 A 
ATOM     21  C   UNL     1      20.026  17.903  93.120  0.00  0.00    +0.000 A 
ATOM     22  C   UNL     1      22.001  17.330  91.845  0.00  0.00    +0.000 A 
ATOM     23  C   UNL     1      22.942  20.867  94.019  0.00  0.00    +0.000 A 
ATOM     24  C   UNL     1      22.987  23.478  92.954  0.00  0.00    +0.000 A 
ATOM     25  C   UNL     1      22.192  18.667  93.834  0.00  0.00    +0.000 A 
ATOM     26  C   UNL     1      20.817  18.570  94.053  0.00  0.00    +0.000 A 
ATOM     27  C   UNL     1      22.800  17.994  92.773  0.00  0.00    +0.000 A 
ATOM     28  C   UNL     1      23.660  21.874  94.655  0.00  0.00    +0.000 A 
ATOM     29  C   UNL     1      23.685  23.171  94.129  0.00  0.00    +0.000 A 
ENDROOT
BRANCH  11  30
ATOM     30  O   UNL     1      20.094  19.338  86.176  0.00  0.00    +0.000 OA
ATOM     31  H   UNL     1      20.221  18.372  86.250  0.00  0.00    +0.000 HD
ENDBRANCH  11  30
BRANCH  16  32
ATOM     32  O   UNL     1      17.293  18.633  85.424  0.00  0.00    +0.000 OA
ATOM     33  H   UNL     1      17.943  19.317  85.672  0.00  0.00    +0.000 HD
ENDBRANCH  16  32
BRANCH  28  34
ATOM     34  O   UNL     1      24.358  21.632  95.804  0.00  0.00    +0.000 OA
ATOM     35  H   UNL     1      23.832  21.009  96.337  0.00  0.00    +0.000 HD
ENDBRANCH  28  34
TORSDOF 3
ENDMDL
MODEL 7
REMARK VINA RESULT:      -6.1     46.387     48.094
REMARK  Name = 14132199_RiccardinD.pdbqt.pdb
REMARK  3 active torsions:
REMARK  status: ('A' for Active; 'I' for Inactive)
REMARK    1  A    between atoms: C_11  and  O_30
REMARK    2  A    between atoms: C_16  and  O_32
REMARK    3  A    between atoms: C_28  and  O_34
REMARK                            x       y       z     vdW  Elec       q    Type
REMARK                         _______ _______ _______ _____ _____    ______ ____
ROOT
ATOM      1  O   UNL     1      15.017  21.325  84.836  0.00  0.00    +0.000 OA
ATOM      2  C   UNL     1      19.009  19.599  90.263  0.00  0.00    +0.000 C 
ATOM      3  C   UNL     1      19.903  18.776  91.025  0.00  0.00    +0.000 A 
ATOM      4  C   UNL     1      20.307  17.495  90.568  0.00  0.00    +0.000 A 
ATOM      5  C   UNL     1      18.071  20.363  89.315  0.00  0.00    +0.000 C 
ATOM      6  C   UNL     1      17.725  16.300  85.713  0.00  0.00    +0.000 C 
ATOM      7  C   UNL     1      19.718  16.906  89.344  0.00  0.00    +0.000 A 
ATOM      8  C   UNL     1      18.429  16.185  86.946  0.00  0.00    +0.000 A 
ATOM      9  C   UNL     1      16.862  16.897  84.598  0.00  0.00    +0.000 C 
ATOM     10  C   UNL     1      17.224  20.900  88.300  0.00  0.00    +0.000 A 
ATOM     11  C   UNL     1      20.448  16.656  88.173  0.00  0.00    +0.000 A 
ATOM     12  C   UNL     1      16.068  17.880  83.948  0.00  0.00    +0.000 A 
ATOM     13  C   UNL     1      18.337  16.665  89.307  0.00  0.00    +0.000 A 
ATOM     14  C   UNL     1      19.814  16.320  86.975  0.00  0.00    +0.000 A 
ATOM     15  C   UNL     1      17.695  16.317  88.122  0.00  0.00    +0.000 A 
ATOM     16  C   UNL     1      21.269  16.817  91.339  0.00  0.00    +0.000 A 
ATOM     17  C   UNL     1      20.405  19.306  92.216  0.00  0.00    +0.000 A 
ATOM     18  C   UNL     1      21.753  17.342  92.537  0.00  0.00    +0.000 A 
ATOM     19  C   UNL     1      21.314  18.584  92.980  0.00  0.00    +0.000 A 
ATOM     20  C   UNL     1      15.923  19.077  84.641  0.00  0.00    +0.000 A 
ATOM     21  C   UNL     1      15.859  20.611  88.316  0.00  0.00    +0.000 A 
ATOM     22  C   UNL     1      17.798  21.523  87.190  0.00  0.00    +0.000 A 
ATOM     23  C   UNL     1      15.166  20.132  84.146  0.00  0.00    +0.000 A 
ATOM     24  C   UNL     1      15.447  17.716  82.719  0.00  0.00    +0.000 A 
ATOM     25  C   UNL     1      15.689  21.382  86.043  0.00  0.00    +0.000 A 
ATOM     26  C   UNL     1      15.081  20.863  87.188  0.00  0.00    +0.000 A 
ATOM     27  C   UNL     1      17.027  21.778  86.058  0.00  0.00    +0.000 A 
ATOM     28  C   UNL     1      14.543  19.966  82.914  0.00  0.00    +0.000 A 
ATOM     29  C   UNL     1      14.681  18.769  82.203  0.00  0.00    +0.000 A 
ENDROOT
BRANCH  11  30
ATOM     30  O   UNL     1      21.814  16.762  88.197  0.00  0.00    +0.000 OA
ATOM     31  H   UNL     1      22.144  16.256  88.964  0.00  0.00    +0.000 HD
ENDBRANCH  11  30
BRANCH  16  32
ATOM     32  O   UNL     1      21.802  15.616  90.953  0.00  0.00    +0.000 OA
ATOM     33  H   UNL     1      21.923  15.660  89.985  0.00  0.00    +0.000 HD
ENDBRANCH  16  32
BRANCH  28  34
ATOM     34  O   UNL     1      13.783  20.959  82.362  0.00  0.00    +0.000 OA
ATOM     35  H   UNL     1      13.289  21.383  83.087  0.00  0.00    +0.000 HD
ENDBRANCH  28  34
TORSDOF 3
ENDMDL
MODEL 8
REMARK VINA RESULT:      -6.1     44.980     47.468
REMARK  Name = 14132199_RiccardinD.pdbqt.pdb
REMARK  3 active torsions:
REMARK  status: ('A' for Active; 'I' for Inactive)
REMARK    1  A    between atoms: C_11  and  O_30
REMARK    2  A    between atoms: C_16  and  O_32
REMARK    3  A    between atoms: C_28  and  O_34
REMARK                            x       y       z     vdW  Elec       q    Type
REMARK                         _______ _______ _______ _____ _____    ______ ____
ROOT
ATOM      1  O   UNL     1      19.016   9.404  83.098  0.00  0.00    +0.000 OA
ATOM      2  C   UNL     1      24.362   6.696  86.625  0.00  0.00    +0.000 C 
ATOM      3  C   UNL     1      25.523   6.715  87.469  0.00  0.00    +0.000 A 
ATOM      4  C   UNL     1      26.073   7.931  87.950  0.00  0.00    +0.000 A 
ATOM      5  C   UNL     1      23.104   6.848  85.756  0.00  0.00    +0.000 C 
ATOM      6  C   UNL     1      23.189  12.288  85.858  0.00  0.00    +0.000 C 
ATOM      7  C   UNL     1      25.544   9.235  87.492  0.00  0.00    +0.000 A 
ATOM      8  C   UNL     1      24.207  11.484  86.450  0.00  0.00    +0.000 A 
ATOM      9  C   UNL     1      21.924  12.669  85.085  0.00  0.00    +0.000 C 
ATOM     10  C   UNL     1      21.954   7.205  84.991  0.00  0.00    +0.000 A 
ATOM     11  C   UNL     1      24.886  10.146  88.333  0.00  0.00    +0.000 A 
ATOM     12  C   UNL     1      20.744  12.448  84.325  0.00  0.00    +0.000 A 
ATOM     13  C   UNL     1      25.613   9.553  86.129  0.00  0.00    +0.000 A 
ATOM     14  C   UNL     1      24.203  11.251  87.821  0.00  0.00    +0.000 A 
ATOM     15  C   UNL     1      24.946  10.658  85.607  0.00  0.00    +0.000 A 
ATOM     16  C   UNL     1      27.144   7.831  88.856  0.00  0.00    +0.000 A 
ATOM     17  C   UNL     1      26.063   5.482  87.845  0.00  0.00    +0.000 A 
ATOM     18  C   UNL     1      27.692   6.600  89.213  0.00  0.00    +0.000 A 
ATOM     19  C   UNL     1      27.157   5.425  88.700  0.00  0.00    +0.000 A 
ATOM     20  C   UNL     1      20.436  11.114  84.083  0.00  0.00    +0.000 A 
ATOM     21  C   UNL     1      22.095   7.521  83.639  0.00  0.00    +0.000 A 
ATOM     22  C   UNL     1      20.744   7.445  85.645  0.00  0.00    +0.000 A 
ATOM     23  C   UNL     1      19.322  10.733  83.344  0.00  0.00    +0.000 A 
ATOM     24  C   UNL     1      19.922  13.447  83.824  0.00  0.00    +0.000 A 
ATOM     25  C   UNL     1      19.896   8.495  83.655  0.00  0.00    +0.000 A 
ATOM     26  C   UNL     1      21.059   8.158  82.960  0.00  0.00    +0.000 A 
ATOM     27  C   UNL     1      19.703   8.083  84.974  0.00  0.00    +0.000 A 
ATOM     28  C   UNL     1      18.499  11.735  82.842  0.00  0.00    +0.000 A 
ATOM     29  C   UNL     1      18.793  13.082  83.079  0.00  0.00    +0.000 A 
ENDROOT
BRANCH  11  30
ATOM     30  O   UNL     1      24.898   9.938  89.688  0.00  0.00    +0.000 OA
ATOM     31  H   UNL     1      25.662   9.368  89.901  0.00  0.00    +0.000 HD
ENDBRANCH  11  30
BRANCH  16  32
ATOM     32  O   UNL     1      27.698   8.931  89.457  0.00  0.00    +0.000 OA
ATOM     33  H   UNL     1      28.666   8.804  89.438  0.00  0.00    +0.000 HD
ENDBRANCH  16  32
BRANCH  28  34
ATOM     34  O   UNL     1      17.386  11.438  82.108  0.00  0.00    +0.000 OA
ATOM     35  H   UNL     1      17.627  10.723  81.492  0.00  0.00    +0.000 HD
ENDBRANCH  28  34
TORSDOF 3
ENDMDL
MODEL 9
REMARK VINA RESULT:      -6.1     24.529     27.514
REMARK  Name = 14132199_RiccardinD.pdbqt.pdb
REMARK  3 active torsions:
REMARK  status: ('A' for Active; 'I' for Inactive)
REMARK    1  A    between atoms: C_11  and  O_30
REMARK    2  A    between atoms: C_16  and  O_32
REMARK    3  A    between atoms: C_28  and  O_34
REMARK                            x       y       z     vdW  Elec       q    Type
REMARK                         _______ _______ _______ _____ _____    ______ ____
ROOT
ATOM      1  O   UNL     1      34.033  21.901  83.765  0.00  0.00    +0.000 OA
ATOM      2  C   UNL     1      40.326  24.655  84.851  0.00  0.00    +0.000 C 
ATOM      3  C   UNL     1      41.718  24.891  84.593  0.00  0.00    +0.000 A 
ATOM      4  C   UNL     1      42.401  24.232  83.539  0.00  0.00    +0.000 A 
ATOM      5  C   UNL     1      38.833  24.311  84.974  0.00  0.00    +0.000 C 
ATOM      6  C   UNL     1      38.920  20.641  80.959  0.00  0.00    +0.000 C 
ATOM      7  C   UNL     1      41.732  23.179  82.743  0.00  0.00    +0.000 A 
ATOM      8  C   UNL     1      40.090  21.308  81.426  0.00  0.00    +0.000 A 
ATOM      9  C   UNL     1      37.456  20.208  80.853  0.00  0.00    +0.000 C 
ATOM     10  C   UNL     1      37.478  23.869  84.909  0.00  0.00    +0.000 A 
ATOM     11  C   UNL     1      41.432  23.307  81.379  0.00  0.00    +0.000 A 
ATOM     12  C   UNL     1      36.078  20.172  81.199  0.00  0.00    +0.000 A 
ATOM     13  C   UNL     1      41.284  22.021  83.395  0.00  0.00    +0.000 A 
ATOM     14  C   UNL     1      40.601  22.395  80.725  0.00  0.00    +0.000 A 
ATOM     15  C   UNL     1      40.465  21.098  82.751  0.00  0.00    +0.000 A 
ATOM     16  C   UNL     1      43.734  24.617  83.305  0.00  0.00    +0.000 A 
ATOM     17  C   UNL     1      42.366  25.837  85.391  0.00  0.00    +0.000 A 
ATOM     18  C   UNL     1      44.383  25.548  84.116  0.00  0.00    +0.000 A 
ATOM     19  C   UNL     1      43.701  26.151  85.166  0.00  0.00    +0.000 A 
ATOM     20  C   UNL     1      35.710  21.005  82.250  0.00  0.00    +0.000 A 
ATOM     21  C   UNL     1      37.102  22.701  85.573  0.00  0.00    +0.000 A 
ATOM     22  C   UNL     1      36.600  24.482  84.014  0.00  0.00    +0.000 A 
ATOM     23  C   UNL     1      34.402  21.074  82.716  0.00  0.00    +0.000 A 
ATOM     24  C   UNL     1      35.123  19.379  80.581  0.00  0.00    +0.000 A 
ATOM     25  C   UNL     1      35.063  22.655  84.298  0.00  0.00    +0.000 A 
ATOM     26  C   UNL     1      35.883  22.093  85.278  0.00  0.00    +0.000 A 
ATOM     27  C   UNL     1      35.380  23.881  83.712  0.00  0.00    +0.000 A 
ATOM     28  C   UNL     1      33.445  20.278  82.096  0.00  0.00    +0.000 A 
ATOM     29  C   UNL     1      33.799  19.436  81.036  0.00  0.00    +0.000 A 
ENDROOT
BRANCH  11  30
ATOM     30  O   UNL     1      41.951  24.361  80.673  0.00  0.00    +0.000 OA
ATOM     31  H   UNL     1      42.034  25.121  81.280  0.00  0.00    +0.000 HD
ENDBRANCH  11  30
BRANCH  16  32
ATOM     32  O   UNL     1      44.467  24.118  82.261  0.00  0.00    +0.000 OA
ATOM     33  H   UNL     1      44.244  23.170  82.188  0.00  0.00    +0.000 HD
ENDBRANCH  16  32
BRANCH  28  34
ATOM     34  O   UNL     1      32.140  20.293  82.498  0.00  0.00    +0.000 OA
ATOM     35  H   UNL     1      31.615  20.662  81.765  0.00  0.00    +0.000 HD
ENDBRANCH  28  34
TORSDOF 3
ENDMDL
