MODEL 1
REMARK VINA RESULT:      -4.2      0.000      0.000
REMARK  Name = 146026348_FluorouracilMononitrate.pdbqt.pdb
REMARK  2 active torsions:
REMARK  status: ('A' for Active; 'I' for Inactive)
REMARK    1  A    between atoms: N_4  and  O_10
REMARK    2  A    between atoms: O_10  and  N_13
REMARK                            x       y       z     vdW  Elec       q    Type
REMARK                         _______ _______ _______ _____ _____    ______ ____
ROOT
ATOM      1  F   UNL     1      11.127   6.102 101.238  0.00  0.00    +0.000 F 
ATOM      2  O   UNL     1      12.812   4.398  99.801  0.00  0.00    +0.000 OA
ATOM      3  O   UNL     1      14.967   8.227  98.197  0.00  0.00    +0.000 OA
ATOM      4  N   UNL     1      13.816   6.286  98.848  0.00  0.00    +0.000 N 
ATOM      5  N   UNL     1      12.022   6.549 100.344  0.00  0.00    +0.000 N 
ATOM      6  C   UNL     1      12.867   5.618  99.672  0.00  0.00    +0.000 A 
ATOM      7  C   UNL     1      14.057   7.659  98.777  0.00  0.00    +0.000 A 
ATOM      8  C   UNL     1      13.079   8.383  99.557  0.00  0.00    +0.000 A 
ATOM      9  C   UNL     1      12.223   7.874 100.215  0.00  0.00    +0.000 A 
ENDROOT
BRANCH   4  10
ATOM     10  O   UNL     1      14.758   5.457  98.213  0.00  0.00    +0.000 OA
BRANCH  10  13
ATOM     11  O   UNL     1      14.972   5.913  96.021  0.00  0.00    +0.000 OA
ATOM     12  O   UNL     1      13.728   4.190  96.715  0.00  0.00    +0.000 OA
ATOM     13  N   UNL     1      14.459   5.166  96.858  0.00  0.00    +0.000 N 
ENDBRANCH  10  13
ENDBRANCH   4  10
TORSDOF 2
ENDMDL
MODEL 2
REMARK VINA RESULT:      -4.1     45.870     47.136
REMARK  Name = 146026348_FluorouracilMononitrate.pdbqt.pdb
REMARK  2 active torsions:
REMARK  status: ('A' for Active; 'I' for Inactive)
REMARK    1  A    between atoms: N_4  and  O_10
REMARK    2  A    between atoms: O_10  and  N_13
REMARK                            x       y       z     vdW  Elec       q    Type
REMARK                         _______ _______ _______ _____ _____    ______ ____
ROOT
ATOM      1  F   UNL     1      46.707  37.761  86.120  0.00  0.00    +0.000 F 
ATOM      2  O   UNL     1      45.432  35.597  84.893  0.00  0.00    +0.000 OA
ATOM      3  O   UNL     1      46.411  37.618  80.790  0.00  0.00    +0.000 OA
ATOM      4  N   UNL     1      45.758  36.649  82.828  0.00  0.00    +0.000 N 
ATOM      5  N   UNL     1      46.463  37.713  84.801  0.00  0.00    +0.000 N 
ATOM      6  C   UNL     1      45.834  36.560  84.246  0.00  0.00    +0.000 A 
ATOM      7  C   UNL     1      46.337  37.619  82.008  0.00  0.00    +0.000 A 
ATOM      8  C   UNL     1      46.925  38.669  82.808  0.00  0.00    +0.000 A 
ATOM      9  C   UNL     1      46.960  38.675  84.000  0.00  0.00    +0.000 A 
ENDROOT
BRANCH   4  10
ATOM     10  O   UNL     1      45.236  35.517  82.176  0.00  0.00    +0.000 OA
BRANCH  10  13
ATOM     11  O   UNL     1      43.681  35.810  80.577  0.00  0.00    +0.000 OA
ATOM     12  O   UNL     1      43.088  35.558  82.719  0.00  0.00    +0.000 OA
ATOM     13  N   UNL     1      43.880  35.643  81.784  0.00  0.00    +0.000 N 
ENDBRANCH  10  13
ENDBRANCH   4  10
TORSDOF 2
ENDMDL
MODEL 3
REMARK VINA RESULT:      -4.1     38.228     38.947
REMARK  Name = 146026348_FluorouracilMononitrate.pdbqt.pdb
REMARK  2 active torsions:
REMARK  status: ('A' for Active; 'I' for Inactive)
REMARK    1  A    between atoms: N_4  and  O_10
REMARK    2  A    between atoms: O_10  and  N_13
REMARK                            x       y       z     vdW  Elec       q    Type
REMARK                         _______ _______ _______ _____ _____    ______ ____
ROOT
ATOM      1  F   UNL     1      44.457  24.392  87.222  0.00  0.00    +0.000 F 
ATOM      2  O   UNL     1      43.395  26.943  86.807  0.00  0.00    +0.000 OA
ATOM      3  O   UNL     1      42.640  25.676  82.368  0.00  0.00    +0.000 OA
ATOM      4  N   UNL     1      43.147  26.410  84.541  0.00  0.00    +0.000 N 
ATOM      5  N   UNL     1      44.110  24.846  86.008  0.00  0.00    +0.000 N 
ATOM      6  C   UNL     1      43.547  26.150  85.882  0.00  0.00    +0.000 A 
ATOM      7  C   UNL     1      43.126  25.509  83.475  0.00  0.00    +0.000 A 
ATOM      8  C   UNL     1      43.735  24.257  83.860  0.00  0.00    +0.000 A 
ATOM      9  C   UNL     1      44.144  24.009  84.953  0.00  0.00    +0.000 A 
ENDROOT
BRANCH   4  10
ATOM     10  O   UNL     1      42.493  27.637  84.330  0.00  0.00    +0.000 OA
BRANCH  10  13
ATOM     11  O   UNL     1      42.737  29.620  83.296  0.00  0.00    +0.000 OA
ATOM     12  O   UNL     1      44.523  28.423  83.912  0.00  0.00    +0.000 OA
ATOM     13  N   UNL     1      43.322  28.654  83.793  0.00  0.00    +0.000 N 
ENDBRANCH  10  13
ENDBRANCH   4  10
TORSDOF 2
ENDMDL
MODEL 4
REMARK VINA RESULT:      -3.9     44.866     46.178
REMARK  Name = 146026348_FluorouracilMononitrate.pdbqt.pdb
REMARK  2 active torsions:
REMARK  status: ('A' for Active; 'I' for Inactive)
REMARK    1  A    between atoms: N_4  and  O_10
REMARK    2  A    between atoms: O_10  and  N_13
REMARK                            x       y       z     vdW  Elec       q    Type
REMARK                         _______ _______ _______ _____ _____    ______ ____
ROOT
ATOM      1  F   UNL     1      49.693  17.108  76.410  0.00  0.00    +0.000 F 
ATOM      2  O   UNL     1      50.087  19.128  78.300  0.00  0.00    +0.000 OA
ATOM      3  O   UNL     1      53.383  20.849  75.463  0.00  0.00    +0.000 OA
ATOM      4  N   UNL     1      51.852  19.932  76.990  0.00  0.00    +0.000 N 
ATOM      5  N   UNL     1      50.690  18.002  76.321  0.00  0.00    +0.000 N 
ATOM      6  C   UNL     1      50.807  19.021  77.311  0.00  0.00    +0.000 A 
ATOM      7  C   UNL     1      52.598  19.982  75.811  0.00  0.00    +0.000 A 
ATOM      8  C   UNL     1      52.285  18.852  74.968  0.00  0.00    +0.000 A 
ATOM      9  C   UNL     1      51.462  18.025  75.219  0.00  0.00    +0.000 A 
ENDROOT
BRANCH   4  10
ATOM     10  O   UNL     1      51.989  21.030  77.858  0.00  0.00    +0.000 OA
BRANCH  10  13
ATOM     11  O   UNL     1      53.746  19.987  78.797  0.00  0.00    +0.000 OA
ATOM     12  O   UNL     1      52.512  21.435  79.973  0.00  0.00    +0.000 OA
ATOM     13  N   UNL     1      52.826  20.790  78.976  0.00  0.00    +0.000 N 
ENDBRANCH  10  13
ENDBRANCH   4  10
TORSDOF 2
ENDMDL
MODEL 5
REMARK VINA RESULT:      -3.8     43.212     44.294
REMARK  Name = 146026348_FluorouracilMononitrate.pdbqt.pdb
REMARK  2 active torsions:
REMARK  status: ('A' for Active; 'I' for Inactive)
REMARK    1  A    between atoms: N_4  and  O_10
REMARK    2  A    between atoms: O_10  and  N_13
REMARK                            x       y       z     vdW  Elec       q    Type
REMARK                         _______ _______ _______ _____ _____    ______ ____
ROOT
ATOM      1  F   UNL     1      39.385  37.474  84.627  0.00  0.00    +0.000 F 
ATOM      2  O   UNL     1      41.482  36.227  85.990  0.00  0.00    +0.000 OA
ATOM      3  O   UNL     1      43.438  35.426  81.818  0.00  0.00    +0.000 OA
ATOM      4  N   UNL     1      42.418  35.663  83.920  0.00  0.00    +0.000 N 
ATOM      5  N   UNL     1      40.369  36.811  83.998  0.00  0.00    +0.000 N 
ATOM      6  C   UNL     1      41.420  36.226  84.763  0.00  0.00    +0.000 A 
ATOM      7  C   UNL     1      42.510  35.768  82.531  0.00  0.00    +0.000 A 
ATOM      8  C   UNL     1      41.333  36.414  81.995  0.00  0.00    +0.000 A 
ATOM      9  C   UNL     1      40.438  36.847  82.654  0.00  0.00    +0.000 A 
ENDROOT
BRANCH   4  10
ATOM     10  O   UNL     1      43.546  35.141  84.578  0.00  0.00    +0.000 OA
BRANCH  10  13
ATOM     11  O   UNL     1      45.756  35.488  84.350  0.00  0.00    +0.000 OA
ATOM     12  O   UNL     1      44.378  37.178  84.846  0.00  0.00    +0.000 OA
ATOM     13  N   UNL     1      44.665  36.010  84.595  0.00  0.00    +0.000 N 
ENDBRANCH  10  13
ENDBRANCH   4  10
TORSDOF 2
ENDMDL
MODEL 6
REMARK VINA RESULT:      -3.8     38.017     39.213
REMARK  Name = 146026348_FluorouracilMononitrate.pdbqt.pdb
REMARK  2 active torsions:
REMARK  status: ('A' for Active; 'I' for Inactive)
REMARK    1  A    between atoms: N_4  and  O_10
REMARK    2  A    between atoms: O_10  and  N_13
REMARK                            x       y       z     vdW  Elec       q    Type
REMARK                         _______ _______ _______ _____ _____    ______ ____
ROOT
ATOM      1  F   UNL     1      46.594  26.939  86.641  0.00  0.00    +0.000 F 
ATOM      2  O   UNL     1      44.075  28.110  86.950  0.00  0.00    +0.000 OA
ATOM      3  O   UNL     1      42.918  26.203  82.839  0.00  0.00    +0.000 OA
ATOM      4  N   UNL     1      43.505  27.311  84.825  0.00  0.00    +0.000 N 
ATOM      5  N   UNL     1      45.662  26.925  85.676  0.00  0.00    +0.000 N 
ATOM      6  C   UNL     1      44.389  27.519  85.920  0.00  0.00    +0.000 A 
ATOM      7  C   UNL     1      43.724  26.512  83.701  0.00  0.00    +0.000 A 
ATOM      8  C   UNL     1      45.080  26.014  83.693  0.00  0.00    +0.000 A 
ATOM      9  C   UNL     1      45.881  26.211  84.555  0.00  0.00    +0.000 A 
ENDROOT
BRANCH   4  10
ATOM     10  O   UNL     1      42.192  27.780  85.007  0.00  0.00    +0.000 OA
BRANCH  10  13
ATOM     11  O   UNL     1      40.925  27.619  86.858  0.00  0.00    +0.000 OA
ATOM     12  O   UNL     1      41.339  25.821  85.594  0.00  0.00    +0.000 OA
ATOM     13  N   UNL     1      41.416  27.007  85.906  0.00  0.00    +0.000 N 
ENDBRANCH  10  13
ENDBRANCH   4  10
TORSDOF 2
ENDMDL
MODEL 7
REMARK VINA RESULT:      -3.7     39.752     40.727
REMARK  Name = 146026348_FluorouracilMononitrate.pdbqt.pdb
REMARK  2 active torsions:
REMARK  status: ('A' for Active; 'I' for Inactive)
REMARK    1  A    between atoms: N_4  and  O_10
REMARK    2  A    between atoms: O_10  and  N_13
REMARK                            x       y       z     vdW  Elec       q    Type
REMARK                         _______ _______ _______ _____ _____    ______ ____
ROOT
ATOM      1  F   UNL     1      47.879  26.976  87.363  0.00  0.00    +0.000 F 
ATOM      2  O   UNL     1      45.806  28.331  86.067  0.00  0.00    +0.000 OA
ATOM      3  O   UNL     1      45.819  24.888  82.902  0.00  0.00    +0.000 OA
ATOM      4  N   UNL     1      45.885  26.716  84.375  0.00  0.00    +0.000 N 
ATOM      5  N   UNL     1      47.401  26.600  86.167  0.00  0.00    +0.000 N 
ATOM      6  C   UNL     1      46.321  27.326  85.584  0.00  0.00    +0.000 A 
ATOM      7  C   UNL     1      46.297  25.490  83.849  0.00  0.00    +0.000 A 
ATOM      8  C   UNL     1      47.387  24.949  84.626  0.00  0.00    +0.000 A 
ATOM      9  C   UNL     1      47.833  25.452  85.613  0.00  0.00    +0.000 A 
ENDROOT
BRANCH   4  10
ATOM     10  O   UNL     1      44.761  27.305  83.768  0.00  0.00    +0.000 OA
BRANCH  10  13
ATOM     11  O   UNL     1      43.248  26.450  85.197  0.00  0.00    +0.000 OA
ATOM     12  O   UNL     1      42.945  26.305  82.986  0.00  0.00    +0.000 OA
ATOM     13  N   UNL     1      43.543  26.623  84.011  0.00  0.00    +0.000 N 
ENDBRANCH  10  13
ENDBRANCH   4  10
TORSDOF 2
ENDMDL
MODEL 8
REMARK VINA RESULT:      -3.7     44.572     45.877
REMARK  Name = 146026348_FluorouracilMononitrate.pdbqt.pdb
REMARK  2 active torsions:
REMARK  status: ('A' for Active; 'I' for Inactive)
REMARK    1  A    between atoms: N_4  and  O_10
REMARK    2  A    between atoms: O_10  and  N_13
REMARK                            x       y       z     vdW  Elec       q    Type
REMARK                         _______ _______ _______ _____ _____    ______ ____
ROOT
ATOM      1  F   UNL     1      40.696  35.812  83.728  0.00  0.00    +0.000 F 
ATOM      2  O   UNL     1      41.515  36.256  81.093  0.00  0.00    +0.000 OA
ATOM      3  O   UNL     1      45.921  35.937  82.631  0.00  0.00    +0.000 OA
ATOM      4  N   UNL     1      43.732  36.265  81.843  0.00  0.00    +0.000 N 
ATOM      5  N   UNL     1      41.981  35.999  83.388  0.00  0.00    +0.000 N 
ATOM      6  C   UNL     1      42.322  36.191  82.017  0.00  0.00    +0.000 A 
ATOM      7  C   UNL     1      44.717  36.031  82.805  0.00  0.00    +0.000 A 
ATOM      8  C   UNL     1      44.117  35.848  84.106  0.00  0.00    +0.000 A 
ATOM      9  C   UNL     1      42.942  35.841  84.317  0.00  0.00    +0.000 A 
ENDROOT
BRANCH   4  10
ATOM     10  O   UNL     1      44.176  36.360  80.512  0.00  0.00    +0.000 OA
BRANCH  10  13
ATOM     11  O   UNL     1      43.694  38.516  80.089  0.00  0.00    +0.000 OA
ATOM     12  O   UNL     1      45.785  37.750  79.887  0.00  0.00    +0.000 OA
ATOM     13  N   UNL     1      44.583  37.661  80.125  0.00  0.00    +0.000 N 
ENDBRANCH  10  13
ENDBRANCH   4  10
TORSDOF 2
ENDMDL
MODEL 9
REMARK VINA RESULT:      -3.6     43.893     45.216
REMARK  Name = 146026348_FluorouracilMononitrate.pdbqt.pdb
REMARK  2 active torsions:
REMARK  status: ('A' for Active; 'I' for Inactive)
REMARK    1  A    between atoms: N_4  and  O_10
REMARK    2  A    between atoms: O_10  and  N_13
REMARK                            x       y       z     vdW  Elec       q    Type
REMARK                         _______ _______ _______ _____ _____    ______ ____
ROOT
ATOM      1  F   UNL     1      40.978  39.051  81.837  0.00  0.00    +0.000 F 
ATOM      2  O   UNL     1      43.337  37.700  81.187  0.00  0.00    +0.000 OA
ATOM      3  O   UNL     1      42.206  34.576  84.480  0.00  0.00    +0.000 OA
ATOM      4  N   UNL     1      42.894  36.203  82.931  0.00  0.00    +0.000 N 
ATOM      5  N   UNL     1      41.434  38.004  82.542  0.00  0.00    +0.000 N 
ATOM      6  C   UNL     1      42.631  37.349  82.129  0.00  0.00    +0.000 A 
ATOM      7  C   UNL     1      42.062  35.641  83.901  0.00  0.00    +0.000 A 
ATOM      8  C   UNL     1      40.910  36.482  84.126  0.00  0.00    +0.000 A 
ATOM      9  C   UNL     1      40.674  37.485  83.525  0.00  0.00    +0.000 A 
ENDROOT
BRANCH   4  10
ATOM     10  O   UNL     1      44.006  35.433  82.545  0.00  0.00    +0.000 OA
BRANCH  10  13
ATOM     11  O   UNL     1      45.307  35.611  84.371  0.00  0.00    +0.000 OA
ATOM     12  O   UNL     1      46.036  36.305  82.375  0.00  0.00    +0.000 OA
ATOM     13  N   UNL     1      45.224  35.819  83.158  0.00  0.00    +0.000 N 
ENDBRANCH  10  13
ENDBRANCH   4  10
TORSDOF 2
ENDMDL
