MODEL 1
REMARK VINA RESULT:      -8.3      0.000      0.000
REMARK  Name = 179268_Nortopsentin.pdbqt.pdb
REMARK  2 active torsions:
REMARK  status: ('A' for Active; 'I' for Inactive)
REMARK    1  A    between atoms: C_3  and  C_9
REMARK    2  A    between atoms: C_4  and  C_20
REMARK                            x       y       z     vdW  Elec       q    Type
REMARK                         _______ _______ _______ _____ _____    ______ ____
ROOT
ATOM      1  N   UNL     1      57.348  35.443  77.881  0.00  0.00    +0.000 N 
ATOM      2  N   UNL     1      55.249  35.342  77.188  0.00  0.00    +0.000 NA
ATOM      3  C   UNL     1      56.642  34.888  78.912  0.00  0.00    +0.000 A 
ATOM      4  C   UNL     1      56.471  35.704  76.857  0.00  0.00    +0.000 A 
ATOM      5  C   UNL     1      55.343  34.834  78.461  0.00  0.00    +0.000 A 
ATOM      6  H   UNL     1      58.338  35.634  77.861  0.00  0.00    +0.000 HD
ENDROOT
BRANCH   3   9
ATOM      7 BR   UNL     1      57.946  36.558  85.852  0.00  0.00    +0.000 Br
ATOM      8  N   UNL     1      58.090  33.130  81.750  0.00  0.00    +0.000 N 
ATOM      9  C   UNL     1      57.171  34.447  80.218  0.00  0.00    +0.000 A 
ATOM     10  C   UNL     1      57.239  35.173  81.442  0.00  0.00    +0.000 A 
ATOM     11  C   UNL     1      57.821  34.320  82.386  0.00  0.00    +0.000 A 
ATOM     12  C   UNL     1      57.701  33.198  80.442  0.00  0.00    +0.000 A 
ATOM     13  C   UNL     1      56.867  36.469  81.849  0.00  0.00    +0.000 A 
ATOM     14  C   UNL     1      58.049  34.697  83.714  0.00  0.00    +0.000 A 
ATOM     15  C   UNL     1      57.085  36.865  83.169  0.00  0.00    +0.000 A 
ATOM     16  C   UNL     1      57.666  35.988  84.077  0.00  0.00    +0.000 A 
ATOM     17  H   UNL     1      58.514  32.322  82.186  0.00  0.00    +0.000 HD
ENDBRANCH   3   9
BRANCH   4  20
ATOM     18 BR   UNL     1      56.285  41.594  72.640  0.00  0.00    +0.000 Br
ATOM     19  N   UNL     1      57.722  36.520  73.526  0.00  0.00    +0.000 N 
ATOM     20  C   UNL     1      56.854  36.309  75.557  0.00  0.00    +0.000 A 
ATOM     21  C   UNL     1      56.587  37.629  75.098  0.00  0.00    +0.000 A 
ATOM     22  C   UNL     1      57.142  37.733  73.820  0.00  0.00    +0.000 A 
ATOM     23  C   UNL     1      57.553  35.652  74.570  0.00  0.00    +0.000 A 
ATOM     24  C   UNL     1      55.927  38.750  75.640  0.00  0.00    +0.000 A 
ATOM     25  C   UNL     1      57.074  38.900  73.053  0.00  0.00    +0.000 A 
ATOM     26  C   UNL     1      55.846  39.925  74.890  0.00  0.00    +0.000 A 
ATOM     27  C   UNL     1      56.412  39.988  73.624  0.00  0.00    +0.000 A 
ATOM     28  H   UNL     1      58.202  36.304  72.663  0.00  0.00    +0.000 HD
ENDBRANCH   4  20
TORSDOF 2
ENDMDL
MODEL 2
REMARK VINA RESULT:      -7.8      4.047      5.924
REMARK  Name = 179268_Nortopsentin.pdbqt.pdb
REMARK  2 active torsions:
REMARK  status: ('A' for Active; 'I' for Inactive)
REMARK    1  A    between atoms: C_3  and  C_9
REMARK    2  A    between atoms: C_4  and  C_20
REMARK                            x       y       z     vdW  Elec       q    Type
REMARK                         _______ _______ _______ _____ _____    ______ ____
ROOT
ATOM      1  N   UNL     1      57.625  35.214  74.206  0.00  0.00    +0.000 N 
ATOM      2  N   UNL     1      58.624  37.073  73.544  0.00  0.00    +0.000 NA
ATOM      3  C   UNL     1      57.498  36.094  75.245  0.00  0.00    +0.000 A 
ATOM      4  C   UNL     1      58.311  35.842  73.197  0.00  0.00    +0.000 A 
ATOM      5  C   UNL     1      58.125  37.241  74.813  0.00  0.00    +0.000 A 
ATOM      6  H   UNL     1      57.281  34.266  74.172  0.00  0.00    +0.000 HD
ENDROOT
BRANCH   3   9
ATOM      7 BR   UNL     1      58.195  34.160  82.203  0.00  0.00    +0.000 Br
ATOM      8  N   UNL     1      55.208  35.704  78.046  0.00  0.00    +0.000 N 
ATOM      9  C   UNL     1      56.833  35.854  76.541  0.00  0.00    +0.000 A 
ATOM     10  C   UNL     1      57.411  35.442  77.775  0.00  0.00    +0.000 A 
ATOM     11  C   UNL     1      56.367  35.357  78.702  0.00  0.00    +0.000 A 
ATOM     12  C   UNL     1      55.481  36.006  76.741  0.00  0.00    +0.000 A 
ATOM     13  C   UNL     1      58.716  35.132  78.206  0.00  0.00    +0.000 A 
ATOM     14  C   UNL     1      56.559  34.977  80.035  0.00  0.00    +0.000 A 
ATOM     15  C   UNL     1      58.931  34.751  79.531  0.00  0.00    +0.000 A 
ATOM     16  C   UNL     1      57.866  34.678  80.420  0.00  0.00    +0.000 A 
ATOM     17  H   UNL     1      54.289  35.733  78.465  0.00  0.00    +0.000 HD
ENDBRANCH   3   9
BRANCH   4  20
ATOM     18 BR   UNL     1      60.544  29.867  69.759  0.00  0.00    +0.000 Br
ATOM     19  N   UNL     1      58.966  34.976  69.712  0.00  0.00    +0.000 N 
ATOM     20  C   UNL     1      58.650  35.216  71.895  0.00  0.00    +0.000 A 
ATOM     21  C   UNL     1      59.090  33.884  71.656  0.00  0.00    +0.000 A 
ATOM     22  C   UNL     1      59.280  33.762  70.277  0.00  0.00    +0.000 A 
ATOM     23  C   UNL     1      58.584  35.863  70.682  0.00  0.00    +0.000 A 
ATOM     24  C   UNL     1      59.345  32.766  72.474  0.00  0.00    +0.000 A 
ATOM     25  C   UNL     1      59.713  32.579  69.671  0.00  0.00    +0.000 A 
ATOM     26  C   UNL     1      59.780  31.575  71.889  0.00  0.00    +0.000 A 
ATOM     27  C   UNL     1      59.957  31.494  70.515  0.00  0.00    +0.000 A 
ATOM     28  H   UNL     1      59.012  35.181  68.723  0.00  0.00    +0.000 HD
ENDBRANCH   4  20
TORSDOF 2
ENDMDL
MODEL 3
REMARK VINA RESULT:      -7.8      2.254      3.854
REMARK  Name = 179268_Nortopsentin.pdbqt.pdb
REMARK  2 active torsions:
REMARK  status: ('A' for Active; 'I' for Inactive)
REMARK    1  A    between atoms: C_3  and  C_9
REMARK    2  A    between atoms: C_4  and  C_20
REMARK                            x       y       z     vdW  Elec       q    Type
REMARK                         _______ _______ _______ _____ _____    ______ ____
ROOT
ATOM      1  N   UNL     1      56.758  35.781  81.511  0.00  0.00    +0.000 N 
ATOM      2  N   UNL     1      58.285  34.635  80.393  0.00  0.00    +0.000 NA
ATOM      3  C   UNL     1      57.680  35.387  82.440  0.00  0.00    +0.000 A 
ATOM      4  C   UNL     1      57.158  35.308  80.287  0.00  0.00    +0.000 A 
ATOM      5  C   UNL     1      58.619  34.677  81.725  0.00  0.00    +0.000 A 
ATOM      6  H   UNL     1      55.925  36.325  81.680  0.00  0.00    +0.000 HD
ENDROOT
BRANCH   3   9
ATOM      7 BR   UNL     1      56.171  40.121  87.727  0.00  0.00    +0.000 Br
ATOM      8  N   UNL     1      57.922  35.348  86.071  0.00  0.00    +0.000 N 
ATOM      9  C   UNL     1      57.662  35.667  83.889  0.00  0.00    +0.000 A 
ATOM     10  C   UNL     1      57.244  36.851  84.562  0.00  0.00    +0.000 A 
ATOM     11  C   UNL     1      57.419  36.621  85.931  0.00  0.00    +0.000 A 
ATOM     12  C   UNL     1      58.072  34.765  84.844  0.00  0.00    +0.000 A 
ATOM     13  C   UNL     1      56.734  38.098  84.152  0.00  0.00    +0.000 A 
ATOM     14  C   UNL     1      57.111  37.573  86.909  0.00  0.00    +0.000 A 
ATOM     15  C   UNL     1      56.419  39.062  85.110  0.00  0.00    +0.000 A 
ATOM     16  C   UNL     1      56.608  38.794  86.461  0.00  0.00    +0.000 A 
ATOM     17  H   UNL     1      58.149  34.906  86.951  0.00  0.00    +0.000 HD
ENDBRANCH   3   9
BRANCH   4  20
ATOM     18 BR   UNL     1      56.166  39.596  74.530  0.00  0.00    +0.000 Br
ATOM     19  N   UNL     1      54.999  35.201  77.344  0.00  0.00    +0.000 N 
ATOM     20  C   UNL     1      56.418  35.528  79.018  0.00  0.00    +0.000 A 
ATOM     21  C   UNL     1      56.553  36.613  78.107  0.00  0.00    +0.000 A 
ATOM     22  C   UNL     1      55.650  36.381  77.067  0.00  0.00    +0.000 A 
ATOM     23  C   UNL     1      55.457  34.677  78.523  0.00  0.00    +0.000 A 
ATOM     24  C   UNL     1      57.353  37.771  78.062  0.00  0.00    +0.000 A 
ATOM     25  C   UNL     1      55.504  37.248  75.979  0.00  0.00    +0.000 A 
ATOM     26  C   UNL     1      57.223  38.651  76.985  0.00  0.00    +0.000 A 
ATOM     27  C   UNL     1      56.314  38.385  75.970  0.00  0.00    +0.000 A 
ATOM     28  H   UNL     1      54.287  34.784  76.760  0.00  0.00    +0.000 HD
ENDBRANCH   4  20
TORSDOF 2
ENDMDL
MODEL 4
REMARK VINA RESULT:      -7.8      2.662      9.469
REMARK  Name = 179268_Nortopsentin.pdbqt.pdb
REMARK  2 active torsions:
REMARK  status: ('A' for Active; 'I' for Inactive)
REMARK    1  A    between atoms: C_3  and  C_9
REMARK    2  A    between atoms: C_4  and  C_20
REMARK                            x       y       z     vdW  Elec       q    Type
REMARK                         _______ _______ _______ _____ _____    ______ ____
ROOT
ATOM      1  N   UNL     1      56.355  36.534  81.739  0.00  0.00    +0.000 N 
ATOM      2  N   UNL     1      58.037  35.321  82.509  0.00  0.00    +0.000 NA
ATOM      3  C   UNL     1      56.772  35.766  80.687  0.00  0.00    +0.000 A 
ATOM      4  C   UNL     1      57.144  36.237  82.821  0.00  0.00    +0.000 A 
ATOM      5  C   UNL     1      57.816  35.021  81.186  0.00  0.00    +0.000 A 
ATOM      6  H   UNL     1      55.602  37.205  81.735  0.00  0.00    +0.000 HD
ENDROOT
BRANCH   3   9
ATOM      7 BR   UNL     1      56.350  39.035  74.223  0.00  0.00    +0.000 Br
ATOM      8  N   UNL     1      55.057  35.059  77.556  0.00  0.00    +0.000 N 
ATOM      9  C   UNL     1      56.215  35.749  79.319  0.00  0.00    +0.000 A 
ATOM     10  C   UNL     1      56.413  36.687  78.266  0.00  0.00    +0.000 A 
ATOM     11  C   UNL     1      55.674  36.227  77.171  0.00  0.00    +0.000 A 
ATOM     12  C   UNL     1      55.378  34.764  78.851  0.00  0.00    +0.000 A 
ATOM     13  C   UNL     1      57.146  37.882  78.125  0.00  0.00    +0.000 A 
ATOM     14  C   UNL     1      55.628  36.901  75.945  0.00  0.00    +0.000 A 
ATOM     15  C   UNL     1      57.115  38.569  76.912  0.00  0.00    +0.000 A 
ATOM     16  C   UNL     1      56.368  38.079  75.848  0.00  0.00    +0.000 A 
ATOM     17  H   UNL     1      54.453  34.500  76.968  0.00  0.00    +0.000 HD
ENDBRANCH   3   9
BRANCH   4  20
ATOM     18 BR   UNL     1      57.108  35.230  89.997  0.00  0.00    +0.000 Br
ATOM     19  N   UNL     1      56.710  38.414  85.719  0.00  0.00    +0.000 N 
ATOM     20  C   UNL     1      57.004  36.864  84.159  0.00  0.00    +0.000 A 
ATOM     21  C   UNL     1      57.072  36.229  85.431  0.00  0.00    +0.000 A 
ATOM     22  C   UNL     1      56.883  37.226  86.392  0.00  0.00    +0.000 A 
ATOM     23  C   UNL     1      56.781  38.206  84.368  0.00  0.00    +0.000 A 
ATOM     24  C   UNL     1      57.276  34.904  85.864  0.00  0.00    +0.000 A 
ATOM     25  C   UNL     1      56.887  36.969  87.766  0.00  0.00    +0.000 A 
ATOM     26  C   UNL     1      57.282  34.625  87.233  0.00  0.00    +0.000 A 
ATOM     27  C   UNL     1      57.091  35.644  88.156  0.00  0.00    +0.000 A 
ATOM     28  H   UNL     1      56.552  39.309  86.162  0.00  0.00    +0.000 HD
ENDBRANCH   4  20
TORSDOF 2
ENDMDL
MODEL 5
REMARK VINA RESULT:      -7.6      5.244     10.878
REMARK  Name = 179268_Nortopsentin.pdbqt.pdb
REMARK  2 active torsions:
REMARK  status: ('A' for Active; 'I' for Inactive)
REMARK    1  A    between atoms: C_3  and  C_9
REMARK    2  A    between atoms: C_4  and  C_20
REMARK                            x       y       z     vdW  Elec       q    Type
REMARK                         _______ _______ _______ _____ _____    ______ ____
ROOT
ATOM      1  N   UNL     1      59.760  34.579  85.221  0.00  0.00    +0.000 N 
ATOM      2  N   UNL     1      58.918  34.080  87.204  0.00  0.00    +0.000 NA
ATOM      3  C   UNL     1      58.488  35.082  85.222  0.00  0.00    +0.000 A 
ATOM      4  C   UNL     1      59.982  33.981  86.436  0.00  0.00    +0.000 A 
ATOM      5  C   UNL     1      57.984  34.761  86.462  0.00  0.00    +0.000 A 
ATOM      6  H   UNL     1      60.428  34.631  84.467  0.00  0.00    +0.000 HD
ENDROOT
BRANCH   3   9
ATOM      7 BR   UNL     1      56.167  34.983  78.348  0.00  0.00    +0.000 Br
ATOM      8  N   UNL     1      56.776  37.450  83.053  0.00  0.00    +0.000 N 
ATOM      9  C   UNL     1      57.815  35.809  84.127  0.00  0.00    +0.000 A 
ATOM     10  C   UNL     1      57.541  35.366  82.802  0.00  0.00    +0.000 A 
ATOM     11  C   UNL     1      56.888  36.418  82.151  0.00  0.00    +0.000 A 
ATOM     12  C   UNL     1      57.333  37.091  84.248  0.00  0.00    +0.000 A 
ATOM     13  C   UNL     1      57.779  34.178  82.083  0.00  0.00    +0.000 A 
ATOM     14  C   UNL     1      56.462  36.343  80.820  0.00  0.00    +0.000 A 
ATOM     15  C   UNL     1      57.362  34.082  80.755  0.00  0.00    +0.000 A 
ATOM     16  C   UNL     1      56.716  35.150  80.144  0.00  0.00    +0.000 A 
ATOM     17  H   UNL     1      56.345  38.345  82.863  0.00  0.00    +0.000 HD
ENDBRANCH   3   9
BRANCH   4  20
ATOM     18 BR   UNL     1      67.208  34.438  86.727  0.00  0.00    +0.000 Br
ATOM     19  N   UNL     1      62.650  31.786  87.616  0.00  0.00    +0.000 N 
ATOM     20  C   UNL     1      61.251  33.316  86.825  0.00  0.00    +0.000 A 
ATOM     21  C   UNL     1      62.575  33.817  86.688  0.00  0.00    +0.000 A 
ATOM     22  C   UNL     1      63.433  32.836  87.193  0.00  0.00    +0.000 A 
ATOM     23  C   UNL     1      61.328  32.067  87.397  0.00  0.00    +0.000 A 
ATOM     24  C   UNL     1      63.134  35.008  86.186  0.00  0.00    +0.000 A 
ATOM     25  C   UNL     1      64.823  32.983  87.223  0.00  0.00    +0.000 A 
ATOM     26  C   UNL     1      64.520  35.175  86.205  0.00  0.00    +0.000 A 
ATOM     27  C   UNL     1      65.339  34.177  86.716  0.00  0.00    +0.000 A 
ATOM     28  H   UNL     1      63.003  30.933  88.028  0.00  0.00    +0.000 HD
ENDBRANCH   4  20
TORSDOF 2
ENDMDL
MODEL 6
REMARK VINA RESULT:      -7.5     55.284     57.449
REMARK  Name = 179268_Nortopsentin.pdbqt.pdb
REMARK  2 active torsions:
REMARK  status: ('A' for Active; 'I' for Inactive)
REMARK    1  A    between atoms: C_3  and  C_9
REMARK    2  A    between atoms: C_4  and  C_20
REMARK                            x       y       z     vdW  Elec       q    Type
REMARK                         _______ _______ _______ _____ _____    ______ ____
ROOT
ATOM      1  N   UNL     1      13.391   5.931  98.270  0.00  0.00    +0.000 N 
ATOM      2  N   UNL     1      14.615   5.831  96.430  0.00  0.00    +0.000 NA
ATOM      3  C   UNL     1      13.838   7.205  98.051  0.00  0.00    +0.000 A 
ATOM      4  C   UNL     1      13.882   5.131  97.270  0.00  0.00    +0.000 A 
ATOM      5  C   UNL     1      14.596   7.120  96.905  0.00  0.00    +0.000 A 
ATOM      6  H   UNL     1      12.804   5.620  99.029  0.00  0.00    +0.000 HD
ENDROOT
BRANCH   3   9
ATOM      7 BR   UNL     1       9.174  10.704 102.369  0.00  0.00    +0.000 Br
ATOM      8  N   UNL     1      13.876  10.371  99.845  0.00  0.00    +0.000 N 
ATOM      9  C   UNL     1      13.562   8.401  98.873  0.00  0.00    +0.000 A 
ATOM     10  C   UNL     1      12.396   8.711  99.629  0.00  0.00    +0.000 A 
ATOM     11  C   UNL     1      12.622   9.954 100.228  0.00  0.00    +0.000 A 
ATOM     12  C   UNL     1      14.450   9.439  99.027  0.00  0.00    +0.000 A 
ATOM     13  C   UNL     1      11.168   8.065  99.869  0.00  0.00    +0.000 A 
ATOM     14  C   UNL     1      11.684  10.584 101.054  0.00  0.00    +0.000 A 
ATOM     15  C   UNL     1      10.218   8.674 100.690  0.00  0.00    +0.000 A 
ATOM     16  C   UNL     1      10.481   9.911 101.266  0.00  0.00    +0.000 A 
ATOM     17  H   UNL     1      14.311  11.240 100.126  0.00  0.00    +0.000 HD
ENDBRANCH   3   9
BRANCH   4  20
ATOM     18 BR   UNL     1      12.456  -0.425  92.841  0.00  0.00    +0.000 Br
ATOM     19  N   UNL     1      13.315   1.554  97.734  0.00  0.00    +0.000 N 
ATOM     20  C   UNL     1      13.618   3.674  97.154  0.00  0.00    +0.000 A 
ATOM     21  C   UNL     1      13.364   2.925  95.971  0.00  0.00    +0.000 A 
ATOM     22  C   UNL     1      13.177   1.598  96.365  0.00  0.00    +0.000 A 
ATOM     23  C   UNL     1      13.581   2.805  98.221  0.00  0.00    +0.000 A 
ATOM     24  C   UNL     1      13.274   3.242  94.602  0.00  0.00    +0.000 A 
ATOM     25  C   UNL     1      12.904   0.567  95.461  0.00  0.00    +0.000 A 
ATOM     26  C   UNL     1      13.001   2.228  93.681  0.00  0.00    +0.000 A 
ATOM     27  C   UNL     1      12.822   0.920  94.113  0.00  0.00    +0.000 A 
ATOM     28  H   UNL     1      13.230   0.718  98.296  0.00  0.00    +0.000 HD
ENDBRANCH   4  20
TORSDOF 2
ENDMDL
MODEL 7
REMARK VINA RESULT:      -7.2      4.618      8.769
REMARK  Name = 179268_Nortopsentin.pdbqt.pdb
REMARK  2 active torsions:
REMARK  status: ('A' for Active; 'I' for Inactive)
REMARK    1  A    between atoms: C_3  and  C_9
REMARK    2  A    between atoms: C_4  and  C_20
REMARK                            x       y       z     vdW  Elec       q    Type
REMARK                         _______ _______ _______ _____ _____    ______ ____
ROOT
ATOM      1  N   UNL     1      56.341  37.229  84.021  0.00  0.00    +0.000 N 
ATOM      2  N   UNL     1      57.960  37.638  85.472  0.00  0.00    +0.000 NA
ATOM      3  C   UNL     1      57.396  36.452  83.629  0.00  0.00    +0.000 A 
ATOM      4  C   UNL     1      56.720  37.931  85.137  0.00  0.00    +0.000 A 
ATOM      5  C   UNL     1      58.390  36.722  84.543  0.00  0.00    +0.000 A 
ATOM      6  H   UNL     1      55.437  37.286  83.577  0.00  0.00    +0.000 HD
ENDROOT
BRANCH   3   9
ATOM      7 BR   UNL     1      55.692  35.270  76.676  0.00  0.00    +0.000 Br
ATOM      8  N   UNL     1      57.897  33.709  81.291  0.00  0.00    +0.000 N 
ATOM      9  C   UNL     1      57.446  35.531  82.477  0.00  0.00    +0.000 A 
ATOM     10  C   UNL     1      56.934  35.722  81.162  0.00  0.00    +0.000 A 
ATOM     11  C   UNL     1      57.232  34.561  80.440  0.00  0.00    +0.000 A 
ATOM     12  C   UNL     1      58.031  34.287  82.522  0.00  0.00    +0.000 A 
ATOM     13  C   UNL     1      56.246  36.761  80.506  0.00  0.00    +0.000 A 
ATOM     14  C   UNL     1      56.878  34.387  79.097  0.00  0.00    +0.000 A 
ATOM     15  C   UNL     1      55.883  36.609  79.167  0.00  0.00    +0.000 A 
ATOM     16  C   UNL     1      56.198  35.440  78.485  0.00  0.00    +0.000 A 
ATOM     17  H   UNL     1      58.239  32.790  81.044  0.00  0.00    +0.000 HD
ENDBRANCH   3   9
BRANCH   4  20
ATOM     18 BR   UNL     1      53.209  44.267  84.944  0.00  0.00    +0.000 Br
ATOM     19  N   UNL     1      54.613  39.773  87.480  0.00  0.00    +0.000 N 
ATOM     20  C   UNL     1      55.848  38.887  85.865  0.00  0.00    +0.000 A 
ATOM     21  C   UNL     1      55.348  40.136  85.403  0.00  0.00    +0.000 A 
ATOM     22  C   UNL     1      54.576  40.671  86.437  0.00  0.00    +0.000 A 
ATOM     23  C   UNL     1      55.380  38.691  87.144  0.00  0.00    +0.000 A 
ATOM     24  C   UNL     1      55.473  40.869  84.206  0.00  0.00    +0.000 A 
ATOM     25  C   UNL     1      53.921  41.901  86.340  0.00  0.00    +0.000 A 
ATOM     26  C   UNL     1      54.827  42.102  84.088  0.00  0.00    +0.000 A 
ATOM     27  C   UNL     1      54.069  42.598  85.139  0.00  0.00    +0.000 A 
ATOM     28  H   UNL     1      54.140  39.899  88.366  0.00  0.00    +0.000 HD
ENDBRANCH   4  20
TORSDOF 2
ENDMDL
MODEL 8
REMARK VINA RESULT:      -7.1      5.464      9.661
REMARK  Name = 179268_Nortopsentin.pdbqt.pdb
REMARK  2 active torsions:
REMARK  status: ('A' for Active; 'I' for Inactive)
REMARK    1  A    between atoms: C_3  and  C_9
REMARK    2  A    between atoms: C_4  and  C_20
REMARK                            x       y       z     vdW  Elec       q    Type
REMARK                         _______ _______ _______ _____ _____    ______ ____
ROOT
ATOM      1  N   UNL     1      60.324  33.627  73.211  0.00  0.00    +0.000 N 
ATOM      2  N   UNL     1      61.063  32.835  75.139  0.00  0.00    +0.000 NA
ATOM      3  C   UNL     1      60.602  32.307  72.988  0.00  0.00    +0.000 A 
ATOM      4  C   UNL     1      60.615  33.908  74.522  0.00  0.00    +0.000 A 
ATOM      5  C   UNL     1      61.060  31.835  74.197  0.00  0.00    +0.000 A 
ATOM      6  H   UNL     1      59.966  34.290  72.539  0.00  0.00    +0.000 HD
ENDROOT
BRANCH   3   9
ATOM      7 BR   UNL     1      58.437  32.426  66.064  0.00  0.00    +0.000 Br
ATOM      8  N   UNL     1      60.519  29.879  70.279  0.00  0.00    +0.000 N 
ATOM      9  C   UNL     1      60.443  31.563  71.723  0.00  0.00    +0.000 A 
ATOM     10  C   UNL     1      59.919  32.022  70.480  0.00  0.00    +0.000 A 
ATOM     11  C   UNL     1      59.980  30.942  69.593  0.00  0.00    +0.000 A 
ATOM     12  C   UNL     1      60.802  30.245  71.565  0.00  0.00    +0.000 A 
ATOM     13  C   UNL     1      59.398  33.244  70.013  0.00  0.00    +0.000 A 
ATOM     14  C   UNL     1      59.546  31.022  68.264  0.00  0.00    +0.000 A 
ATOM     15  C   UNL     1      58.961  33.347  68.692  0.00  0.00    +0.000 A 
ATOM     16  C   UNL     1      59.038  32.250  67.842  0.00  0.00    +0.000 A 
ATOM     17  H   UNL     1      60.684  28.960  69.891  0.00  0.00    +0.000 HD
ENDBRANCH   3   9
BRANCH   4  20
ATOM     18 BR   UNL     1      56.051  39.301  76.133  0.00  0.00    +0.000 Br
ATOM     19  N   UNL     1      60.935  37.123  76.222  0.00  0.00    +0.000 N 
ATOM     20  C   UNL     1      60.446  35.241  75.153  0.00  0.00    +0.000 A 
ATOM     21  C   UNL     1      59.255  36.014  75.253  0.00  0.00    +0.000 A 
ATOM     22  C   UNL     1      59.592  37.190  75.928  0.00  0.00    +0.000 A 
ATOM     23  C   UNL     1      61.461  35.949  75.756  0.00  0.00    +0.000 A 
ATOM     24  C   UNL     1      57.922  35.832  74.837  0.00  0.00    +0.000 A 
ATOM     25  C   UNL     1      58.664  38.196  76.211  0.00  0.00    +0.000 A 
ATOM     26  C   UNL     1      56.979  36.825  75.108  0.00  0.00    +0.000 A 
ATOM     27  C   UNL     1      57.353  37.980  75.783  0.00  0.00    +0.000 A 
ATOM     28  H   UNL     1      61.454  37.840  76.710  0.00  0.00    +0.000 HD
ENDBRANCH   4  20
TORSDOF 2
ENDMDL
MODEL 9
REMARK VINA RESULT:      -6.7      5.518      8.856
REMARK  Name = 179268_Nortopsentin.pdbqt.pdb
REMARK  2 active torsions:
REMARK  status: ('A' for Active; 'I' for Inactive)
REMARK    1  A    between atoms: C_3  and  C_9
REMARK    2  A    between atoms: C_4  and  C_20
REMARK                            x       y       z     vdW  Elec       q    Type
REMARK                         _______ _______ _______ _____ _____    ______ ____
ROOT
ATOM      1  N   UNL     1      58.518  34.662  86.166  0.00  0.00    +0.000 N 
ATOM      2  N   UNL     1      59.464  36.650  86.382  0.00  0.00    +0.000 NA
ATOM      3  C   UNL     1      59.358  34.559  87.240  0.00  0.00    +0.000 A 
ATOM      4  C   UNL     1      58.610  35.940  85.675  0.00  0.00    +0.000 A 
ATOM      5  C   UNL     1      59.935  35.803  87.356  0.00  0.00    +0.000 A 
ATOM      6  H   UNL     1      57.928  33.935  85.790  0.00  0.00    +0.000 HD
ENDROOT
BRANCH   3   9
ATOM      7 BR   UNL     1      63.424  28.694  88.549  0.00  0.00    +0.000 Br
ATOM      8  N   UNL     1      59.287  31.879  89.702  0.00  0.00    +0.000 N 
ATOM      9  C   UNL     1      59.587  33.368  88.083  0.00  0.00    +0.000 A 
ATOM     10  C   UNL     1      60.610  32.384  87.973  0.00  0.00    +0.000 A 
ATOM     11  C   UNL     1      60.396  31.462  89.003  0.00  0.00    +0.000 A 
ATOM     12  C   UNL     1      58.793  33.029  89.153  0.00  0.00    +0.000 A 
ATOM     13  C   UNL     1      61.700  32.177  87.104  0.00  0.00    +0.000 A 
ATOM     14  C   UNL     1      61.215  30.345  89.209  0.00  0.00    +0.000 A 
ATOM     15  C   UNL     1      62.529  31.071  87.291  0.00  0.00    +0.000 A 
ATOM     16  C   UNL     1      62.283  30.178  88.327  0.00  0.00    +0.000 A 
ATOM     17  H   UNL     1      58.894  31.407  90.504  0.00  0.00    +0.000 HD
ENDBRANCH   3   9
BRANCH   4  20
ATOM     18 BR   UNL     1      56.313  34.642  78.926  0.00  0.00    +0.000 Br
ATOM     19  N   UNL     1      56.623  37.792  83.236  0.00  0.00    +0.000 N 
ATOM     20  C   UNL     1      57.848  36.447  84.506  0.00  0.00    +0.000 A 
ATOM     21  C   UNL     1      57.628  35.798  83.260  0.00  0.00    +0.000 A 
ATOM     22  C   UNL     1      56.857  36.665  82.482  0.00  0.00    +0.000 A 
ATOM     23  C   UNL     1      57.219  37.671  84.462  0.00  0.00    +0.000 A 
ATOM     24  C   UNL     1      58.007  34.556  82.712  0.00  0.00    +0.000 A 
ATOM     25  C   UNL     1      56.443  36.357  81.183  0.00  0.00    +0.000 A 
ATOM     26  C   UNL     1      57.605  34.229  81.415  0.00  0.00    +0.000 A 
ATOM     27  C   UNL     1      56.838  35.119  80.675  0.00  0.00    +0.000 A 
ATOM     28  H   UNL     1      56.089  38.593  82.926  0.00  0.00    +0.000 HD
ENDBRANCH   4  20
TORSDOF 2
ENDMDL
