MODEL 1
REMARK VINA RESULT:      -4.8      0.000      0.000
REMARK  Name = 21574552_Mertensene.pdbqt.pdb
REMARK  1 active torsions:
REMARK  status: ('A' for Active; 'I' for Inactive)
REMARK    1  A    between atoms: C_4  and  C_13
REMARK                            x       y       z     vdW  Elec       q    Type
REMARK                         _______ _______ _______ _____ _____    ______ ____
ROOT
ATOM      1 BR   UNL     1      56.262  39.377  76.686  0.00  0.00    +0.000 Br
ATOM      2 CL   UNL     1      60.905  35.721  77.340  0.00  0.00    +0.000 Cl
ATOM      3 CL   UNL     1      61.342  38.228  75.077  0.00  0.00    +0.000 Cl
ATOM      4  C   UNL     1      57.182  36.536  76.807  0.00  0.00    +0.000 C 
ATOM      5  C   UNL     1      58.442  35.848  76.508  0.00  0.00    +0.000 C 
ATOM      6  C   UNL     1      59.794  36.012  75.980  0.00  0.00    +0.000 C 
ATOM      7  C   UNL     1      57.418  37.987  76.315  0.00  0.00    +0.000 C 
ATOM      8  C   UNL     1      59.871  37.471  75.509  0.00  0.00    +0.000 C 
ATOM      9  C   UNL     1      58.700  38.249  75.749  0.00  0.00    +0.000 C 
ATOM     10  C   UNL     1      56.027  35.905  75.997  0.00  0.00    +0.000 C 
ATOM     11  C   UNL     1      60.120  35.025  74.854  0.00  0.00    +0.000 C 
ENDROOT
BRANCH   4  13
ATOM     12 CL   UNL     1      56.411  36.512  81.162  0.00  0.00    +0.000 Cl
ATOM     13  C   UNL     1      56.918  36.527  78.254  0.00  0.00    +0.000 C 
ATOM     14  C   UNL     1      56.707  36.520  79.436  0.00  0.00    +0.000 C 
ENDBRANCH   4  13
TORSDOF 1
ENDMDL
MODEL 2
REMARK VINA RESULT:      -4.5      2.735      4.833
REMARK  Name = 21574552_Mertensene.pdbqt.pdb
REMARK  1 active torsions:
REMARK  status: ('A' for Active; 'I' for Inactive)
REMARK    1  A    between atoms: C_4  and  C_13
REMARK                            x       y       z     vdW  Elec       q    Type
REMARK                         _______ _______ _______ _____ _____    ______ ____
ROOT
ATOM      1 BR   UNL     1      59.958  38.716  74.778  0.00  0.00    +0.000 Br
ATOM      2 CL   UNL     1      55.401  35.350  76.586  0.00  0.00    +0.000 Cl
ATOM      3 CL   UNL     1      55.083  38.683  77.216  0.00  0.00    +0.000 Cl
ATOM      4  C   UNL     1      59.128  36.257  76.260  0.00  0.00    +0.000 C 
ATOM      5  C   UNL     1      57.922  35.853  76.992  0.00  0.00    +0.000 C 
ATOM      6  C   UNL     1      56.618  36.296  77.478  0.00  0.00    +0.000 C 
ATOM      7  C   UNL     1      58.887  37.752  75.932  0.00  0.00    +0.000 C 
ATOM      8  C   UNL     1      56.535  37.785  77.113  0.00  0.00    +0.000 C 
ATOM      9  C   UNL     1      57.652  38.297  76.392  0.00  0.00    +0.000 C 
ATOM     10  C   UNL     1      60.370  36.126  77.169  0.00  0.00    +0.000 C 
ATOM     11  C   UNL     1      56.427  36.058  78.979  0.00  0.00    +0.000 C 
ENDROOT
BRANCH   4  13
ATOM     12 CL   UNL     1      59.553  33.925  72.526  0.00  0.00    +0.000 Cl
ATOM     13  C   UNL     1      59.262  35.479  75.018  0.00  0.00    +0.000 C 
ATOM     14  C   UNL     1      59.376  34.846  74.005  0.00  0.00    +0.000 C 
ENDBRANCH   4  13
TORSDOF 1
ENDMDL
MODEL 3
REMARK VINA RESULT:      -3.9     17.672     19.021
REMARK  Name = 21574552_Mertensene.pdbqt.pdb
REMARK  1 active torsions:
REMARK  status: ('A' for Active; 'I' for Inactive)
REMARK    1  A    between atoms: C_4  and  C_13
REMARK                            x       y       z     vdW  Elec       q    Type
REMARK                         _______ _______ _______ _____ _____    ______ ____
ROOT
ATOM      1 BR   UNL     1      45.837  22.611  84.776  0.00  0.00    +0.000 Br
ATOM      2 CL   UNL     1      45.272  28.346  86.244  0.00  0.00    +0.000 Cl
ATOM      3 CL   UNL     1      42.358  26.588  86.116  0.00  0.00    +0.000 Cl
ATOM      4  C   UNL     1      46.568  25.428  84.095  0.00  0.00    +0.000 C 
ATOM      5  C   UNL     1      45.941  26.736  84.311  0.00  0.00    +0.000 C 
ATOM      6  C   UNL     1      44.753  27.419  84.815  0.00  0.00    +0.000 C 
ATOM      7  C   UNL     1      45.495  24.412  84.563  0.00  0.00    +0.000 C 
ATOM      8  C   UNL     1      43.778  26.301  85.208  0.00  0.00    +0.000 C 
ATOM      9  C   UNL     1      44.277  24.975  85.044  0.00  0.00    +0.000 C 
ATOM     10  C   UNL     1      46.850  25.216  82.590  0.00  0.00    +0.000 C 
ATOM     11  C   UNL     1      44.142  28.386  83.794  0.00  0.00    +0.000 C 
ENDROOT
BRANCH   4  13
ATOM     12 CL   UNL     1      50.210  25.024  86.571  0.00  0.00    +0.000 Cl
ATOM     13  C   UNL     1      47.784  25.296  84.913  0.00  0.00    +0.000 C 
ATOM     14  C   UNL     1      48.773  25.187  85.583  0.00  0.00    +0.000 C 
ENDBRANCH   4  13
TORSDOF 1
ENDMDL
MODEL 4
REMARK VINA RESULT:      -3.9     11.325     13.080
REMARK  Name = 21574552_Mertensene.pdbqt.pdb
REMARK  1 active torsions:
REMARK  status: ('A' for Active; 'I' for Inactive)
REMARK    1  A    between atoms: C_4  and  C_13
REMARK                            x       y       z     vdW  Elec       q    Type
REMARK                         _______ _______ _______ _____ _____    ______ ____
ROOT
ATOM      1 BR   UNL     1      61.590  31.617  65.661  0.00  0.00    +0.000 Br
ATOM      2 CL   UNL     1      57.073  27.770  66.056  0.00  0.00    +0.000 Cl
ATOM      3 CL   UNL     1      58.238  28.319  62.903  0.00  0.00    +0.000 Cl
ATOM      4  C   UNL     1      58.870  31.095  66.783  0.00  0.00    +0.000 C 
ATOM      5  C   UNL     1      57.728  30.268  66.376  0.00  0.00    +0.000 C 
ATOM      6  C   UNL     1      57.204  29.392  65.332  0.00  0.00    +0.000 C 
ATOM      7  C   UNL     1      59.854  30.994  65.590  0.00  0.00    +0.000 C 
ATOM      8  C   UNL     1      58.258  29.413  64.217  0.00  0.00    +0.000 C 
ATOM      9  C   UNL     1      59.423  30.185  64.498  0.00  0.00    +0.000 C 
ATOM     10  C   UNL     1      58.426  32.565  66.956  0.00  0.00    +0.000 C 
ATOM     11  C   UNL     1      55.822  29.822  64.829  0.00  0.00    +0.000 C 
ENDROOT
BRANCH   4  13
ATOM     12 CL   UNL     1      60.736  29.487  70.456  0.00  0.00    +0.000 Cl
ATOM     13  C   UNL     1      59.491  30.554  68.002  0.00  0.00    +0.000 C 
ATOM     14  C   UNL     1      59.998  30.115  68.998  0.00  0.00    +0.000 C 
ENDBRANCH   4  13
TORSDOF 1
ENDMDL
MODEL 5
REMARK VINA RESULT:      -3.8     18.898     20.328
REMARK  Name = 21574552_Mertensene.pdbqt.pdb
REMARK  1 active torsions:
REMARK  status: ('A' for Active; 'I' for Inactive)
REMARK    1  A    between atoms: C_4  and  C_13
REMARK                            x       y       z     vdW  Elec       q    Type
REMARK                         _______ _______ _______ _____ _____    ______ ____
ROOT
ATOM      1 BR   UNL     1      42.361  22.791  85.374  0.00  0.00    +0.000 Br
ATOM      2 CL   UNL     1      45.539  27.800  84.965  0.00  0.00    +0.000 Cl
ATOM      3 CL   UNL     1      42.971  27.891  87.201  0.00  0.00    +0.000 Cl
ATOM      4  C   UNL     1      43.559  24.824  83.540  0.00  0.00    +0.000 C 
ATOM      5  C   UNL     1      43.911  26.243  83.663  0.00  0.00    +0.000 C 
ATOM      6  C   UNL     1      43.855  27.413  84.534  0.00  0.00    +0.000 C 
ATOM      7  C   UNL     1      42.803  24.506  84.855  0.00  0.00    +0.000 C 
ATOM      8  C   UNL     1      43.061  26.962  85.768  0.00  0.00    +0.000 C 
ATOM      9  C   UNL     1      42.662  25.594  85.767  0.00  0.00    +0.000 C 
ATOM     10  C   UNL     1      42.607  24.615  82.340  0.00  0.00    +0.000 C 
ATOM     11  C   UNL     1      43.225  28.634  83.856  0.00  0.00    +0.000 C 
ENDROOT
BRANCH   4  13
ATOM     12 CL   UNL     1      47.217  22.357  83.228  0.00  0.00    +0.000 Cl
ATOM     13  C   UNL     1      44.772  23.998  83.439  0.00  0.00    +0.000 C 
ATOM     14  C   UNL     1      45.764  23.326  83.355  0.00  0.00    +0.000 C 
ENDBRANCH   4  13
TORSDOF 1
ENDMDL
MODEL 6
REMARK VINA RESULT:      -3.8      2.490      4.587
REMARK  Name = 21574552_Mertensene.pdbqt.pdb
REMARK  1 active torsions:
REMARK  status: ('A' for Active; 'I' for Inactive)
REMARK    1  A    between atoms: C_4  and  C_13
REMARK                            x       y       z     vdW  Elec       q    Type
REMARK                         _______ _______ _______ _____ _____    ______ ____
ROOT
ATOM      1 BR   UNL     1      56.236  38.282  75.234  0.00  0.00    +0.000 Br
ATOM      2 CL   UNL     1      60.577  34.225  75.468  0.00  0.00    +0.000 Cl
ATOM      3 CL   UNL     1      58.981  34.812  78.419  0.00  0.00    +0.000 Cl
ATOM      4  C   UNL     1      59.066  37.636  74.523  0.00  0.00    +0.000 C 
ATOM      5  C   UNL     1      60.094  36.753  75.085  0.00  0.00    +0.000 C 
ATOM      6  C   UNL     1      60.415  35.847  76.185  0.00  0.00    +0.000 C 
ATOM      7  C   UNL     1      57.911  37.576  75.555  0.00  0.00    +0.000 C 
ATOM      8  C   UNL     1      59.208  35.913  77.130  0.00  0.00    +0.000 C 
ATOM      9  C   UNL     1      58.136  36.742  76.689  0.00  0.00    +0.000 C 
ATOM     10  C   UNL     1      59.599  39.084  74.437  0.00  0.00    +0.000 C 
ATOM     11  C   UNL     1      61.725  36.208  76.894  0.00  0.00    +0.000 C 
ENDROOT
BRANCH   4  13
ATOM     12 CL   UNL     1      57.713  36.124  70.594  0.00  0.00    +0.000 Cl
ATOM     13  C   UNL     1      58.610  37.132  73.219  0.00  0.00    +0.000 C 
ATOM     14  C   UNL     1      58.240  36.721  72.153  0.00  0.00    +0.000 C 
ENDBRANCH   4  13
TORSDOF 1
ENDMDL
MODEL 7
REMARK VINA RESULT:      -3.6     60.507     62.501
REMARK  Name = 21574552_Mertensene.pdbqt.pdb
REMARK  1 active torsions:
REMARK  status: ('A' for Active; 'I' for Inactive)
REMARK    1  A    between atoms: C_4  and  C_13
REMARK                            x       y       z     vdW  Elec       q    Type
REMARK                         _______ _______ _______ _____ _____    ______ ____
ROOT
ATOM      1 BR   UNL     1       5.593  16.167  98.348  0.00  0.00    +0.000 Br
ATOM      2 CL   UNL     1       1.546  12.186  96.578  0.00  0.00    +0.000 Cl
ATOM      3 CL   UNL     1       3.152  11.427  99.485  0.00  0.00    +0.000 Cl
ATOM      4  C   UNL     1       4.568  14.517  96.077  0.00  0.00    +0.000 C 
ATOM      5  C   UNL     1       3.845  13.244  95.972  0.00  0.00    +0.000 C 
ATOM      6  C   UNL     1       3.319  12.107  96.722  0.00  0.00    +0.000 C 
ATOM      7  C   UNL     1       4.918  14.629  97.582  0.00  0.00    +0.000 C 
ATOM      8  C   UNL     1       3.765  12.337  98.173  0.00  0.00    +0.000 C 
ATOM      9  C   UNL     1       4.478  13.550  98.404  0.00  0.00    +0.000 C 
ATOM     10  C   UNL     1       5.873  14.456  95.252  0.00  0.00    +0.000 C 
ATOM     11  C   UNL     1       3.800  10.758  96.178  0.00  0.00    +0.000 C 
ENDROOT
BRANCH   4  13
ATOM     12 CL   UNL     1       1.963  17.884  94.878  0.00  0.00    +0.000 Cl
ATOM     13  C   UNL     1       3.703  15.636  95.671  0.00  0.00    +0.000 C 
ATOM     14  C   UNL     1       2.997  16.550  95.344  0.00  0.00    +0.000 C 
ENDBRANCH   4  13
TORSDOF 1
ENDMDL
MODEL 8
REMARK VINA RESULT:      -3.5     58.598     60.994
REMARK  Name = 21574552_Mertensene.pdbqt.pdb
REMARK  1 active torsions:
REMARK  status: ('A' for Active; 'I' for Inactive)
REMARK    1  A    between atoms: C_4  and  C_13
REMARK                            x       y       z     vdW  Elec       q    Type
REMARK                         _______ _______ _______ _____ _____    ______ ____
ROOT
ATOM      1 BR   UNL     1       4.717  16.799 100.035  0.00  0.00    +0.000 Br
ATOM      2 CL   UNL     1       6.501  13.409  95.487  0.00  0.00    +0.000 Cl
ATOM      3 CL   UNL     1       3.268  14.470  95.324  0.00  0.00    +0.000 Cl
ATOM      4  C   UNL     1       6.094  14.277  99.214  0.00  0.00    +0.000 C 
ATOM      5  C   UNL     1       6.019  13.395  98.044  0.00  0.00    +0.000 C 
ATOM      6  C   UNL     1       5.317  13.138  96.789  0.00  0.00    +0.000 C 
ATOM      7  C   UNL     1       4.934  15.282  99.006  0.00  0.00    +0.000 C 
ATOM      8  C   UNL     1       4.190  14.178  96.735  0.00  0.00    +0.000 C 
ATOM      9  C   UNL     1       4.160  15.099  97.822  0.00  0.00    +0.000 C 
ATOM     10  C   UNL     1       5.843  13.467 100.506  0.00  0.00    +0.000 C 
ATOM     11  C   UNL     1       4.786  11.704  96.685  0.00  0.00    +0.000 C 
ENDROOT
BRANCH   4  13
ATOM     12 CL   UNL     1       9.973  16.401  99.283  0.00  0.00    +0.000 Cl
ATOM     13  C   UNL     1       7.383  14.987  99.243  0.00  0.00    +0.000 C 
ATOM     14  C   UNL     1       8.435  15.564  99.264  0.00  0.00    +0.000 C 
ENDBRANCH   4  13
TORSDOF 1
ENDMDL
MODEL 9
REMARK VINA RESULT:      -3.5     42.501     43.447
REMARK  Name = 21574552_Mertensene.pdbqt.pdb
REMARK  1 active torsions:
REMARK  status: ('A' for Active; 'I' for Inactive)
REMARK    1  A    between atoms: C_4  and  C_13
REMARK                            x       y       z     vdW  Elec       q    Type
REMARK                         _______ _______ _______ _____ _____    ______ ____
ROOT
ATOM      1 BR   UNL     1      22.821  22.211  93.618  0.00  0.00    +0.000 Br
ATOM      2 CL   UNL     1      22.691  16.624  91.586  0.00  0.00    +0.000 Cl
ATOM      3 CL   UNL     1      21.657  18.996  89.371  0.00  0.00    +0.000 Cl
ATOM      4  C   UNL     1      21.972  19.396  94.157  0.00  0.00    +0.000 C 
ATOM      5  C   UNL     1      21.620  18.247  93.316  0.00  0.00    +0.000 C 
ATOM      6  C   UNL     1      21.400  17.797  91.944  0.00  0.00    +0.000 C 
ATOM      7  C   UNL     1      22.117  20.568  93.154  0.00  0.00    +0.000 C 
ATOM      8  C   UNL     1      21.544  19.055  91.077  0.00  0.00    +0.000 C 
ATOM      9  C   UNL     1      21.890  20.244  91.784  0.00  0.00    +0.000 C 
ATOM     10  C   UNL     1      20.822  19.706  95.141  0.00  0.00    +0.000 C 
ATOM     11  C   UNL     1      20.042  17.114  91.749  0.00  0.00    +0.000 C 
ENDROOT
BRANCH   4  13
ATOM     12 CL   UNL     1      25.806  18.699  96.248  0.00  0.00    +0.000 Cl
ATOM     13  C   UNL     1      23.249  19.158  94.849  0.00  0.00    +0.000 C 
ATOM     14  C   UNL     1      24.289  18.967  95.415  0.00  0.00    +0.000 C 
ENDBRANCH   4  13
TORSDOF 1
ENDMDL
