MODEL 1
REMARK VINA RESULT:      -7.7      0.000      0.000
REMARK  Name = 222284_BetaSitosterol.pdbqt.pdb
REMARK  5 active torsions:
REMARK  status: ('A' for Active; 'I' for Inactive)
REMARK    1  A    between atoms: C_5  and  C_22
REMARK    2  A    between atoms: C_19  and  O_20
REMARK    3  A    between atoms: C_22  and  C_24
REMARK    4  A    between atoms: C_25  and  C_26
REMARK    5  A    between atoms: C_26  and  C_30
REMARK                            x       y       z     vdW  Elec       q    Type
REMARK                         _______ _______ _______ _____ _____    ______ ____
ROOT
ATOM      1  C   UNL     1      60.847  33.560  72.575  0.00  0.00    +0.000 C 
ATOM      2  C   UNL     1      61.096  33.849  74.142  0.00  0.00    +0.000 C 
ATOM      3  C   UNL     1      60.210  34.733  74.927  0.00  0.00    +0.000 C 
ATOM      4  C   UNL     1      58.853  35.233  74.497  0.00  0.00    +0.000 C 
ATOM      5  C   UNL     1      61.090  32.065  72.442  0.00  0.00    +0.000 C 
ATOM      6  C   UNL     1      59.459  33.956  72.331  0.00  0.00    +0.000 C 
ATOM      7  C   UNL     1      57.997  36.225  75.330  0.00  0.00    +0.000 C 
ATOM      8  C   UNL     1      61.585  32.635  74.720  0.00  0.00    +0.000 C 
ATOM      9  C   UNL     1      58.519  34.755  73.201  0.00  0.00    +0.000 C 
ATOM     10  C   UNL     1      61.539  31.541  73.688  0.00  0.00    +0.000 C 
ATOM     11  C   UNL     1      60.528  35.091  76.260  0.00  0.00    +0.000 C 
ATOM     12  C   UNL     1      61.884  34.378  71.762  0.00  0.00    +0.000 C 
ATOM     13  C   UNL     1      58.464  36.352  76.910  0.00  0.00    +0.000 C 
ATOM     14  C   UNL     1      56.585  35.747  75.411  0.00  0.00    +0.000 C 
ATOM     15  C   UNL     1      59.642  35.877  77.178  0.00  0.00    +0.000 C 
ATOM     16  C   UNL     1      58.110  37.644  74.703  0.00  0.00    +0.000 C 
ATOM     17  C   UNL     1      57.418  36.140  77.884  0.00  0.00    +0.000 C 
ATOM     18  C   UNL     1      55.599  35.502  76.565  0.00  0.00    +0.000 C 
ATOM     19  C   UNL     1      56.044  35.740  77.899  0.00  0.00    +0.000 C 
ENDROOT
BRANCH  19  20
ATOM     20  O   UNL     1      55.181  36.149  78.873  0.00  0.00    +0.000 OA
ATOM     21  H   UNL     1      55.397  37.043  79.189  0.00  0.00    +0.000 HD
ENDBRANCH  19  20
BRANCH   5  22
ATOM     22  C   UNL     1      60.845  31.300  71.259  0.00  0.00    +0.000 C 
ATOM     23  C   UNL     1      61.307  29.872  71.110  0.00  0.00    +0.000 C 
BRANCH  22  24
ATOM     24  C   UNL     1      60.130  31.828  70.150  0.00  0.00    +0.000 C 
ATOM     25  C   UNL     1      59.353  32.372  68.942  0.00  0.00    +0.000 C 
BRANCH  25  26
ATOM     26  C   UNL     1      58.641  32.866  67.807  0.00  0.00    +0.000 C 
ATOM     27  C   UNL     1      58.126  31.955  66.808  0.00  0.00    +0.000 C 
ATOM     28  C   UNL     1      58.293  30.451  66.915  0.00  0.00    +0.000 C 
ATOM     29  C   UNL     1      57.404  32.406  65.558  0.00  0.00    +0.000 C 
BRANCH  26  30
ATOM     30  C   UNL     1      58.426  34.261  67.657  0.00  0.00    +0.000 C 
ATOM     31  C   UNL     1      58.170  35.758  67.448  0.00  0.00    +0.000 C 
ENDBRANCH  26  30
ENDBRANCH  25  26
ENDBRANCH  22  24
ENDBRANCH   5  22
TORSDOF 5
ENDMDL
MODEL 2
REMARK VINA RESULT:      -6.9      3.177      4.749
REMARK  Name = 222284_BetaSitosterol.pdbqt.pdb
REMARK  5 active torsions:
REMARK  status: ('A' for Active; 'I' for Inactive)
REMARK    1  A    between atoms: C_5  and  C_22
REMARK    2  A    between atoms: C_19  and  O_20
REMARK    3  A    between atoms: C_22  and  C_24
REMARK    4  A    between atoms: C_25  and  C_26
REMARK    5  A    between atoms: C_26  and  C_30
REMARK                            x       y       z     vdW  Elec       q    Type
REMARK                         _______ _______ _______ _____ _____    ______ ____
ROOT
ATOM      1  C   UNL     1      60.844  31.753  72.695  0.00  0.00    +0.000 C 
ATOM      2  C   UNL     1      60.021  33.034  73.226  0.00  0.00    +0.000 C 
ATOM      3  C   UNL     1      60.682  34.158  73.919  0.00  0.00    +0.000 C 
ATOM      4  C   UNL     1      62.168  34.415  73.970  0.00  0.00    +0.000 C 
ATOM      5  C   UNL     1      60.250  31.489  71.320  0.00  0.00    +0.000 C 
ATOM      6  C   UNL     1      62.242  32.186  72.660  0.00  0.00    +0.000 C 
ATOM      7  C   UNL     1      62.815  35.572  74.780  0.00  0.00    +0.000 C 
ATOM      8  C   UNL     1      58.986  33.294  72.273  0.00  0.00    +0.000 C 
ATOM      9  C   UNL     1      62.885  33.409  73.267  0.00  0.00    +0.000 C 
ATOM     10  C   UNL     1      59.158  32.375  71.093  0.00  0.00    +0.000 C 
ATOM     11  C   UNL     1      59.927  35.201  74.508  0.00  0.00    +0.000 C 
ATOM     12  C   UNL     1      60.578  30.572  73.663  0.00  0.00    +0.000 C 
ATOM     13  C   UNL     1      61.754  36.760  75.219  0.00  0.00    +0.000 C 
ATOM     14  C   UNL     1      63.826  36.284  73.945  0.00  0.00    +0.000 C 
ATOM     15  C   UNL     1      60.499  36.442  75.124  0.00  0.00    +0.000 C 
ATOM     16  C   UNL     1      63.426  34.994  76.089  0.00  0.00    +0.000 C 
ATOM     17  C   UNL     1      62.138  38.101  74.845  0.00  0.00    +0.000 C 
ATOM     18  C   UNL     1      64.068  37.758  73.577  0.00  0.00    +0.000 C 
ATOM     19  C   UNL     1      63.169  38.741  74.086  0.00  0.00    +0.000 C 
ENDROOT
BRANCH  19  20
ATOM     20  O   UNL     1      63.584  40.012  74.355  0.00  0.00    +0.000 OA
ATOM     21  H   UNL     1      62.961  40.671  74.007  0.00  0.00    +0.000 HD
ENDBRANCH  19  20
BRANCH   5  22
ATOM     22  C   UNL     1      60.755  30.537  70.380  0.00  0.00    +0.000 C 
ATOM     23  C   UNL     1      61.990  29.714  70.649  0.00  0.00    +0.000 C 
BRANCH  22  24
ATOM     24  C   UNL     1      60.115  30.287  69.136  0.00  0.00    +0.000 C 
ATOM     25  C   UNL     1      59.440  30.037  67.780  0.00  0.00    +0.000 C 
BRANCH  25  26
ATOM     26  C   UNL     1      58.812  29.824  66.515  0.00  0.00    +0.000 C 
ATOM     27  C   UNL     1      59.429  30.300  65.297  0.00  0.00    +0.000 C 
ATOM     28  C   UNL     1      60.763  31.024  65.290  0.00  0.00    +0.000 C 
ATOM     29  C   UNL     1      58.802  30.153  63.928  0.00  0.00    +0.000 C 
BRANCH  26  30
ATOM     30  C   UNL     1      57.574  29.131  66.447  0.00  0.00    +0.000 C 
ATOM     31  C   UNL     1      56.264  28.340  66.353  0.00  0.00    +0.000 C 
ENDBRANCH  26  30
ENDBRANCH  25  26
ENDBRANCH  22  24
ENDBRANCH   5  22
TORSDOF 5
ENDMDL
MODEL 3
REMARK VINA RESULT:      -6.7      4.309      6.918
REMARK  Name = 222284_BetaSitosterol.pdbqt.pdb
REMARK  5 active torsions:
REMARK  status: ('A' for Active; 'I' for Inactive)
REMARK    1  A    between atoms: C_5  and  C_22
REMARK    2  A    between atoms: C_19  and  O_20
REMARK    3  A    between atoms: C_22  and  C_24
REMARK    4  A    between atoms: C_25  and  C_26
REMARK    5  A    between atoms: C_26  and  C_30
REMARK                            x       y       z     vdW  Elec       q    Type
REMARK                         _______ _______ _______ _____ _____    ______ ____
ROOT
ATOM      1  C   UNL     1      60.670  35.498  75.769  0.00  0.00    +0.000 C 
ATOM      2  C   UNL     1      61.775  36.657  75.954  0.00  0.00    +0.000 C 
ATOM      3  C   UNL     1      63.209  36.351  76.136  0.00  0.00    +0.000 C 
ATOM      4  C   UNL     1      63.866  35.015  75.893  0.00  0.00    +0.000 C 
ATOM      5  C   UNL     1      59.779  36.026  74.655  0.00  0.00    +0.000 C 
ATOM      6  C   UNL     1      61.430  34.302  75.400  0.00  0.00    +0.000 C 
ATOM      7  C   UNL     1      65.366  34.729  76.176  0.00  0.00    +0.000 C 
ATOM      8  C   UNL     1      61.381  37.751  75.120  0.00  0.00    +0.000 C 
ATOM      9  C   UNL     1      62.915  34.046  75.471  0.00  0.00    +0.000 C 
ATOM     10  C   UNL     1      60.187  37.344  74.300  0.00  0.00    +0.000 C 
ATOM     11  C   UNL     1      64.142  37.371  76.444  0.00  0.00    +0.000 C 
ATOM     12  C   UNL     1      59.889  35.357  77.101  0.00  0.00    +0.000 C 
ATOM     13  C   UNL     1      66.291  36.088  76.339  0.00  0.00    +0.000 C 
ATOM     14  C   UNL     1      65.982  34.012  75.021  0.00  0.00    +0.000 C 
ATOM     15  C   UNL     1      65.627  37.189  76.528  0.00  0.00    +0.000 C 
ATOM     16  C   UNL     1      65.488  33.929  77.506  0.00  0.00    +0.000 C 
ATOM     17  C   UNL     1      67.459  36.148  75.492  0.00  0.00    +0.000 C 
ATOM     18  C   UNL     1      67.232  34.246  74.156  0.00  0.00    +0.000 C 
ATOM     19  C   UNL     1      68.043  35.387  74.430  0.00  0.00    +0.000 C 
ENDROOT
BRANCH  19  20
ATOM     20  O   UNL     1      69.388  35.374  74.202  0.00  0.00    +0.000 OA
ATOM     21  H   UNL     1      69.676  34.528  73.818  0.00  0.00    +0.000 HD
ENDBRANCH  19  20
BRANCH   5  22
ATOM     22  C   UNL     1      58.733  35.283  74.024  0.00  0.00    +0.000 C 
ATOM     23  C   UNL     1      57.279  35.477  74.374  0.00  0.00    +0.000 C 
BRANCH  22  24
ATOM     24  C   UNL     1      58.992  34.324  73.008  0.00  0.00    +0.000 C 
ATOM     25  C   UNL     1      59.294  33.277  71.925  0.00  0.00    +0.000 C 
BRANCH  25  26
ATOM     26  C   UNL     1      59.593  32.307  70.921  0.00  0.00    +0.000 C 
ATOM     27  C   UNL     1      60.192  31.039  71.277  0.00  0.00    +0.000 C 
ATOM     28  C   UNL     1      60.514  30.666  72.712  0.00  0.00    +0.000 C 
ATOM     29  C   UNL     1      60.581  29.984  70.265  0.00  0.00    +0.000 C 
BRANCH  26  30
ATOM     30  C   UNL     1      59.295  32.581  69.560  0.00  0.00    +0.000 C 
ATOM     31  C   UNL     1      58.983  32.824  68.079  0.00  0.00    +0.000 C 
ENDBRANCH  26  30
ENDBRANCH  25  26
ENDBRANCH  22  24
ENDBRANCH   5  22
TORSDOF 5
ENDMDL
MODEL 4
REMARK VINA RESULT:      -6.7      3.740      9.480
REMARK  Name = 222284_BetaSitosterol.pdbqt.pdb
REMARK  5 active torsions:
REMARK  status: ('A' for Active; 'I' for Inactive)
REMARK    1  A    between atoms: C_5  and  C_22
REMARK    2  A    between atoms: C_19  and  O_20
REMARK    3  A    between atoms: C_22  and  C_24
REMARK    4  A    between atoms: C_25  and  C_26
REMARK    5  A    between atoms: C_26  and  C_30
REMARK                            x       y       z     vdW  Elec       q    Type
REMARK                         _______ _______ _______ _____ _____    ______ ____
ROOT
ATOM      1  C   UNL     1      60.493  32.226  69.793  0.00  0.00    +0.000 C 
ATOM      2  C   UNL     1      59.439  32.969  68.824  0.00  0.00    +0.000 C 
ATOM      3  C   UNL     1      58.859  32.304  67.640  0.00  0.00    +0.000 C 
ATOM      4  C   UNL     1      58.920  30.828  67.335  0.00  0.00    +0.000 C 
ATOM      5  C   UNL     1      60.030  32.610  71.190  0.00  0.00    +0.000 C 
ATOM      6  C   UNL     1      60.345  30.801  69.494  0.00  0.00    +0.000 C 
ATOM      7  C   UNL     1      58.360  30.193  66.034  0.00  0.00    +0.000 C 
ATOM      8  C   UNL     1      58.614  33.793  69.654  0.00  0.00    +0.000 C 
ATOM      9  C   UNL     1      59.638  30.127  68.343  0.00  0.00    +0.000 C 
ATOM     10  C   UNL     1      58.952  33.537  71.098  0.00  0.00    +0.000 C 
ATOM     11  C   UNL     1      58.052  33.019  66.721  0.00  0.00    +0.000 C 
ATOM     12  C   UNL     1      61.906  32.786  69.489  0.00  0.00    +0.000 C 
ATOM     13  C   UNL     1      57.306  31.164  65.212  0.00  0.00    +0.000 C 
ATOM     14  C   UNL     1      57.552  28.980  66.357  0.00  0.00    +0.000 C 
ATOM     15  C   UNL     1      57.320  32.415  65.561  0.00  0.00    +0.000 C 
ATOM     16  C   UNL     1      59.542  29.880  65.072  0.00  0.00    +0.000 C 
ATOM     17  C   UNL     1      56.026  30.568  64.904  0.00  0.00    +0.000 C 
ATOM     18  C   UNL     1      56.133  28.508  65.998  0.00  0.00    +0.000 C 
ATOM     19  C   UNL     1      55.320  29.357  65.190  0.00  0.00    +0.000 C 
ENDROOT
BRANCH  19  20
ATOM     20  O   UNL     1      54.384  28.846  64.340  0.00  0.00    +0.000 OA
ATOM     21  H   UNL     1      53.992  28.029  64.691  0.00  0.00    +0.000 HD
ENDBRANCH  19  20
BRANCH   5  22
ATOM     22  C   UNL     1      60.561  32.071  72.403  0.00  0.00    +0.000 C 
ATOM     23  C   UNL     1      60.640  30.588  72.662  0.00  0.00    +0.000 C 
BRANCH  22  24
ATOM     24  C   UNL     1      61.069  32.899  73.440  0.00  0.00    +0.000 C 
ATOM     25  C   UNL     1      61.623  33.815  74.542  0.00  0.00    +0.000 C 
BRANCH  25  26
ATOM     26  C   UNL     1      62.153  34.671  75.555  0.00  0.00    +0.000 C 
ATOM     27  C   UNL     1      63.556  35.023  75.562  0.00  0.00    +0.000 C 
ATOM     28  C   UNL     1      64.524  34.527  74.504  0.00  0.00    +0.000 C 
ATOM     29  C   UNL     1      64.197  35.885  76.627  0.00  0.00    +0.000 C 
BRANCH  26  30
ATOM     30  C   UNL     1      61.297  35.192  76.561  0.00  0.00    +0.000 C 
ATOM     31  C   UNL     1      60.331  35.727  77.625  0.00  0.00    +0.000 C 
ENDBRANCH  26  30
ENDBRANCH  25  26
ENDBRANCH  22  24
ENDBRANCH   5  22
TORSDOF 5
ENDMDL
MODEL 5
REMARK VINA RESULT:      -6.6      3.806      9.104
REMARK  Name = 222284_BetaSitosterol.pdbqt.pdb
REMARK  5 active torsions:
REMARK  status: ('A' for Active; 'I' for Inactive)
REMARK    1  A    between atoms: C_5  and  C_22
REMARK    2  A    between atoms: C_19  and  O_20
REMARK    3  A    between atoms: C_22  and  C_24
REMARK    4  A    between atoms: C_25  and  C_26
REMARK    5  A    between atoms: C_26  and  C_30
REMARK                            x       y       z     vdW  Elec       q    Type
REMARK                         _______ _______ _______ _____ _____    ______ ____
ROOT
ATOM      1  C   UNL     1      59.983  33.533  72.533  0.00  0.00    +0.000 C 
ATOM      2  C   UNL     1      60.463  31.995  72.483  0.00  0.00    +0.000 C 
ATOM      3  C   UNL     1      61.215  31.445  71.337  0.00  0.00    +0.000 C 
ATOM      4  C   UNL     1      61.872  32.248  70.242  0.00  0.00    +0.000 C 
ATOM      5  C   UNL     1      60.288  33.960  73.961  0.00  0.00    +0.000 C 
ATOM      6  C   UNL     1      60.796  34.219  71.526  0.00  0.00    +0.000 C 
ATOM      7  C   UNL     1      62.585  31.614  69.017  0.00  0.00    +0.000 C 
ATOM      8  C   UNL     1      60.827  31.625  73.817  0.00  0.00    +0.000 C 
ATOM      9  C   UNL     1      61.664  33.641  70.435  0.00  0.00    +0.000 C 
ATOM     10  C   UNL     1      60.757  32.839  74.704  0.00  0.00    +0.000 C 
ATOM     11  C   UNL     1      61.499  30.060  71.244  0.00  0.00    +0.000 C 
ATOM     12  C   UNL     1      58.460  33.574  72.241  0.00  0.00    +0.000 C 
ATOM     13  C   UNL     1      62.962  30.018  69.212  0.00  0.00    +0.000 C 
ATOM     14  C   UNL     1      63.906  32.270  68.791  0.00  0.00    +0.000 C 
ATOM     15  C   UNL     1      62.355  29.422  70.192  0.00  0.00    +0.000 C 
ATOM     16  C   UNL     1      61.650  31.717  67.777  0.00  0.00    +0.000 C 
ATOM     17  C   UNL     1      64.345  29.675  68.972  0.00  0.00    +0.000 C 
ATOM     18  C   UNL     1      65.345  31.755  68.619  0.00  0.00    +0.000 C 
ATOM     19  C   UNL     1      65.575  30.350  68.691  0.00  0.00    +0.000 C 
ENDROOT
BRANCH  19  20
ATOM     20  O   UNL     1      66.582  29.758  67.986  0.00  0.00    +0.000 OA
ATOM     21  H   UNL     1      67.448  29.918  68.398  0.00  0.00    +0.000 HD
ENDBRANCH  19  20
BRANCH   5  22
ATOM     22  C   UNL     1      60.175  35.296  74.456  0.00  0.00    +0.000 C 
ATOM     23  C   UNL     1      61.265  36.321  74.269  0.00  0.00    +0.000 C 
BRANCH  22  24
ATOM     24  C   UNL     1      59.018  35.755  75.141  0.00  0.00    +0.000 C 
ATOM     25  C   UNL     1      57.784  36.271  75.895  0.00  0.00    +0.000 C 
BRANCH  25  26
ATOM     26  C   UNL     1      56.646  36.754  76.611  0.00  0.00    +0.000 C 
ATOM     27  C   UNL     1      56.140  38.088  76.376  0.00  0.00    +0.000 C 
ATOM     28  C   UNL     1      56.764  39.028  75.361  0.00  0.00    +0.000 C 
ATOM     29  C   UNL     1      54.970  38.684  77.128  0.00  0.00    +0.000 C 
BRANCH  26  30
ATOM     30  C   UNL     1      55.998  35.917  77.557  0.00  0.00    +0.000 C 
ATOM     31  C   UNL     1      55.298  34.973  78.542  0.00  0.00    +0.000 C 
ENDBRANCH  26  30
ENDBRANCH  25  26
ENDBRANCH  22  24
ENDBRANCH   5  22
TORSDOF 5
ENDMDL
MODEL 6
REMARK VINA RESULT:      -6.5      3.567      8.008
REMARK  Name = 222284_BetaSitosterol.pdbqt.pdb
REMARK  5 active torsions:
REMARK  status: ('A' for Active; 'I' for Inactive)
REMARK    1  A    between atoms: C_5  and  C_22
REMARK    2  A    between atoms: C_19  and  O_20
REMARK    3  A    between atoms: C_22  and  C_24
REMARK    4  A    between atoms: C_25  and  C_26
REMARK    5  A    between atoms: C_26  and  C_30
REMARK                            x       y       z     vdW  Elec       q    Type
REMARK                         _______ _______ _______ _____ _____    ______ ____
ROOT
ATOM      1  C   UNL     1      63.152  35.421  74.541  0.00  0.00    +0.000 C 
ATOM      2  C   UNL     1      63.906  34.373  73.574  0.00  0.00    +0.000 C 
ATOM      3  C   UNL     1      63.245  33.148  73.080  0.00  0.00    +0.000 C 
ATOM      4  C   UNL     1      61.767  32.851  73.146  0.00  0.00    +0.000 C 
ATOM      5  C   UNL     1      63.545  36.778  73.976  0.00  0.00    +0.000 C 
ATOM      6  C   UNL     1      61.728  35.113  74.400  0.00  0.00    +0.000 C 
ATOM      7  C   UNL     1      61.136  31.511  72.681  0.00  0.00    +0.000 C 
ATOM      8  C   UNL     1      64.740  35.135  72.697  0.00  0.00    +0.000 C 
ATOM      9  C   UNL     1      61.061  33.912  73.776  0.00  0.00    +0.000 C 
ATOM     10  C   UNL     1      64.484  36.602  72.920  0.00  0.00    +0.000 C 
ATOM     11  C   UNL     1      63.967  32.169  72.355  0.00  0.00    +0.000 C 
ATOM     12  C   UNL     1      63.695  35.227  75.980  0.00  0.00    +0.000 C 
ATOM     13  C   UNL     1      62.118  30.609  71.705  0.00  0.00    +0.000 C 
ATOM     14  C   UNL     1      59.934  31.773  71.836  0.00  0.00    +0.000 C 
ATOM     15  C   UNL     1      63.369  30.956  71.707  0.00  0.00    +0.000 C 
ATOM     16  C   UNL     1      60.807  30.644  73.930  0.00  0.00    +0.000 C 
ATOM     17  C   UNL     1      61.537  30.204  70.446  0.00  0.00    +0.000 C 
ATOM     18  C   UNL     1      59.477  31.305  70.443  0.00  0.00    +0.000 C 
ATOM     19  C   UNL     1      60.334  30.436  69.705  0.00  0.00    +0.000 C 
ENDROOT
BRANCH  19  20
ATOM     20  O   UNL     1      59.832  29.517  68.832  0.00  0.00    +0.000 OA
ATOM     21  H   UNL     1      60.342  29.494  68.005  0.00  0.00    +0.000 HD
ENDBRANCH  19  20
BRANCH   5  22
ATOM     22  C   UNL     1      63.003  38.029  74.405  0.00  0.00    +0.000 C 
ATOM     23  C   UNL     1      63.841  39.277  74.520  0.00  0.00    +0.000 C 
BRANCH  22  24
ATOM     24  C   UNL     1      61.629  38.186  74.734  0.00  0.00    +0.000 C 
ATOM     25  C   UNL     1      60.152  38.378  75.107  0.00  0.00    +0.000 C 
BRANCH  25  26
ATOM     26  C   UNL     1      58.783  38.559  75.472  0.00  0.00    +0.000 C 
ATOM     27  C   UNL     1      57.813  39.005  74.496  0.00  0.00    +0.000 C 
ATOM     28  C   UNL     1      58.183  39.283  73.051  0.00  0.00    +0.000 C 
ATOM     29  C   UNL     1      56.358  39.263  74.819  0.00  0.00    +0.000 C 
BRANCH  26  30
ATOM     30  C   UNL     1      58.363  38.292  76.802  0.00  0.00    +0.000 C 
ATOM     31  C   UNL     1      57.864  37.980  78.218  0.00  0.00    +0.000 C 
ENDBRANCH  26  30
ENDBRANCH  25  26
ENDBRANCH  22  24
ENDBRANCH   5  22
TORSDOF 5
ENDMDL
MODEL 7
REMARK VINA RESULT:      -6.5      4.320      8.291
REMARK  Name = 222284_BetaSitosterol.pdbqt.pdb
REMARK  5 active torsions:
REMARK  status: ('A' for Active; 'I' for Inactive)
REMARK    1  A    between atoms: C_5  and  C_22
REMARK    2  A    between atoms: C_19  and  O_20
REMARK    3  A    between atoms: C_22  and  C_24
REMARK    4  A    between atoms: C_25  and  C_26
REMARK    5  A    between atoms: C_26  and  C_30
REMARK                            x       y       z     vdW  Elec       q    Type
REMARK                         _______ _______ _______ _____ _____    ______ ____
ROOT
ATOM      1  C   UNL     1      62.775  34.698  75.892  0.00  0.00    +0.000 C 
ATOM      2  C   UNL     1      61.634  34.790  74.756  0.00  0.00    +0.000 C 
ATOM      3  C   UNL     1      60.256  35.226  75.062  0.00  0.00    +0.000 C 
ATOM      4  C   UNL     1      59.803  35.899  76.334  0.00  0.00    +0.000 C 
ATOM      5  C   UNL     1      64.003  35.288  75.216  0.00  0.00    +0.000 C 
ATOM      6  C   UNL     1      62.270  35.504  77.005  0.00  0.00    +0.000 C 
ATOM      7  C   UNL     1      58.325  36.266  76.635  0.00  0.00    +0.000 C 
ATOM      8  C   UNL     1      62.271  35.234  73.555  0.00  0.00    +0.000 C 
ATOM      9  C   UNL     1      60.885  36.054  77.244  0.00  0.00    +0.000 C 
ATOM     10  C   UNL     1      63.707  35.576  73.853  0.00  0.00    +0.000 C 
ATOM     11  C   UNL     1      59.233  35.159  74.085  0.00  0.00    +0.000 C 
ATOM     12  C   UNL     1      62.985  33.203  76.247  0.00  0.00    +0.000 C 
ATOM     13  C   UNL     1      57.351  36.278  75.301  0.00  0.00    +0.000 C 
ATOM     14  C   UNL     1      58.235  37.661  77.157  0.00  0.00    +0.000 C 
ATOM     15  C   UNL     1      57.840  35.687  74.253  0.00  0.00    +0.000 C 
ATOM     16  C   UNL     1      57.733  35.222  77.626  0.00  0.00    +0.000 C 
ATOM     17  C   UNL     1      56.599  37.495  75.094  0.00  0.00    +0.000 C 
ATOM     18  C   UNL     1      57.408  38.900  76.774  0.00  0.00    +0.000 C 
ATOM     19  C   UNL     1      56.506  38.799  75.675  0.00  0.00    +0.000 C 
ENDROOT
BRANCH  19  20
ATOM     20  O   UNL     1      55.355  39.531  75.631  0.00  0.00    +0.000 OA
ATOM     21  H   UNL     1      55.518  40.464  75.850  0.00  0.00    +0.000 HD
ENDBRANCH  19  20
BRANCH   5  22
ATOM     22  C   UNL     1      65.243  35.563  75.873  0.00  0.00    +0.000 C 
ATOM     23  C   UNL     1      65.997  36.853  75.667  0.00  0.00    +0.000 C 
BRANCH  22  24
ATOM     24  C   UNL     1      65.840  34.647  76.780  0.00  0.00    +0.000 C 
ATOM     25  C   UNL     1      66.464  33.662  77.780  0.00  0.00    +0.000 C 
BRANCH  25  26
ATOM     26  C   UNL     1      67.042  32.759  78.723  0.00  0.00    +0.000 C 
ATOM     27  C   UNL     1      67.871  31.660  78.278  0.00  0.00    +0.000 C 
ATOM     28  C   UNL     1      68.184  31.419  76.814  0.00  0.00    +0.000 C 
ATOM     29  C   UNL     1      68.477  30.638  79.214  0.00  0.00    +0.000 C 
BRANCH  26  30
ATOM     30  C   UNL     1      66.810  32.942  80.113  0.00  0.00    +0.000 C 
ATOM     31  C   UNL     1      66.550  33.086  81.617  0.00  0.00    +0.000 C 
ENDBRANCH  26  30
ENDBRANCH  25  26
ENDBRANCH  22  24
ENDBRANCH   5  22
TORSDOF 5
ENDMDL
MODEL 8
REMARK VINA RESULT:      -6.4      3.591      9.281
REMARK  Name = 222284_BetaSitosterol.pdbqt.pdb
REMARK  5 active torsions:
REMARK  status: ('A' for Active; 'I' for Inactive)
REMARK    1  A    between atoms: C_5  and  C_22
REMARK    2  A    between atoms: C_19  and  O_20
REMARK    3  A    between atoms: C_22  and  C_24
REMARK    4  A    between atoms: C_25  and  C_26
REMARK    5  A    between atoms: C_26  and  C_30
REMARK                            x       y       z     vdW  Elec       q    Type
REMARK                         _______ _______ _______ _____ _____    ______ ____
ROOT
ATOM      1  C   UNL     1      59.703  33.476  71.676  0.00  0.00    +0.000 C 
ATOM      2  C   UNL     1      59.769  32.005  71.018  0.00  0.00    +0.000 C 
ATOM      3  C   UNL     1      59.552  31.782  69.574  0.00  0.00    +0.000 C 
ATOM      4  C   UNL     1      59.535  32.848  68.506  0.00  0.00    +0.000 C 
ATOM      5  C   UNL     1      60.885  33.495  72.632  0.00  0.00    +0.000 C 
ATOM      6  C   UNL     1      59.839  34.403  70.551  0.00  0.00    +0.000 C 
ATOM      7  C   UNL     1      59.224  32.566  67.011  0.00  0.00    +0.000 C 
ATOM      8  C   UNL     1      60.796  31.284  71.703  0.00  0.00    +0.000 C 
ATOM      9  C   UNL     1      59.741  34.138  69.068  0.00  0.00    +0.000 C 
ATOM     10  C   UNL     1      61.501  32.211  72.657  0.00  0.00    +0.000 C 
ATOM     11  C   UNL     1      59.467  30.473  69.040  0.00  0.00    +0.000 C 
ATOM     12  C   UNL     1      58.357  33.606  72.435  0.00  0.00    +0.000 C 
ATOM     13  C   UNL     1      59.349  30.974  66.589  0.00  0.00    +0.000 C 
ATOM     14  C   UNL     1      60.224  33.248  66.138  0.00  0.00    +0.000 C 
ATOM     15  C   UNL     1      59.372  30.138  67.582  0.00  0.00    +0.000 C 
ATOM     16  C   UNL     1      57.765  33.010  66.704  0.00  0.00    +0.000 C 
ATOM     17  C   UNL     1      60.209  30.698  65.461  0.00  0.00    +0.000 C 
ATOM     18  C   UNL     1      61.138  32.788  64.990  0.00  0.00    +0.000 C 
ATOM     19  C   UNL     1      61.108  31.414  64.609  0.00  0.00    +0.000 C 
ENDROOT
BRANCH  19  20
ATOM     20  O   UNL     1      61.350  31.029  63.323  0.00  0.00    +0.000 OA
ATOM     21  H   UNL     1      61.068  30.111  63.167  0.00  0.00    +0.000 HD
ENDBRANCH  19  20
BRANCH   5  22
ATOM     22  C   UNL     1      61.339  34.647  73.347  0.00  0.00    +0.000 C 
ATOM     23  C   UNL     1      62.592  35.394  72.964  0.00  0.00    +0.000 C 
BRANCH  22  24
ATOM     24  C   UNL     1      60.628  35.180  74.456  0.00  0.00    +0.000 C 
ATOM     25  C   UNL     1      59.848  35.729  75.659  0.00  0.00    +0.000 C 
BRANCH  25  26
ATOM     26  C   UNL     1      59.107  36.231  76.772  0.00  0.00    +0.000 C 
ATOM     27  C   UNL     1      58.682  37.613  76.811  0.00  0.00    +0.000 C 
ATOM     28  C   UNL     1      58.978  38.587  75.686  0.00  0.00    +0.000 C 
ATOM     29  C   UNL     1      57.936  38.227  77.975  0.00  0.00    +0.000 C 
BRANCH  26  30
ATOM     30  C   UNL     1      58.773  35.367  77.849  0.00  0.00    +0.000 C 
ATOM     31  C   UNL     1      58.368  34.420  78.985  0.00  0.00    +0.000 C 
ENDBRANCH  26  30
ENDBRANCH  25  26
ENDBRANCH  22  24
ENDBRANCH   5  22
TORSDOF 5
ENDMDL
MODEL 9
REMARK VINA RESULT:      -6.3      3.661      9.292
REMARK  Name = 222284_BetaSitosterol.pdbqt.pdb
REMARK  5 active torsions:
REMARK  status: ('A' for Active; 'I' for Inactive)
REMARK    1  A    between atoms: C_5  and  C_22
REMARK    2  A    between atoms: C_19  and  O_20
REMARK    3  A    between atoms: C_22  and  C_24
REMARK    4  A    between atoms: C_25  and  C_26
REMARK    5  A    between atoms: C_26  and  C_30
REMARK                            x       y       z     vdW  Elec       q    Type
REMARK                         _______ _______ _______ _____ _____    ______ ____
ROOT
ATOM      1  C   UNL     1      60.197  31.991  70.891  0.00  0.00    +0.000 C 
ATOM      2  C   UNL     1      59.936  30.749  69.896  0.00  0.00    +0.000 C 
ATOM      3  C   UNL     1      59.441  30.939  68.517  0.00  0.00    +0.000 C 
ATOM      4  C   UNL     1      59.391  32.247  67.768  0.00  0.00    +0.000 C 
ATOM      5  C   UNL     1      61.519  31.644  71.559  0.00  0.00    +0.000 C 
ATOM      6  C   UNL     1      60.266  33.167  70.021  0.00  0.00    +0.000 C 
ATOM      7  C   UNL     1      58.787  32.403  66.346  0.00  0.00    +0.000 C 
ATOM      8  C   UNL     1      60.954  29.778  70.159  0.00  0.00    +0.000 C 
ATOM      9  C   UNL     1      59.874  33.316  68.571  0.00  0.00    +0.000 C 
ATOM     10  C   UNL     1      61.939  30.348  71.144  0.00  0.00    +0.000 C 
ATOM     11  C   UNL     1      59.078  29.833  67.710  0.00  0.00    +0.000 C 
ATOM     12  C   UNL     1      59.037  32.039  71.918  0.00  0.00    +0.000 C 
ATOM     13  C   UNL     1      58.607  30.977  65.532  0.00  0.00    +0.000 C 
ATOM     14  C   UNL     1      59.706  33.197  65.478  0.00  0.00    +0.000 C 
ATOM     15  C   UNL     1      58.683  29.908  66.267  0.00  0.00    +0.000 C 
ATOM     16  C   UNL     1      57.375  33.047  66.462  0.00  0.00    +0.000 C 
ATOM     17  C   UNL     1      59.209  30.932  64.220  0.00  0.00    +0.000 C 
ATOM     18  C   UNL     1      60.330  32.976  64.090  0.00  0.00    +0.000 C 
ATOM     19  C   UNL     1      60.038  31.762  63.401  0.00  0.00    +0.000 C 
ENDROOT
BRANCH  19  20
ATOM     20  O   UNL     1      59.994  31.712  62.039  0.00  0.00    +0.000 OA
ATOM     21  H   UNL     1      59.675  32.549  61.661  0.00  0.00    +0.000 HD
ENDBRANCH  19  20
BRANCH   5  22
ATOM     22  C   UNL     1      62.251  32.517  72.423  0.00  0.00    +0.000 C 
ATOM     23  C   UNL     1      63.749  32.664  72.342  0.00  0.00    +0.000 C 
BRANCH  22  24
ATOM     24  C   UNL     1      61.611  33.322  73.404  0.00  0.00    +0.000 C 
ATOM     25  C   UNL     1      60.896  34.190  74.450  0.00  0.00    +0.000 C 
BRANCH  25  26
ATOM     26  C   UNL     1      60.223  35.008  75.408  0.00  0.00    +0.000 C 
ATOM     27  C   UNL     1      60.879  35.391  76.639  0.00  0.00    +0.000 C 
ATOM     28  C   UNL     1      62.299  34.971  76.969  0.00  0.00    +0.000 C 
ATOM     29  C   UNL     1      60.214  36.214  77.720  0.00  0.00    +0.000 C 
BRANCH  26  30
ATOM     30  C   UNL     1      58.901  35.458  75.151  0.00  0.00    +0.000 C 
ATOM     31  C   UNL     1      57.472  35.966  74.924  0.00  0.00    +0.000 C 
ENDBRANCH  26  30
ENDBRANCH  25  26
ENDBRANCH  22  24
ENDBRANCH   5  22
TORSDOF 5
ENDMDL
