MODEL 1
REMARK VINA RESULT:      -6.3      0.000      0.000
REMARK  Name = 25023738_BI-D-1870.pdbqt.pdb
REMARK  4 active torsions:
REMARK  status: ('A' for Active; 'I' for Inactive)
REMARK    1  A    between atoms: N_2  and  C_26
REMARK    2  A    between atoms: N_14  and  C_16
REMARK    3  A    between atoms: C_20  and  O_24
REMARK    4  A    between atoms: C_27  and  C_28
REMARK                            x       y       z     vdW  Elec       q    Type
REMARK                         _______ _______ _______ _____ _____    ______ ____
ROOT
ATOM      1  O   UNL     1      57.287  39.117  74.645  0.00  0.00    +0.000 OA
ATOM      2  N   UNL     1      58.708  36.229  72.992  0.00  0.00    +0.000 N 
ATOM      3  N   UNL     1      58.560  37.391  75.555  0.00  0.00    +0.000 N 
ATOM      4  N   UNL     1      60.015  34.441  73.877  0.00  0.00    +0.000 NA
ATOM      5  N   UNL     1      60.591  34.331  76.146  0.00  0.00    +0.000 NA
ATOM      6  C   UNL     1      58.010  37.409  73.140  0.00  0.00    +0.000 C 
ATOM      7  C   UNL     1      59.344  35.597  74.081  0.00  0.00    +0.000 A 
ATOM      8  C   UNL     1      57.909  38.061  74.497  0.00  0.00    +0.000 C 
ATOM      9  C   UNL     1      59.263  36.176  75.328  0.00  0.00    +0.000 A 
ATOM     10  C   UNL     1      57.341  38.055  71.932  0.00  0.00    +0.000 C 
ATOM     11  C   UNL     1      58.573  37.867  76.934  0.00  0.00    +0.000 C 
ATOM     12  C   UNL     1      59.916  35.482  76.323  0.00  0.00    +0.000 A 
ATOM     13  C   UNL     1      60.621  33.837  74.910  0.00  0.00    +0.000 A 
ATOM     14  N   UNL     1      61.319  32.649  74.742  0.00  0.00    +0.000 N 
ATOM     15  H   UNL     1      61.712  32.332  75.620  0.00  0.00    +0.000 HD
ENDROOT
BRANCH  14  16
ATOM     16  C   UNL     1      61.551  31.862  73.609  0.00  0.00    +0.000 A 
ATOM     17  C   UNL     1      60.459  31.417  72.851  0.00  0.00    +0.000 A 
ATOM     18  C   UNL     1      60.651  30.632  71.715  0.00  0.00    +0.000 A 
ATOM     19  F   UNL     1      59.580  30.227  71.017  0.00  0.00    +0.000 F 
ATOM     20  C   UNL     1      61.931  30.275  71.314  0.00  0.00    +0.000 A 
ATOM     21  C   UNL     1      63.017  30.710  72.060  0.00  0.00    +0.000 A 
ATOM     22  F   UNL     1      64.259  30.372  71.682  0.00  0.00    +0.000 F 
ATOM     23  C   UNL     1      62.834  31.496  73.194  0.00  0.00    +0.000 A 
BRANCH  20  24
ATOM     24  O   UNL     1      62.112  29.504  70.200  0.00  0.00    +0.000 OA
ATOM     25  H   UNL     1      61.465  28.773  70.231  0.00  0.00    +0.000 HD
ENDBRANCH  20  24
ENDBRANCH  14  16
BRANCH   2  26
ATOM     26  C   UNL     1      58.811  35.596  71.680  0.00  0.00    +0.000 C 
ATOM     27  C   UNL     1      58.917  34.935  70.300  0.00  0.00    +0.000 C 
BRANCH  27  28
ATOM     28  C   UNL     1      59.016  34.322  69.031  0.00  0.00    +0.000 C 
ATOM     29  C   UNL     1      58.618  35.081  67.803  0.00  0.00    +0.000 C 
ATOM     30  C   UNL     1      59.470  32.899  68.923  0.00  0.00    +0.000 C 
ENDBRANCH  27  28
ENDBRANCH   2  26
TORSDOF 4
ENDMDL
MODEL 2
REMARK VINA RESULT:      -6.0     19.660     21.515
REMARK  Name = 25023738_BI-D-1870.pdbqt.pdb
REMARK  4 active torsions:
REMARK  status: ('A' for Active; 'I' for Inactive)
REMARK    1  A    between atoms: N_2  and  C_26
REMARK    2  A    between atoms: N_14  and  C_16
REMARK    3  A    between atoms: C_20  and  O_24
REMARK    4  A    between atoms: C_27  and  C_28
REMARK                            x       y       z     vdW  Elec       q    Type
REMARK                         _______ _______ _______ _____ _____    ______ ____
ROOT
ATOM      1  O   UNL     1      50.568  20.678  84.702  0.00  0.00    +0.000 OA
ATOM      2  N   UNL     1      47.657  22.823  84.567  0.00  0.00    +0.000 N 
ATOM      3  N   UNL     1      50.326  22.864  85.471  0.00  0.00    +0.000 N 
ATOM      4  N   UNL     1      47.361  25.061  85.338  0.00  0.00    +0.000 NA
ATOM      5  N   UNL     1      49.090  26.253  86.378  0.00  0.00    +0.000 NA
ATOM      6  C   UNL     1      48.430  21.696  84.386  0.00  0.00    +0.000 C 
ATOM      7  C   UNL     1      48.165  23.983  85.188  0.00  0.00    +0.000 A 
ATOM      8  C   UNL     1      49.863  21.680  84.858  0.00  0.00    +0.000 C 
ATOM      9  C   UNL     1      49.471  23.989  85.625  0.00  0.00    +0.000 A 
ATOM     10  C   UNL     1      47.836  20.465  83.711  0.00  0.00    +0.000 C 
ATOM     11  C   UNL     1      51.679  23.037  85.989  0.00  0.00    +0.000 C 
ATOM     12  C   UNL     1      49.870  25.168  86.216  0.00  0.00    +0.000 A 
ATOM     13  C   UNL     1      47.840  26.166  85.928  0.00  0.00    +0.000 A 
ATOM     14  N   UNL     1      47.047  27.292  86.101  0.00  0.00    +0.000 N 
ATOM     15  H   UNL     1      47.563  28.032  86.561  0.00  0.00    +0.000 HD
ENDROOT
BRANCH  14  16
ATOM     16  C   UNL     1      45.716  27.551  85.755  0.00  0.00    +0.000 A 
ATOM     17  C   UNL     1      44.706  27.302  86.694  0.00  0.00    +0.000 A 
ATOM     18  C   UNL     1      43.369  27.548  86.386  0.00  0.00    +0.000 A 
ATOM     19  F   UNL     1      42.431  27.296  87.311  0.00  0.00    +0.000 F 
ATOM     20  C   UNL     1      43.013  28.044  85.139  0.00  0.00    +0.000 A 
ATOM     21  C   UNL     1      44.008  28.293  84.204  0.00  0.00    +0.000 A 
ATOM     22  F   UNL     1      43.677  28.774  82.996  0.00  0.00    +0.000 F 
ATOM     23  C   UNL     1      45.345  28.051  84.504  0.00  0.00    +0.000 A 
BRANCH  20  24
ATOM     24  O   UNL     1      41.701  28.282  84.843  0.00  0.00    +0.000 OA
ATOM     25  H   UNL     1      41.654  29.103  84.315  0.00  0.00    +0.000 HD
ENDBRANCH  20  24
ENDBRANCH  14  16
BRANCH   2  26
ATOM     26  C   UNL     1      46.268  22.842  84.114  0.00  0.00    +0.000 C 
ATOM     27  C   UNL     1      44.812  22.860  83.635  0.00  0.00    +0.000 C 
BRANCH  27  28
ATOM     28  C   UNL     1      43.469  22.878  83.198  0.00  0.00    +0.000 C 
ATOM     29  C   UNL     1      42.931  24.083  82.488  0.00  0.00    +0.000 C 
ATOM     30  C   UNL     1      42.573  21.715  83.491  0.00  0.00    +0.000 C 
ENDBRANCH  27  28
ENDBRANCH   2  26
TORSDOF 4
ENDMDL
MODEL 3
REMARK VINA RESULT:      -5.6      2.149      3.271
REMARK  Name = 25023738_BI-D-1870.pdbqt.pdb
REMARK  4 active torsions:
REMARK  status: ('A' for Active; 'I' for Inactive)
REMARK    1  A    between atoms: N_2  and  C_26
REMARK    2  A    between atoms: N_14  and  C_16
REMARK    3  A    between atoms: C_20  and  O_24
REMARK    4  A    between atoms: C_27  and  C_28
REMARK                            x       y       z     vdW  Elec       q    Type
REMARK                         _______ _______ _______ _____ _____    ______ ____
ROOT
ATOM      1  O   UNL     1      55.468  40.883  74.165  0.00  0.00    +0.000 OA
ATOM      2  N   UNL     1      56.688  38.102  72.199  0.00  0.00    +0.000 N 
ATOM      3  N   UNL     1      56.662  39.010  74.867  0.00  0.00    +0.000 N 
ATOM      4  N   UNL     1      57.911  36.166  72.869  0.00  0.00    +0.000 NA
ATOM      5  N   UNL     1      58.529  35.801  75.100  0.00  0.00    +0.000 NA
ATOM      6  C   UNL     1      56.061  39.296  72.481  0.00  0.00    +0.000 C 
ATOM      7  C   UNL     1      57.311  37.332  73.203  0.00  0.00    +0.000 A 
ATOM      8  C   UNL     1      56.027  39.815  73.897  0.00  0.00    +0.000 C 
ATOM      9  C   UNL     1      57.290  37.788  74.502  0.00  0.00    +0.000 A 
ATOM     10  C   UNL     1      55.403  40.095  71.361  0.00  0.00    +0.000 C 
ATOM     11  C   UNL     1      56.731  39.346  76.285  0.00  0.00    +0.000 C 
ATOM     12  C   UNL     1      57.924  36.964  75.407  0.00  0.00    +0.000 A 
ATOM     13  C   UNL     1      58.504  35.431  73.821  0.00  0.00    +0.000 A 
ATOM     14  N   UNL     1      59.131  34.230  73.519  0.00  0.00    +0.000 N 
ATOM     15  H   UNL     1      59.524  33.807  74.350  0.00  0.00    +0.000 HD
ENDROOT
BRANCH  14  16
ATOM     16  C   UNL     1      59.293  33.548  72.308  0.00  0.00    +0.000 A 
ATOM     17  C   UNL     1      59.634  32.189  72.329  0.00  0.00    +0.000 A 
ATOM     18  C   UNL     1      59.803  31.476  71.143  0.00  0.00    +0.000 A 
ATOM     19  F   UNL     1      60.130  30.177  71.207  0.00  0.00    +0.000 F 
ATOM     20  C   UNL     1      59.637  32.103  69.916  0.00  0.00    +0.000 A 
ATOM     21  C   UNL     1      59.300  33.449  69.886  0.00  0.00    +0.000 A 
ATOM     22  F   UNL     1      59.136  34.065  68.706  0.00  0.00    +0.000 F 
ATOM     23  C   UNL     1      59.128  34.167  71.066  0.00  0.00    +0.000 A 
BRANCH  20  24
ATOM     24  O   UNL     1      59.806  31.399  68.757  0.00  0.00    +0.000 OA
ATOM     25  H   UNL     1      60.622  31.718  68.326  0.00  0.00    +0.000 HD
ENDBRANCH  20  24
ENDBRANCH  14  16
BRANCH   2  26
ATOM     26  C   UNL     1      56.726  37.597  70.829  0.00  0.00    +0.000 C 
ATOM     27  C   UNL     1      56.769  37.070  69.389  0.00  0.00    +0.000 C 
BRANCH  27  28
ATOM     28  C   UNL     1      56.806  36.581  68.064  0.00  0.00    +0.000 C 
ATOM     29  C   UNL     1      57.979  36.893  67.186  0.00  0.00    +0.000 C 
ATOM     30  C   UNL     1      55.649  35.797  67.526  0.00  0.00    +0.000 C 
ENDBRANCH  27  28
ENDBRANCH   2  26
TORSDOF 4
ENDMDL
MODEL 4
REMARK VINA RESULT:      -5.5     19.932     21.663
REMARK  Name = 25023738_BI-D-1870.pdbqt.pdb
REMARK  4 active torsions:
REMARK  status: ('A' for Active; 'I' for Inactive)
REMARK    1  A    between atoms: N_2  and  C_26
REMARK    2  A    between atoms: N_14  and  C_16
REMARK    3  A    between atoms: C_20  and  O_24
REMARK    4  A    between atoms: C_27  and  C_28
REMARK                            x       y       z     vdW  Elec       q    Type
REMARK                         _______ _______ _______ _____ _____    ______ ____
ROOT
ATOM      1  O   UNL     1      51.576  19.920  86.143  0.00  0.00    +0.000 OA
ATOM      2  N   UNL     1      48.456  21.378  85.035  0.00  0.00    +0.000 N 
ATOM      3  N   UNL     1      51.002  22.169  85.950  0.00  0.00    +0.000 N 
ATOM      4  N   UNL     1      47.821  23.668  84.821  0.00  0.00    +0.000 NA
ATOM      5  N   UNL     1      49.287  25.416  85.357  0.00  0.00    +0.000 NA
ATOM      6  C   UNL     1      49.372  20.400  85.357  0.00  0.00    +0.000 C 
ATOM      7  C   UNL     1      48.759  22.751  85.152  0.00  0.00    +0.000 A 
ATOM      8  C   UNL     1      50.745  20.785  85.851  0.00  0.00    +0.000 C 
ATOM      9  C   UNL     1      50.007  23.123  85.601  0.00  0.00    +0.000 A 
ATOM     10  C   UNL     1      48.998  18.929  85.216  0.00  0.00    +0.000 C 
ATOM     11  C   UNL     1      52.268  22.731  86.407  0.00  0.00    +0.000 C 
ATOM     12  C   UNL     1      50.203  24.484  85.679  0.00  0.00    +0.000 A 
ATOM     13  C   UNL     1      48.106  24.974  84.931  0.00  0.00    +0.000 A 
ATOM     14  N   UNL     1      47.170  25.945  84.601  0.00  0.00    +0.000 N 
ATOM     15  H   UNL     1      47.547  26.874  84.742  0.00  0.00    +0.000 HD
ENDROOT
BRANCH  14  16
ATOM     16  C   UNL     1      45.857  25.845  84.128  0.00  0.00    +0.000 A 
ATOM     17  C   UNL     1      44.945  26.867  84.424  0.00  0.00    +0.000 A 
ATOM     18  C   UNL     1      43.629  26.802  83.970  0.00  0.00    +0.000 A 
ATOM     19  F   UNL     1      42.786  27.799  84.275  0.00  0.00    +0.000 F 
ATOM     20  C   UNL     1      43.197  25.721  83.213  0.00  0.00    +0.000 A 
ATOM     21  C   UNL     1      44.095  24.705  82.916  0.00  0.00    +0.000 A 
ATOM     22  F   UNL     1      43.690  23.656  82.185  0.00  0.00    +0.000 F 
ATOM     23  C   UNL     1      45.411  24.763  83.365  0.00  0.00    +0.000 A 
BRANCH  20  24
ATOM     24  O   UNL     1      41.905  25.663  82.771  0.00  0.00    +0.000 OA
ATOM     25  H   UNL     1      41.318  25.738  83.548  0.00  0.00    +0.000 HD
ENDBRANCH  20  24
ENDBRANCH  14  16
BRANCH   2  26
ATOM     26  C   UNL     1      47.125  21.010  84.558  0.00  0.00    +0.000 C 
ATOM     27  C   UNL     1      45.727  20.629  84.058  0.00  0.00    +0.000 C 
BRANCH  27  28
ATOM     28  C   UNL     1      44.440  20.273  83.597  0.00  0.00    +0.000 C 
ATOM     29  C   UNL     1      43.249  21.083  84.010  0.00  0.00    +0.000 C 
ATOM     30  C   UNL     1      44.264  19.058  82.740  0.00  0.00    +0.000 C 
ENDBRANCH  27  28
ENDBRANCH   2  26
TORSDOF 4
ENDMDL
MODEL 5
REMARK VINA RESULT:      -5.2     44.993     46.000
REMARK  Name = 25023738_BI-D-1870.pdbqt.pdb
REMARK  4 active torsions:
REMARK  status: ('A' for Active; 'I' for Inactive)
REMARK    1  A    between atoms: N_2  and  C_26
REMARK    2  A    between atoms: N_14  and  C_16
REMARK    3  A    between atoms: C_20  and  O_24
REMARK    4  A    between atoms: C_27  and  C_28
REMARK                            x       y       z     vdW  Elec       q    Type
REMARK                         _______ _______ _______ _____ _____    ______ ____
ROOT
ATOM      1  O   UNL     1      18.847  14.380  82.838  0.00  0.00    +0.000 OA
ATOM      2  N   UNL     1      20.562  15.798  85.690  0.00  0.00    +0.000 N 
ATOM      3  N   UNL     1      18.001  14.884  84.949  0.00  0.00    +0.000 N 
ATOM      4  N   UNL     1      19.743  16.332  87.867  0.00  0.00    +0.000 NA
ATOM      5  N   UNL     1      17.509  15.965  88.474  0.00  0.00    +0.000 NA
ATOM      6  C   UNL     1      20.381  15.314  84.413  0.00  0.00    +0.000 C 
ATOM      7  C   UNL     1      19.508  15.847  86.626  0.00  0.00    +0.000 A 
ATOM      8  C   UNL     1      19.024  14.816  83.979  0.00  0.00    +0.000 C 
ATOM      9  C   UNL     1      18.262  15.397  86.250  0.00  0.00    +0.000 A 
ATOM     10  C   UNL     1      21.552  15.282  83.436  0.00  0.00    +0.000 C 
ATOM     11  C   UNL     1      16.628  14.451  84.716  0.00  0.00    +0.000 C 
ATOM     12  C   UNL     1      17.301  15.487  87.234  0.00  0.00    +0.000 A 
ATOM     13  C   UNL     1      18.742  16.380  88.758  0.00  0.00    +0.000 A 
ATOM     14  N   UNL     1      18.944  16.870  90.041  0.00  0.00    +0.000 N 
ATOM     15  H   UNL     1      18.088  16.835  90.582  0.00  0.00    +0.000 HD
ENDROOT
BRANCH  14  16
ATOM     16  C   UNL     1      20.086  17.377  90.672  0.00  0.00    +0.000 A 
ATOM     17  C   UNL     1      20.143  17.392  92.072  0.00  0.00    +0.000 A 
ATOM     18  C   UNL     1      21.264  17.889  92.735  0.00  0.00    +0.000 A 
ATOM     19  F   UNL     1      21.281  17.887  94.076  0.00  0.00    +0.000 F 
ATOM     20  C   UNL     1      22.347  18.380  92.017  0.00  0.00    +0.000 A 
ATOM     21  C   UNL     1      22.297  18.369  90.630  0.00  0.00    +0.000 A 
ATOM     22  F   UNL     1      23.337  18.840  89.926  0.00  0.00    +0.000 F 
ATOM     23  C   UNL     1      21.182  17.874  89.961  0.00  0.00    +0.000 A 
BRANCH  20  24
ATOM     24  O   UNL     1      23.442  18.867  92.674  0.00  0.00    +0.000 OA
ATOM     25  H   UNL     1      24.082  18.136  92.775  0.00  0.00    +0.000 HD
ENDBRANCH  20  24
ENDBRANCH  14  16
BRANCH   2  26
ATOM     26  C   UNL     1      21.874  16.283  86.114  0.00  0.00    +0.000 C 
ATOM     27  C   UNL     1      23.248  16.794  86.562  0.00  0.00    +0.000 C 
BRANCH  27  28
ATOM     28  C   UNL     1      24.517  17.262  86.971  0.00  0.00    +0.000 C 
ATOM     29  C   UNL     1      24.887  18.698  86.756  0.00  0.00    +0.000 C 
ATOM     30  C   UNL     1      25.506  16.311  87.570  0.00  0.00    +0.000 C 
ENDBRANCH  27  28
ENDBRANCH   2  26
TORSDOF 4
ENDMDL
MODEL 6
REMARK VINA RESULT:      -5.2     62.573     63.638
REMARK  Name = 25023738_BI-D-1870.pdbqt.pdb
REMARK  4 active torsions:
REMARK  status: ('A' for Active; 'I' for Inactive)
REMARK    1  A    between atoms: N_2  and  C_26
REMARK    2  A    between atoms: N_14  and  C_16
REMARK    3  A    between atoms: C_20  and  O_24
REMARK    4  A    between atoms: C_27  and  C_28
REMARK                            x       y       z     vdW  Elec       q    Type
REMARK                         _______ _______ _______ _____ _____    ______ ____
ROOT
ATOM      1  O   UNL     1      14.775   5.824  96.181  0.00  0.00    +0.000 OA
ATOM      2  N   UNL     1      12.688   4.587  98.865  0.00  0.00    +0.000 N 
ATOM      3  N   UNL     1      13.803   7.003  97.939  0.00  0.00    +0.000 N 
ATOM      4  N   UNL     1      11.672   5.751 100.683  0.00  0.00    +0.000 NA
ATOM      5  N   UNL     1      11.932   8.062 100.974  0.00  0.00    +0.000 NA
ATOM      6  C   UNL     1      13.464   4.559  97.726  0.00  0.00    +0.000 C 
ATOM      7  C   UNL     1      12.442   5.783  99.570  0.00  0.00    +0.000 A 
ATOM      8  C   UNL     1      14.078   5.833  97.200  0.00  0.00    +0.000 C 
ATOM      9  C   UNL     1      12.994   6.956  99.106  0.00  0.00    +0.000 A 
ATOM     10  C   UNL     1      13.703   3.241  96.998  0.00  0.00    +0.000 C 
ATOM     11  C   UNL     1      14.308   8.326  97.586  0.00  0.00    +0.000 C 
ATOM     12  C   UNL     1      12.694   8.067  99.865  0.00  0.00    +0.000 A 
ATOM     13  C   UNL     1      11.437   6.887 101.356  0.00  0.00    +0.000 A 
ATOM     14  N   UNL     1      10.652   6.895 102.501  0.00  0.00    +0.000 N 
ATOM     15  H   UNL     1      10.577   7.830 102.882  0.00  0.00    +0.000 HD
ENDROOT
BRANCH  14  16
ATOM     16  C   UNL     1       9.983   5.867 103.174  0.00  0.00    +0.000 A 
ATOM     17  C   UNL     1       8.601   5.973 103.382  0.00  0.00    +0.000 A 
ATOM     18  C   UNL     1       7.900   4.969 104.047  0.00  0.00    +0.000 A 
ATOM     19  F   UNL     1       6.578   5.107 104.226  0.00  0.00    +0.000 F 
ATOM     20  C   UNL     1       8.561   3.843 104.520  0.00  0.00    +0.000 A 
ATOM     21  C   UNL     1       9.930   3.732 104.320  0.00  0.00    +0.000 A 
ATOM     22  F   UNL     1      10.580   2.649 104.771  0.00  0.00    +0.000 F 
ATOM     23  C   UNL     1      10.636   4.729 103.654  0.00  0.00    +0.000 A 
BRANCH  20  24
ATOM     24  O   UNL     1       7.868   2.863 105.173  0.00  0.00    +0.000 OA
ATOM     25  H   UNL     1       8.314   2.012 104.999  0.00  0.00    +0.000 HD
ENDBRANCH  20  24
ENDBRANCH  14  16
BRANCH   2  26
ATOM     26  C   UNL     1      12.093   3.356  99.379  0.00  0.00    +0.000 C 
ATOM     27  C   UNL     1      11.466   2.063  99.914  0.00  0.00    +0.000 C 
BRANCH  27  28
ATOM     28  C   UNL     1      10.892   0.872 100.412  0.00  0.00    +0.000 C 
ATOM     29  C   UNL     1      10.896   0.600 101.885  0.00  0.00    +0.000 C 
ATOM     30  C   UNL     1      10.328  -0.139  99.461  0.00  0.00    +0.000 C 
ENDBRANCH  27  28
ENDBRANCH   2  26
TORSDOF 4
ENDMDL
MODEL 7
REMARK VINA RESULT:      -5.1     61.366     62.515
REMARK  Name = 25023738_BI-D-1870.pdbqt.pdb
REMARK  4 active torsions:
REMARK  status: ('A' for Active; 'I' for Inactive)
REMARK    1  A    between atoms: N_2  and  C_26
REMARK    2  A    between atoms: N_14  and  C_16
REMARK    3  A    between atoms: C_20  and  O_24
REMARK    4  A    between atoms: C_27  and  C_28
REMARK                            x       y       z     vdW  Elec       q    Type
REMARK                         _______ _______ _______ _____ _____    ______ ____
ROOT
ATOM      1  O   UNL     1      11.252  -2.476  98.866  0.00  0.00    +0.000 OA
ATOM      2  N   UNL     1      12.064   0.990  99.507  0.00  0.00    +0.000 N 
ATOM      3  N   UNL     1      12.125  -0.886  97.405  0.00  0.00    +0.000 N 
ATOM      4  N   UNL     1      12.958   2.654  98.049  0.00  0.00    +0.000 NA
ATOM      5  N   UNL     1      13.466   2.193  95.807  0.00  0.00    +0.000 NA
ATOM      6  C   UNL     1      11.625  -0.292  99.757  0.00  0.00    +0.000 C 
ATOM      7  C   UNL     1      12.539   1.381  98.238  0.00  0.00    +0.000 A 
ATOM      8  C   UNL     1      11.643  -1.324  98.657  0.00  0.00    +0.000 C 
ATOM      9  C   UNL     1      12.563   0.454  97.220  0.00  0.00    +0.000 A 
ATOM     10  C   UNL     1      11.122  -0.667 101.147  0.00  0.00    +0.000 C 
ATOM     11  C   UNL     1      12.217  -1.739  96.225  0.00  0.00    +0.000 C 
ATOM     12  C   UNL     1      13.043   0.934  96.021  0.00  0.00    +0.000 A 
ATOM     13  C   UNL     1      13.410   3.029  96.843  0.00  0.00    +0.000 A 
ATOM     14  N   UNL     1      13.849   4.325  96.609  0.00  0.00    +0.000 N 
ATOM     15  H   UNL     1      14.155   4.437  95.651  0.00  0.00    +0.000 HD
ENDROOT
BRANCH  14  16
ATOM     16  C   UNL     1      13.928   5.443  97.448  0.00  0.00    +0.000 A 
ATOM     17  C   UNL     1      13.963   5.254  98.836  0.00  0.00    +0.000 A 
ATOM     18  C   UNL     1      14.042   6.343  99.702  0.00  0.00    +0.000 A 
ATOM     19  F   UNL     1      14.073   6.121 101.024  0.00  0.00    +0.000 F 
ATOM     20  C   UNL     1      14.086   7.638  99.203  0.00  0.00    +0.000 A 
ATOM     21  C   UNL     1      14.050   7.833  97.830  0.00  0.00    +0.000 A 
ATOM     22  F   UNL     1      14.093   9.079  97.336  0.00  0.00    +0.000 F 
ATOM     23  C   UNL     1      13.973   6.751  96.958  0.00  0.00    +0.000 A 
BRANCH  20  24
ATOM     24  O   UNL     1      14.162   8.701 100.059  0.00  0.00    +0.000 OA
ATOM     25  H   UNL     1      13.664   8.474 100.867  0.00  0.00    +0.000 HD
ENDBRANCH  20  24
ENDBRANCH  14  16
BRANCH   2  26
ATOM     26  C   UNL     1      12.051   1.993 100.570  0.00  0.00    +0.000 C 
ATOM     27  C   UNL     1      12.038   3.041 101.689  0.00  0.00    +0.000 C 
BRANCH  27  28
ATOM     28  C   UNL     1      12.026   4.010 102.716  0.00  0.00    +0.000 C 
ATOM     29  C   UNL     1      11.099   5.184 102.624  0.00  0.00    +0.000 C 
ATOM     30  C   UNL     1      12.975   3.889 103.868  0.00  0.00    +0.000 C 
ENDBRANCH  27  28
ENDBRANCH   2  26
TORSDOF 4
ENDMDL
MODEL 8
REMARK VINA RESULT:      -5.1     57.867     58.750
REMARK  Name = 25023738_BI-D-1870.pdbqt.pdb
REMARK  4 active torsions:
REMARK  status: ('A' for Active; 'I' for Inactive)
REMARK    1  A    between atoms: N_2  and  C_26
REMARK    2  A    between atoms: N_14  and  C_16
REMARK    3  A    between atoms: C_20  and  O_24
REMARK    4  A    between atoms: C_27  and  C_28
REMARK                            x       y       z     vdW  Elec       q    Type
REMARK                         _______ _______ _______ _____ _____    ______ ____
ROOT
ATOM      1  O   UNL     1       4.201  20.489  88.235  0.00  0.00    +0.000 OA
ATOM      2  N   UNL     1       4.348  17.609  86.051  0.00  0.00    +0.000 N 
ATOM      3  N   UNL     1       5.751  19.998  86.567  0.00  0.00    +0.000 N 
ATOM      4  N   UNL     1       5.910  17.062  84.332  0.00  0.00    +0.000 NA
ATOM      5  N   UNL     1       7.712  18.464  83.803  0.00  0.00    +0.000 NA
ATOM      6  C   UNL     1       3.882  18.444  87.043  0.00  0.00    +0.000 C 
ATOM      7  C   UNL     1       5.498  17.919  85.295  0.00  0.00    +0.000 A 
ATOM      8  C   UNL     1       4.607  19.732  87.348  0.00  0.00    +0.000 C 
ATOM      9  C   UNL     1       6.173  19.090  85.558  0.00  0.00    +0.000 A 
ATOM     10  C   UNL     1       2.634  18.066  87.833  0.00  0.00    +0.000 C 
ATOM     11  C   UNL     1       6.579  21.190  86.716  0.00  0.00    +0.000 C 
ATOM     12  C   UNL     1       7.282  19.300  84.766  0.00  0.00    +0.000 A 
ATOM     13  C   UNL     1       7.003  17.354  83.612  0.00  0.00    +0.000 A 
ATOM     14  N   UNL     1       7.459  16.500  82.616  0.00  0.00    +0.000 N 
ATOM     15  H   UNL     1       8.291  16.870  82.173  0.00  0.00    +0.000 HD
ENDROOT
BRANCH  14  16
ATOM     16  C   UNL     1       6.973  15.272  82.154  0.00  0.00    +0.000 A 
ATOM     17  C   UNL     1       6.557  15.159  80.821  0.00  0.00    +0.000 A 
ATOM     18  C   UNL     1       6.068  13.951  80.325  0.00  0.00    +0.000 A 
ATOM     19  F   UNL     1       5.680  13.884  79.043  0.00  0.00    +0.000 F 
ATOM     20  C   UNL     1       5.984  12.835  81.147  0.00  0.00    +0.000 A 
ATOM     21  C   UNL     1       6.393  12.939  82.469  0.00  0.00    +0.000 A 
ATOM     22  F   UNL     1       6.318  11.868  83.272  0.00  0.00    +0.000 F 
ATOM     23  C   UNL     1       6.884  14.141  82.971  0.00  0.00    +0.000 A 
BRANCH  20  24
ATOM     24  O   UNL     1       5.503  11.655  80.655  0.00  0.00    +0.000 OA
ATOM     25  H   UNL     1       6.226  10.999  80.683  0.00  0.00    +0.000 HD
ENDBRANCH  20  24
ENDBRANCH  14  16
BRANCH   2  26
ATOM     26  C   UNL     1       3.649  16.362  85.750  0.00  0.00    +0.000 C 
ATOM     27  C   UNL     1       2.917  15.051  85.440  0.00  0.00    +0.000 C 
BRANCH  27  28
ATOM     28  C   UNL     1       2.240  13.846  85.149  0.00  0.00    +0.000 C 
ATOM     29  C   UNL     1       0.814  13.670  85.574  0.00  0.00    +0.000 C 
ATOM     30  C   UNL     1       2.965  12.729  84.465  0.00  0.00    +0.000 C 
ENDBRANCH  27  28
ENDBRANCH   2  26
TORSDOF 4
ENDMDL
MODEL 9
REMARK VINA RESULT:      -5.0     15.527     17.955
REMARK  Name = 25023738_BI-D-1870.pdbqt.pdb
REMARK  4 active torsions:
REMARK  status: ('A' for Active; 'I' for Inactive)
REMARK    1  A    between atoms: N_2  and  C_26
REMARK    2  A    between atoms: N_14  and  C_16
REMARK    3  A    between atoms: C_20  and  O_24
REMARK    4  A    between atoms: C_27  and  C_28
REMARK                            x       y       z     vdW  Elec       q    Type
REMARK                         _______ _______ _______ _____ _____    ______ ____
ROOT
ATOM      1  O   UNL     1      44.811  36.480  86.032  0.00  0.00    +0.000 OA
ATOM      2  N   UNL     1      45.538  37.792  82.739  0.00  0.00    +0.000 N 
ATOM      3  N   UNL     1      43.667  36.129  84.033  0.00  0.00    +0.000 N 
ATOM      4  N   UNL     1      44.401  37.462  80.668  0.00  0.00    +0.000 NA
ATOM      5  N   UNL     1      42.490  36.116  80.505  0.00  0.00    +0.000 NA
ATOM      6  C   UNL     1      45.679  37.572  84.092  0.00  0.00    +0.000 C 
ATOM      7  C   UNL     1      44.491  37.211  81.994  0.00  0.00    +0.000 A 
ATOM      8  C   UNL     1      44.697  36.687  84.820  0.00  0.00    +0.000 C 
ATOM      9  C   UNL     1      43.584  36.400  82.640  0.00  0.00    +0.000 A 
ATOM     10  C   UNL     1      46.829  38.222  84.855  0.00  0.00    +0.000 C 
ATOM     11  C   UNL     1      42.627  35.250  84.558  0.00  0.00    +0.000 C 
ATOM     12  C   UNL     1      42.601  35.882  81.825  0.00  0.00    +0.000 A 
ATOM     13  C   UNL     1      43.407  36.911  79.957  0.00  0.00    +0.000 A 
ATOM     14  N   UNL     1      43.280  37.145  78.594  0.00  0.00    +0.000 N 
ATOM     15  H   UNL     1      42.479  36.655  78.215  0.00  0.00    +0.000 HD
ENDROOT
BRANCH  14  16
ATOM     16  C   UNL     1      44.045  37.913  77.710  0.00  0.00    +0.000 A 
ATOM     17  C   UNL     1      44.645  37.291  76.607  0.00  0.00    +0.000 A 
ATOM     18  C   UNL     1      45.414  38.024  75.705  0.00  0.00    +0.000 A 
ATOM     19  F   UNL     1      45.971  37.392  74.662  0.00  0.00    +0.000 F 
ATOM     20  C   UNL     1      45.601  39.388  75.885  0.00  0.00    +0.000 A 
ATOM     21  C   UNL     1      45.011  40.011  76.975  0.00  0.00    +0.000 A 
ATOM     22  F   UNL     1      45.184  41.329  77.159  0.00  0.00    +0.000 F 
ATOM     23  C   UNL     1      44.241  39.286  77.880  0.00  0.00    +0.000 A 
BRANCH  20  24
ATOM     24  O   UNL     1      46.357  40.101  74.997  0.00  0.00    +0.000 OA
ATOM     25  H   UNL     1      46.183  41.050  75.146  0.00  0.00    +0.000 HD
ENDBRANCH  20  24
ENDBRANCH  14  16
BRANCH   2  26
ATOM     26  C   UNL     1      46.488  38.647  82.031  0.00  0.00    +0.000 C 
ATOM     27  C   UNL     1      47.482  39.543  81.283  0.00  0.00    +0.000 C 
BRANCH  27  28
ATOM     28  C   UNL     1      48.400  40.370  80.598  0.00  0.00    +0.000 C 
ATOM     29  C   UNL     1      49.791  40.539  81.129  0.00  0.00    +0.000 C 
ATOM     30  C   UNL     1      47.965  41.115  79.375  0.00  0.00    +0.000 C 
ENDBRANCH  27  28
ENDBRANCH   2  26
TORSDOF 4
ENDMDL
