MODEL 1
REMARK VINA RESULT:      -4.5      0.000      0.000
REMARK  Name = 26879_Levamisole.pdbqt.pdb
REMARK  1 active torsions:
REMARK  status: ('A' for Active; 'I' for Inactive)
REMARK    1  A    between atoms: C_5  and  C_9
REMARK                            x       y       z     vdW  Elec       q    Type
REMARK                         _______ _______ _______ _____ _____    ______ ____
ROOT
ATOM      1  S   UNL     1       7.507  16.211  98.575  0.00  0.00    +0.000 S 
ATOM      2  N   UNL     1       6.277  16.305  96.044  0.00  0.00    +0.000 NA
ATOM      3  N   UNL     1       6.260  14.204  97.280  0.00  0.00    +0.000 NA
ATOM      4  C   UNL     1       5.159  15.451  95.787  0.00  0.00    +0.000 C 
ATOM      5  C   UNL     1       5.216  14.195  96.412  0.00  0.00    +0.000 C 
ATOM      6  C   UNL     1       6.015  17.488  96.824  0.00  0.00    +0.000 C 
ATOM      7  C   UNL     1       6.852  15.425  97.118  0.00  0.00    +0.000 C 
ATOM      8  C   UNL     1       6.663  17.612  98.168  0.00  0.00    +0.000 C 
ENDROOT
BRANCH   5   9
ATOM      9  C   UNL     1       4.307  13.070  96.252  0.00  0.00    +0.000 A 
ATOM     10  C   UNL     1       4.730  11.753  96.460  0.00  0.00    +0.000 A 
ATOM     11  C   UNL     1       2.979  13.291  95.878  0.00  0.00    +0.000 A 
ATOM     12  C   UNL     1       3.850  10.685  96.300  0.00  0.00    +0.000 A 
ATOM     13  C   UNL     1       2.094  12.226  95.717  0.00  0.00    +0.000 A 
ATOM     14  C   UNL     1       2.531  10.923  95.928  0.00  0.00    +0.000 A 
ENDBRANCH   5   9
TORSDOF 1
ENDMDL
MODEL 2
REMARK VINA RESULT:      -4.3      3.601      6.092
REMARK  Name = 26879_Levamisole.pdbqt.pdb
REMARK  1 active torsions:
REMARK  status: ('A' for Active; 'I' for Inactive)
REMARK    1  A    between atoms: C_5  and  C_9
REMARK                            x       y       z     vdW  Elec       q    Type
REMARK                         _______ _______ _______ _____ _____    ______ ____
ROOT
ATOM      1  S   UNL     1       1.118  10.384  99.741  0.00  0.00    +0.000 S 
ATOM      2  N   UNL     1       2.524   9.407  97.506  0.00  0.00    +0.000 NA
ATOM      3  N   UNL     1       2.282  11.818  97.778  0.00  0.00    +0.000 NA
ATOM      4  C   UNL     1       3.583  10.197  96.957  0.00  0.00    +0.000 C 
ATOM      5  C   UNL     1       3.379  11.585  97.014  0.00  0.00    +0.000 C 
ATOM      6  C   UNL     1       2.828   8.673  98.707  0.00  0.00    +0.000 C 
ATOM      7  C   UNL     1       1.806  10.581  98.111  0.00  0.00    +0.000 C 
ATOM      8  C   UNL     1       2.101   9.033  99.965  0.00  0.00    +0.000 C 
ENDROOT
BRANCH   5   9
ATOM      9  C   UNL     1       4.201  12.638  96.437  0.00  0.00    +0.000 A 
ATOM     10  C   UNL     1       3.633  13.803  95.911  0.00  0.00    +0.000 A 
ATOM     11  C   UNL     1       5.591  12.497  96.395  0.00  0.00    +0.000 A 
ATOM     12  C   UNL     1       4.432  14.802  95.358  0.00  0.00    +0.000 A 
ATOM     13  C   UNL     1       6.395  13.493  95.843  0.00  0.00    +0.000 A 
ATOM     14  C   UNL     1       5.814  14.646  95.325  0.00  0.00    +0.000 A 
ENDBRANCH   5   9
TORSDOF 1
ENDMDL
MODEL 3
REMARK VINA RESULT:      -4.0     20.462     20.901
REMARK  Name = 26879_Levamisole.pdbqt.pdb
REMARK  1 active torsions:
REMARK  status: ('A' for Active; 'I' for Inactive)
REMARK    1  A    between atoms: C_5  and  C_9
REMARK                            x       y       z     vdW  Elec       q    Type
REMARK                         _______ _______ _______ _____ _____    ______ ____
ROOT
ATOM      1  S   UNL     1      22.371  11.808  84.272  0.00  0.00    +0.000 S 
ATOM      2  N   UNL     1      21.946  10.488  86.722  0.00  0.00    +0.000 NA
ATOM      3  N   UNL     1      21.178   9.425  84.667  0.00  0.00    +0.000 NA
ATOM      4  C   UNL     1      21.925   9.058  86.741  0.00  0.00    +0.000 C 
ATOM      5  C   UNL     1      21.372   8.457  85.598  0.00  0.00    +0.000 C 
ATOM      6  C   UNL     1      23.243  11.110  86.654  0.00  0.00    +0.000 C 
ATOM      7  C   UNL     1      21.548  10.591  85.276  0.00  0.00    +0.000 C 
ATOM      8  C   UNL     1      23.586  11.911  85.436  0.00  0.00    +0.000 C 
ENDROOT
BRANCH   5   9
ATOM      9  C   UNL     1      21.098   7.047  85.369  0.00  0.00    +0.000 A 
ATOM     10  C   UNL     1      21.433   6.074  86.316  0.00  0.00    +0.000 A 
ATOM     11  C   UNL     1      20.490   6.636  84.179  0.00  0.00    +0.000 A 
ATOM     12  C   UNL     1      21.167   4.726  86.083  0.00  0.00    +0.000 A 
ATOM     13  C   UNL     1      20.223   5.289  83.940  0.00  0.00    +0.000 A 
ATOM     14  C   UNL     1      20.561   4.335  84.893  0.00  0.00    +0.000 A 
ENDBRANCH   5   9
TORSDOF 1
ENDMDL
MODEL 4
REMARK VINA RESULT:      -4.0     42.473     44.481
REMARK  Name = 26879_Levamisole.pdbqt.pdb
REMARK  1 active torsions:
REMARK  status: ('A' for Active; 'I' for Inactive)
REMARK    1  A    between atoms: C_5  and  C_9
REMARK                            x       y       z     vdW  Elec       q    Type
REMARK                         _______ _______ _______ _____ _____    ______ ____
ROOT
ATOM      1  S   UNL     1      48.292  23.125  84.506  0.00  0.00    +0.000 S 
ATOM      2  N   UNL     1      48.481  25.699  85.630  0.00  0.00    +0.000 NA
ATOM      3  N   UNL     1      46.659  25.226  84.081  0.00  0.00    +0.000 NA
ATOM      4  C   UNL     1      47.282  26.448  85.845  0.00  0.00    +0.000 C 
ATOM      5  C   UNL     1      46.280  26.256  84.879  0.00  0.00    +0.000 C 
ATOM      6  C   UNL     1      48.770  24.661  86.587  0.00  0.00    +0.000 C 
ATOM      7  C   UNL     1      47.898  24.860  84.527  0.00  0.00    +0.000 C 
ATOM      8  C   UNL     1      48.777  23.240  86.116  0.00  0.00    +0.000 C 
ENDROOT
BRANCH   5   9
ATOM      9  C   UNL     1      45.012  26.956  84.750  0.00  0.00    +0.000 A 
ATOM     10  C   UNL     1      43.891  26.583  85.498  0.00  0.00    +0.000 A 
ATOM     11  C   UNL     1      44.891  28.027  83.859  0.00  0.00    +0.000 A 
ATOM     12  C   UNL     1      42.681  27.260  85.361  0.00  0.00    +0.000 A 
ATOM     13  C   UNL     1      43.683  28.708  83.718  0.00  0.00    +0.000 A 
ATOM     14  C   UNL     1      42.578  28.324  84.471  0.00  0.00    +0.000 A 
ENDBRANCH   5   9
TORSDOF 1
ENDMDL
MODEL 5
REMARK VINA RESULT:      -4.0     21.919     22.815
REMARK  Name = 26879_Levamisole.pdbqt.pdb
REMARK  1 active torsions:
REMARK  status: ('A' for Active; 'I' for Inactive)
REMARK    1  A    between atoms: C_5  and  C_9
REMARK                            x       y       z     vdW  Elec       q    Type
REMARK                         _______ _______ _______ _____ _____    ______ ____
ROOT
ATOM      1  S   UNL     1      26.453   4.410  86.851  0.00  0.00    +0.000 S 
ATOM      2  N   UNL     1      23.828   3.666  87.546  0.00  0.00    +0.000 NA
ATOM      3  N   UNL     1      24.239   5.946  86.787  0.00  0.00    +0.000 NA
ATOM      4  C   UNL     1      22.732   4.298  86.880  0.00  0.00    +0.000 C 
ATOM      5  C   UNL     1      22.937   5.648  86.550  0.00  0.00    +0.000 C 
ATOM      6  C   UNL     1      24.514   2.632  86.813  0.00  0.00    +0.000 C 
ATOM      7  C   UNL     1      24.780   4.805  87.312  0.00  0.00    +0.000 C 
ATOM      8  C   UNL     1      25.946   2.858  86.436  0.00  0.00    +0.000 C 
ENDROOT
BRANCH   5   9
ATOM      9  C   UNL     1      21.980   6.590  85.988  0.00  0.00    +0.000 A 
ATOM     10  C   UNL     1      21.883   7.902  86.461  0.00  0.00    +0.000 A 
ATOM     11  C   UNL     1      21.129   6.190  84.955  0.00  0.00    +0.000 A 
ATOM     12  C   UNL     1      20.961   8.794  85.916  0.00  0.00    +0.000 A 
ATOM     13  C   UNL     1      20.205   7.077  84.406  0.00  0.00    +0.000 A 
ATOM     14  C   UNL     1      20.121   8.379  84.887  0.00  0.00    +0.000 A 
ENDBRANCH   5   9
TORSDOF 1
ENDMDL
MODEL 6
REMARK VINA RESULT:      -4.0      9.859     10.992
REMARK  Name = 26879_Levamisole.pdbqt.pdb
REMARK  1 active torsions:
REMARK  status: ('A' for Active; 'I' for Inactive)
REMARK    1  A    between atoms: C_5  and  C_9
REMARK                            x       y       z     vdW  Elec       q    Type
REMARK                         _______ _______ _______ _____ _____    ______ ____
ROOT
ATOM      1  S   UNL     1      10.315   8.385 102.397  0.00  0.00    +0.000 S 
ATOM      2  N   UNL     1      12.552   9.545 101.141  0.00  0.00    +0.000 NA
ATOM      3  N   UNL     1      12.119   7.169 100.807  0.00  0.00    +0.000 NA
ATOM      4  C   UNL     1      12.997   9.009  99.892  0.00  0.00    +0.000 C 
ATOM      5  C   UNL     1      12.850   7.619  99.756  0.00  0.00    +0.000 C 
ATOM      6  C   UNL     1      11.394  10.401 101.096  0.00  0.00    +0.000 C 
ATOM      7  C   UNL     1      11.896   8.269 101.588  0.00  0.00    +0.000 C 
ATOM      8  C   UNL     1      10.145   9.947 101.786  0.00  0.00    +0.000 C 
ENDROOT
BRANCH   5   9
ATOM      9  C   UNL     1      13.315   6.769  98.671  0.00  0.00    +0.000 A 
ATOM     10  C   UNL     1      13.244   5.374  98.753  0.00  0.00    +0.000 A 
ATOM     11  C   UNL     1      13.851   7.341  97.514  0.00  0.00    +0.000 A 
ATOM     12  C   UNL     1      13.696   4.571  97.707  0.00  0.00    +0.000 A 
ATOM     13  C   UNL     1      14.305   6.543  96.465  0.00  0.00    +0.000 A 
ATOM     14  C   UNL     1      14.226   5.158  96.562  0.00  0.00    +0.000 A 
ENDBRANCH   5   9
TORSDOF 1
ENDMDL
MODEL 7
REMARK VINA RESULT:      -4.0     29.262     30.154
REMARK  Name = 26879_Levamisole.pdbqt.pdb
REMARK  1 active torsions:
REMARK  status: ('A' for Active; 'I' for Inactive)
REMARK    1  A    between atoms: C_5  and  C_9
REMARK                            x       y       z     vdW  Elec       q    Type
REMARK                         _______ _______ _______ _____ _____    ______ ____
ROOT
ATOM      1  S   UNL     1      31.656  22.887  92.247  0.00  0.00    +0.000 S 
ATOM      2  N   UNL     1      33.511  24.928  91.678  0.00  0.00    +0.000 NA
ATOM      3  N   UNL     1      31.376  24.920  90.501  0.00  0.00    +0.000 NA
ATOM      4  C   UNL     1      33.023  26.212  91.282  0.00  0.00    +0.000 C 
ATOM      5  C   UNL     1      31.854  26.190  90.504  0.00  0.00    +0.000 C 
ATOM      6  C   UNL     1      33.447  24.623  93.084  0.00  0.00    +0.000 C 
ATOM      7  C   UNL     1      32.287  24.190  91.212  0.00  0.00    +0.000 C 
ATOM      8  C   UNL     1      32.554  23.507  93.532  0.00  0.00    +0.000 C 
ENDROOT
BRANCH   5   9
ATOM      9  C   UNL     1      31.189  27.307  89.850  0.00  0.00    +0.000 A 
ATOM     10  C   UNL     1      31.498  28.632  90.173  0.00  0.00    +0.000 A 
ATOM     11  C   UNL     1      30.213  27.069  88.879  0.00  0.00    +0.000 A 
ATOM     12  C   UNL     1      30.851  29.693  89.542  0.00  0.00    +0.000 A 
ATOM     13  C   UNL     1      29.563  28.126  88.244  0.00  0.00    +0.000 A 
ATOM     14  C   UNL     1      29.883  29.438  88.576  0.00  0.00    +0.000 A 
ENDBRANCH   5   9
TORSDOF 1
ENDMDL
MODEL 8
REMARK VINA RESULT:      -3.9     15.820     17.189
REMARK  Name = 26879_Levamisole.pdbqt.pdb
REMARK  1 active torsions:
REMARK  status: ('A' for Active; 'I' for Inactive)
REMARK    1  A    between atoms: C_5  and  C_9
REMARK                            x       y       z     vdW  Elec       q    Type
REMARK                         _______ _______ _______ _____ _____    ______ ____
ROOT
ATOM      1  S   UNL     1      19.356  16.903  85.701  0.00  0.00    +0.000 S 
ATOM      2  N   UNL     1      17.820  16.082  87.913  0.00  0.00    +0.000 NA
ATOM      3  N   UNL     1      20.187  16.567  88.243  0.00  0.00    +0.000 NA
ATOM      4  C   UNL     1      18.174  16.558  89.214  0.00  0.00    +0.000 C 
ATOM      5  C   UNL     1      19.552  16.724  89.432  0.00  0.00    +0.000 C 
ATOM      6  C   UNL     1      17.108  17.002  87.064  0.00  0.00    +0.000 C 
ATOM      7  C   UNL     1      19.204  16.247  87.349  0.00  0.00    +0.000 C 
ATOM      8  C   UNL     1      17.774  17.472  85.808  0.00  0.00    +0.000 C 
ENDROOT
BRANCH   5   9
ATOM      9  C   UNL     1      20.230  17.069  90.672  0.00  0.00    +0.000 A 
ATOM     10  C   UNL     1      21.574  16.747  90.884  0.00  0.00    +0.000 A 
ATOM     11  C   UNL     1      19.536  17.734  91.687  0.00  0.00    +0.000 A 
ATOM     12  C   UNL     1      22.210  17.082  92.078  0.00  0.00    +0.000 A 
ATOM     13  C   UNL     1      20.168  18.071  92.883  0.00  0.00    +0.000 A 
ATOM     14  C   UNL     1      21.505  17.745  93.078  0.00  0.00    +0.000 A 
ENDBRANCH   5   9
TORSDOF 1
ENDMDL
MODEL 9
REMARK VINA RESULT:      -3.8     62.792     64.885
REMARK  Name = 26879_Levamisole.pdbqt.pdb
REMARK  1 active torsions:
REMARK  status: ('A' for Active; 'I' for Inactive)
REMARK    1  A    between atoms: C_5  and  C_9
REMARK                            x       y       z     vdW  Elec       q    Type
REMARK                         _______ _______ _______ _____ _____    ______ ____
ROOT
ATOM      1  S   UNL     1      62.775  31.070  72.765  0.00  0.00    +0.000 S 
ATOM      2  N   UNL     1      61.192  32.106  74.850  0.00  0.00    +0.000 NA
ATOM      3  N   UNL     1      63.246  33.272  74.244  0.00  0.00    +0.000 NA
ATOM      4  C   UNL     1      61.186  33.519  75.075  0.00  0.00    +0.000 C 
ATOM      5  C   UNL     1      62.410  34.164  74.834  0.00  0.00    +0.000 C 
ATOM      6  C   UNL     1      60.399  31.629  73.746  0.00  0.00    +0.000 C 
ATOM      7  C   UNL     1      62.547  32.098  74.199  0.00  0.00    +0.000 C 
ATOM      8  C   UNL     1      61.100  30.984  72.592  0.00  0.00    +0.000 C 
ENDROOT
BRANCH   5   9
ATOM      9  C   UNL     1      62.757  35.555  75.085  0.00  0.00    +0.000 A 
ATOM     10  C   UNL     1      62.400  36.570  74.192  0.00  0.00    +0.000 A 
ATOM     11  C   UNL     1      63.466  35.902  76.238  0.00  0.00    +0.000 A 
ATOM     12  C   UNL     1      62.741  37.897  74.444  0.00  0.00    +0.000 A 
ATOM     13  C   UNL     1      63.810  37.227  76.495  0.00  0.00    +0.000 A 
ATOM     14  C   UNL     1      63.447  38.225  75.597  0.00  0.00    +0.000 A 
ENDBRANCH   5   9
TORSDOF 1
ENDMDL
