MODEL 1
REMARK VINA RESULT:      -4.5      0.000      0.000
REMARK  Name = 27924_Phorbol.pdbqt.pdb
REMARK  26 active torsions:
REMARK  status: ('A' for Active; 'I' for Inactive)
REMARK    1  A    between atoms: O_1  and  C_10
REMARK    2  A    between atoms: O_1  and  C_26
REMARK    3  A    between atoms: O_2  and  C_13
REMARK    4  A    between atoms: O_2  and  C_28
REMARK    5  A    between atoms: O_3  and  C_14
REMARK    6  A    between atoms: O_4  and  C_20
REMARK    7  A    between atoms: O_7  and  C_29
REMARK    8  A    between atoms: C_11  and  C_16
REMARK    9  A    between atoms: C_11  and  C_17
REMARK   10  A    between atoms: C_15  and  C_21
REMARK   11  A    between atoms: C_22  and  C_29
REMARK   12  A    between atoms: C_26  and  C_30
REMARK   13  A    between atoms: C_27  and  C_31
REMARK   14  A    between atoms: C_28  and  C_32
REMARK   15  A    between atoms: C_32  and  C_33
REMARK   16  A    between atoms: C_33  and  C_34
REMARK   17  A    between atoms: C_34  and  C_35
REMARK   18  A    between atoms: C_35  and  C_36
REMARK   19  A    between atoms: C_36  and  C_37
REMARK   20  A    between atoms: C_37  and  C_38
REMARK   21  A    between atoms: C_38  and  C_39
REMARK   22  A    between atoms: C_39  and  C_40
REMARK   23  A    between atoms: C_40  and  C_41
REMARK   24  A    between atoms: C_41  and  C_42
REMARK   25  A    between atoms: C_42  and  C_43
REMARK   26  A    between atoms: C_43  and  C_44
REMARK                            x       y       z     vdW  Elec       q    Type
REMARK                         _______ _______ _______ _____ _____    ______ ____
ROOT
ATOM      1  O   UNL     1      16.168  23.848  90.973  0.00  0.00    +0.000 OA
ATOM      2  C   UNL     1      19.102  18.333  87.605  0.00  0.00    +0.000 C 
ATOM      3  C   UNL     1      20.068  17.425  88.343  0.00  0.00    +0.000 C 
ATOM      4  C   UNL     1      20.576  18.419  87.259  0.00  0.00    +0.000 C 
ATOM      5  C   UNL     1      18.213  19.280  88.354  0.00  0.00    +0.000 C 
ATOM      6  C   UNL     1      20.223  17.648  89.858  0.00  0.00    +0.000 C 
ATOM      7  C   UNL     1      18.569  19.605  89.877  0.00  0.00    +0.000 C 
ATOM      8  C   UNL     1      18.896  18.190  90.499  0.00  0.00    +0.000 C 
ATOM      9  C   UNL     1      20.921  17.909  85.870  0.00  0.00    +0.000 C 
ATOM     10  C   UNL     1      21.387  19.642  87.611  0.00  0.00    +0.000 C 
ATOM     11  C   UNL     1      17.369  20.473  90.514  0.00  0.00    +0.000 C 
ATOM     12  C   UNL     1      17.828  20.510  87.553  0.00  0.00    +0.000 C 
ATOM     13  C   UNL     1      17.178  21.922  89.882  0.00  0.00    +0.000 C 
ATOM     14  C   UNL     1      18.983  18.134  92.024  0.00  0.00    +0.000 C 
ATOM     15  C   UNL     1      16.542  20.909  87.652  0.00  0.00    +0.000 C 
ATOM     16  C   UNL     1      16.255  22.019  88.647  0.00  0.00    +0.000 C 
ATOM     17  C   UNL     1      17.402  20.834  91.994  0.00  0.00    +0.000 C 
ATOM     18  C   UNL     1      16.649  22.726  91.050  0.00  0.00    +0.000 C 
ATOM     19  C   UNL     1      16.939  22.048  92.318  0.00  0.00    +0.000 C 
ATOM     20  C   UNL     1      16.745  22.686  93.637  0.00  0.00    +0.000 C 
ENDROOT
BRANCH   7  21
ATOM     21  O   UNL     1      19.769  20.379  89.997  0.00  0.00    +0.000 OA
ATOM     22  H   UNL     1      20.215  20.118  90.834  0.00  0.00    +0.000 HD
ENDBRANCH   7  21
BRANCH  13  23
ATOM     23  O   UNL     1      18.452  22.548  89.594  0.00  0.00    +0.000 OA
ATOM     24  H   UNL     1      18.566  22.496  88.622  0.00  0.00    +0.000 HD
ENDBRANCH  13  23
BRANCH   3  25
ATOM     25  O   UNL     1      19.825  16.045  87.964  0.00  0.00    +0.000 OA
BRANCH  25  27
ATOM     26  O   UNL     1      17.833  15.312  88.697  0.00  0.00    +0.000 OA
ATOM     27  C   UNL     1      18.600  15.501  87.754  0.00  0.00    +0.000 C 
ATOM     28  C   UNL     1      18.169  15.213  86.347  0.00  0.00    +0.000 C 
ENDBRANCH  25  27
ENDBRANCH   3  25
BRANCH  15  29
ATOM     29  C   UNL     1      15.370  20.019  87.332  0.00  0.00    +0.000 C 
BRANCH  29  30
ATOM     30  O   UNL     1      14.293  20.382  88.179  0.00  0.00    +0.000 OA
ATOM     31  H   UNL     1      14.420  19.900  89.016  0.00  0.00    +0.000 HD
ENDBRANCH  29  30
ENDBRANCH  15  29
BRANCH   6  32
ATOM     32  O   UNL     1      20.581  16.376  90.463  0.00  0.00    +0.000 OA
BRANCH  32  34
ATOM     33  O   UNL     1      21.990  14.973  91.488  0.00  0.00    +0.000 OA
ATOM     34  C   UNL     1      21.730  16.119  91.130  0.00  0.00    +0.000 C 
BRANCH  34  35
ATOM     35  C   UNL     1      22.683  17.250  91.427  0.00  0.00    +0.000 C 
BRANCH  35  36
ATOM     36  C   UNL     1      22.446  17.836  92.814  0.00  0.00    +0.000 C 
BRANCH  36  37
ATOM     37  C   UNL     1      23.040  19.235  93.014  0.00  0.00    +0.000 C 
BRANCH  37  38
ATOM     38  C   UNL     1      22.756  20.214  91.867  0.00  0.00    +0.000 C 
BRANCH  38  39
ATOM     39  C   UNL     1      22.316  21.594  92.369  0.00  0.00    +0.000 C 
BRANCH  39  40
ATOM     40  C   UNL     1      20.945  21.588  93.049  0.00  0.00    +0.000 C 
BRANCH  40  41
ATOM     41  C   UNL     1      21.022  21.840  94.557  0.00  0.00    +0.000 C 
BRANCH  41  42
ATOM     42  C   UNL     1      20.587  20.634  95.396  0.00  0.00    +0.000 C 
BRANCH  42  43
ATOM     43  C   UNL     1      19.097  20.285  95.338  0.00  0.00    +0.000 C 
BRANCH  43  44
ATOM     44  C   UNL     1      18.245  20.834  96.486  0.00  0.00    +0.000 C 
BRANCH  44  45
ATOM     45  C   UNL     1      17.952  19.849  97.622  0.00  0.00    +0.000 C 
BRANCH  45  46
ATOM     46  C   UNL     1      19.060  19.685  98.664  0.00  0.00    +0.000 C 
ATOM     47  C   UNL     1      18.570  19.820 100.097  0.00  0.00    +0.000 C 
ENDBRANCH  45  46
ENDBRANCH  44  45
ENDBRANCH  43  44
ENDBRANCH  42  43
ENDBRANCH  41  42
ENDBRANCH  40  41
ENDBRANCH  39  40
ENDBRANCH  38  39
ENDBRANCH  37  38
ENDBRANCH  36  37
ENDBRANCH  35  36
ENDBRANCH  34  35
ENDBRANCH  32  34
ENDBRANCH   6  32
TORSDOF 20
ENDMDL
MODEL 2
REMARK VINA RESULT:      -4.2     21.313     24.699
REMARK  Name = 27924_Phorbol.pdbqt.pdb
REMARK  26 active torsions:
REMARK  status: ('A' for Active; 'I' for Inactive)
REMARK    1  A    between atoms: O_1  and  C_10
REMARK    2  A    between atoms: O_1  and  C_26
REMARK    3  A    between atoms: O_2  and  C_13
REMARK    4  A    between atoms: O_2  and  C_28
REMARK    5  A    between atoms: O_3  and  C_14
REMARK    6  A    between atoms: O_4  and  C_20
REMARK    7  A    between atoms: O_7  and  C_29
REMARK    8  A    between atoms: C_11  and  C_16
REMARK    9  A    between atoms: C_11  and  C_17
REMARK   10  A    between atoms: C_15  and  C_21
REMARK   11  A    between atoms: C_22  and  C_29
REMARK   12  A    between atoms: C_26  and  C_30
REMARK   13  A    between atoms: C_27  and  C_31
REMARK   14  A    between atoms: C_28  and  C_32
REMARK   15  A    between atoms: C_32  and  C_33
REMARK   16  A    between atoms: C_33  and  C_34
REMARK   17  A    between atoms: C_34  and  C_35
REMARK   18  A    between atoms: C_35  and  C_36
REMARK   19  A    between atoms: C_36  and  C_37
REMARK   20  A    between atoms: C_37  and  C_38
REMARK   21  A    between atoms: C_38  and  C_39
REMARK   22  A    between atoms: C_39  and  C_40
REMARK   23  A    between atoms: C_40  and  C_41
REMARK   24  A    between atoms: C_41  and  C_42
REMARK   25  A    between atoms: C_42  and  C_43
REMARK   26  A    between atoms: C_43  and  C_44
REMARK                            x       y       z     vdW  Elec       q    Type
REMARK                         _______ _______ _______ _____ _____    ______ ____
ROOT
ATOM      1  O   UNL     1      48.097  26.072  84.912  0.00  0.00    +0.000 OA
ATOM      2  C   UNL     1      41.380  24.566  83.189  0.00  0.00    +0.000 C 
ATOM      3  C   UNL     1      40.927  23.120  83.108  0.00  0.00    +0.000 C 
ATOM      4  C   UNL     1      41.118  23.971  81.820  0.00  0.00    +0.000 C 
ATOM      5  C   UNL     1      42.664  24.932  83.871  0.00  0.00    +0.000 C 
ATOM      6  C   UNL     1      41.921  22.046  83.587  0.00  0.00    +0.000 C 
ATOM      7  C   UNL     1      43.726  23.773  84.152  0.00  0.00    +0.000 C 
ATOM      8  C   UNL     1      42.851  22.590  84.727  0.00  0.00    +0.000 C 
ATOM      9  C   UNL     1      39.904  24.549  81.111  0.00  0.00    +0.000 C 
ATOM     10  C   UNL     1      42.248  23.718  80.852  0.00  0.00    +0.000 C 
ATOM     11  C   UNL     1      44.915  24.371  85.062  0.00  0.00    +0.000 C 
ATOM     12  C   UNL     1      43.293  26.204  83.333  0.00  0.00    +0.000 C 
ATOM     13  C   UNL     1      45.799  25.495  84.361  0.00  0.00    +0.000 C 
ATOM     14  C   UNL     1      43.624  21.440  85.374  0.00  0.00    +0.000 C 
ATOM     15  C   UNL     1      43.807  27.050  84.251  0.00  0.00    +0.000 C 
ATOM     16  C   UNL     1      45.301  26.950  84.499  0.00  0.00    +0.000 C 
ATOM     17  C   UNL     1      46.016  23.448  85.569  0.00  0.00    +0.000 C 
ATOM     18  C   UNL     1      47.156  25.297  85.001  0.00  0.00    +0.000 C 
ATOM     19  C   UNL     1      47.250  23.966  85.611  0.00  0.00    +0.000 C 
ATOM     20  C   UNL     1      48.517  23.398  86.118  0.00  0.00    +0.000 C 
ENDROOT
BRANCH   7  21
ATOM     21  O   UNL     1      44.319  23.279  82.944  0.00  0.00    +0.000 OA
ATOM     22  H   UNL     1      44.712  24.043  82.467  0.00  0.00    +0.000 HD
ENDBRANCH   7  21
BRANCH  13  23
ATOM     23  O   UNL     1      46.039  25.187  82.966  0.00  0.00    +0.000 OA
ATOM     24  H   UNL     1      46.631  24.406  82.958  0.00  0.00    +0.000 HD
ENDBRANCH  13  23
BRANCH   3  25
ATOM     25  O   UNL     1      39.594  22.994  83.669  0.00  0.00    +0.000 OA
BRANCH  25  27
ATOM     26  O   UNL     1      39.732  23.428  85.868  0.00  0.00    +0.000 OA
ATOM     27  C   UNL     1      39.164  23.618  84.795  0.00  0.00    +0.000 C 
ATOM     28  C   UNL     1      38.038  24.603  84.689  0.00  0.00    +0.000 C 
ENDBRANCH  25  27
ENDBRANCH   3  25
BRANCH  15  29
ATOM     29  C   UNL     1      43.007  27.624  85.391  0.00  0.00    +0.000 C 
BRANCH  29  30
ATOM     30  O   UNL     1      42.225  28.695  84.890  0.00  0.00    +0.000 OA
ATOM     31  H   UNL     1      42.598  29.513  85.265  0.00  0.00    +0.000 HD
ENDBRANCH  29  30
ENDBRANCH  15  29
BRANCH   6  32
ATOM     32  O   UNL     1      41.152  20.911  84.073  0.00  0.00    +0.000 OA
BRANCH  32  34
ATOM     33  O   UNL     1      40.662  18.730  84.046  0.00  0.00    +0.000 OA
ATOM     34  C   UNL     1      40.989  19.736  83.423  0.00  0.00    +0.000 C 
BRANCH  34  35
ATOM     35  C   UNL     1      41.213  19.677  81.932  0.00  0.00    +0.000 C 
BRANCH  35  36
ATOM     36  C   UNL     1      40.260  18.699  81.257  0.00  0.00    +0.000 C 
BRANCH  36  37
ATOM     37  C   UNL     1      39.001  19.350  80.673  0.00  0.00    +0.000 C 
BRANCH  37  38
ATOM     38  C   UNL     1      39.043  20.883  80.630  0.00  0.00    +0.000 C 
BRANCH  38  39
ATOM     39  C   UNL     1      38.150  21.463  79.527  0.00  0.00    +0.000 C 
BRANCH  39  40
ATOM     40  C   UNL     1      37.006  22.330  80.060  0.00  0.00    +0.000 C 
BRANCH  40  41
ATOM     41  C   UNL     1      36.163  21.624  81.124  0.00  0.00    +0.000 C 
BRANCH  41  42
ATOM     42  C   UNL     1      35.957  22.463  82.388  0.00  0.00    +0.000 C 
BRANCH  42  43
ATOM     43  C   UNL     1      36.128  21.720  83.717  0.00  0.00    +0.000 C 
BRANCH  43  44
ATOM     44  C   UNL     1      37.066  20.509  83.681  0.00  0.00    +0.000 C 
BRANCH  44  45
ATOM     45  C   UNL     1      36.401  19.149  83.909  0.00  0.00    +0.000 C 
BRANCH  45  46
ATOM     46  C   UNL     1      34.902  19.184  84.214  0.00  0.00    +0.000 C 
ATOM     47  C   UNL     1      34.509  18.345  85.419  0.00  0.00    +0.000 C 
ENDBRANCH  45  46
ENDBRANCH  44  45
ENDBRANCH  43  44
ENDBRANCH  42  43
ENDBRANCH  41  42
ENDBRANCH  40  41
ENDBRANCH  39  40
ENDBRANCH  38  39
ENDBRANCH  37  38
ENDBRANCH  36  37
ENDBRANCH  35  36
ENDBRANCH  34  35
ENDBRANCH  32  34
ENDBRANCH   6  32
TORSDOF 20
ENDMDL
MODEL 3
REMARK VINA RESULT:      -4.1      9.166     14.937
REMARK  Name = 27924_Phorbol.pdbqt.pdb
REMARK  26 active torsions:
REMARK  status: ('A' for Active; 'I' for Inactive)
REMARK    1  A    between atoms: O_1  and  C_10
REMARK    2  A    between atoms: O_1  and  C_26
REMARK    3  A    between atoms: O_2  and  C_13
REMARK    4  A    between atoms: O_2  and  C_28
REMARK    5  A    between atoms: O_3  and  C_14
REMARK    6  A    between atoms: O_4  and  C_20
REMARK    7  A    between atoms: O_7  and  C_29
REMARK    8  A    between atoms: C_11  and  C_16
REMARK    9  A    between atoms: C_11  and  C_17
REMARK   10  A    between atoms: C_15  and  C_21
REMARK   11  A    between atoms: C_22  and  C_29
REMARK   12  A    between atoms: C_26  and  C_30
REMARK   13  A    between atoms: C_27  and  C_31
REMARK   14  A    between atoms: C_28  and  C_32
REMARK   15  A    between atoms: C_32  and  C_33
REMARK   16  A    between atoms: C_33  and  C_34
REMARK   17  A    between atoms: C_34  and  C_35
REMARK   18  A    between atoms: C_35  and  C_36
REMARK   19  A    between atoms: C_36  and  C_37
REMARK   20  A    between atoms: C_37  and  C_38
REMARK   21  A    between atoms: C_38  and  C_39
REMARK   22  A    between atoms: C_39  and  C_40
REMARK   23  A    between atoms: C_40  and  C_41
REMARK   24  A    between atoms: C_41  and  C_42
REMARK   25  A    between atoms: C_42  and  C_43
REMARK   26  A    between atoms: C_43  and  C_44
REMARK                            x       y       z     vdW  Elec       q    Type
REMARK                         _______ _______ _______ _____ _____    ______ ____
ROOT
ATOM      1  O   UNL     1      22.881   2.892  84.847  0.00  0.00    +0.000 OA
ATOM      2  C   UNL     1      25.974   8.872  87.088  0.00  0.00    +0.000 C 
ATOM      3  C   UNL     1      25.258  10.200  86.925  0.00  0.00    +0.000 C 
ATOM      4  C   UNL     1      26.485   9.840  86.039  0.00  0.00    +0.000 C 
ATOM      5  C   UNL     1      25.232   7.577  86.951  0.00  0.00    +0.000 C 
ATOM      6  C   UNL     1      23.799  10.154  86.436  0.00  0.00    +0.000 C 
ATOM      7  C   UNL     1      23.798   7.599  86.248  0.00  0.00    +0.000 C 
ATOM      8  C   UNL     1      23.076   8.842  86.904  0.00  0.00    +0.000 C 
ATOM      9  C   UNL     1      27.845  10.440  86.354  0.00  0.00    +0.000 C 
ATOM     10  C   UNL     1      26.349   9.534  84.568  0.00  0.00    +0.000 C 
ATOM     11  C   UNL     1      23.124   6.142  86.401  0.00  0.00    +0.000 C 
ATOM     12  C   UNL     1      26.107   6.425  86.490  0.00  0.00    +0.000 C 
ATOM     13  C   UNL     1      23.875   4.970  85.627  0.00  0.00    +0.000 C 
ATOM     14  C   UNL     1      21.571   8.949  86.655  0.00  0.00    +0.000 C 
ATOM     15  C   UNL     1      25.909   5.241  87.109  0.00  0.00    +0.000 C 
ATOM     16  C   UNL     1      25.006   4.250  86.395  0.00  0.00    +0.000 C 
ATOM     17  C   UNL     1      21.701   5.913  85.909  0.00  0.00    +0.000 C 
ATOM     18  C   UNL     1      22.744   4.029  85.272  0.00  0.00    +0.000 C 
ATOM     19  C   UNL     1      21.453   4.723  85.347  0.00  0.00    +0.000 C 
ATOM     20  C   UNL     1      20.192   4.136  84.848  0.00  0.00    +0.000 C 
ENDROOT
BRANCH   7  21
ATOM     21  O   UNL     1      23.888   7.885  84.846  0.00  0.00    +0.000 OA
ATOM     22  H   UNL     1      24.821   7.749  84.570  0.00  0.00    +0.000 HD
ENDBRANCH   7  21
BRANCH  13  23
ATOM     23  O   UNL     1      24.361   5.412  84.337  0.00  0.00    +0.000 OA
ATOM     24  H   UNL     1      24.252   6.386  84.325  0.00  0.00    +0.000 HD
ENDBRANCH  13  23
BRANCH   3  25
ATOM     25  O   UNL     1      25.467  11.015  88.107  0.00  0.00    +0.000 OA
BRANCH  25  27
ATOM     26  O   UNL     1      24.222  10.340  89.850  0.00  0.00    +0.000 OA
ATOM     27  C   UNL     1      25.335  10.579  89.385  0.00  0.00    +0.000 C 
ATOM     28  C   UNL     1      26.572  10.314  90.190  0.00  0.00    +0.000 C 
ENDBRANCH  25  27
ENDBRANCH   3  25
BRANCH  15  29
ATOM     29  C   UNL     1      26.008   5.056  88.600  0.00  0.00    +0.000 C 
BRANCH  29  30
ATOM     30  O   UNL     1      27.259   5.566  89.028  0.00  0.00    +0.000 OA
ATOM     31  H   UNL     1      27.475   6.309  88.437  0.00  0.00    +0.000 HD
ENDBRANCH  29  30
ENDBRANCH  15  29
BRANCH   6  32
ATOM     32  O   UNL     1      23.111  11.317  86.973  0.00  0.00    +0.000 OA
BRANCH  32  34
ATOM     33  O   UNL     1      23.475  13.490  86.586  0.00  0.00    +0.000 OA
ATOM     34  C   UNL     1      22.863  12.464  86.300  0.00  0.00    +0.000 C 
BRANCH  34  35
ATOM     35  C   UNL     1      21.831  12.467  85.199  0.00  0.00    +0.000 C 
BRANCH  35  36
ATOM     36  C   UNL     1      21.461  13.884  84.778  0.00  0.00    +0.000 C 
BRANCH  36  37
ATOM     37  C   UNL     1      20.043  14.308  85.177  0.00  0.00    +0.000 C 
BRANCH  37  38
ATOM     38  C   UNL     1      19.077  14.479  83.997  0.00  0.00    +0.000 C 
BRANCH  38  39
ATOM     39  C   UNL     1      18.353  13.177  83.638  0.00  0.00    +0.000 C 
BRANCH  39  40
ATOM     40  C   UNL     1      18.913  12.490  82.390  0.00  0.00    +0.000 C 
BRANCH  40  41
ATOM     41  C   UNL     1      18.452  11.038  82.246  0.00  0.00    +0.000 C 
BRANCH  41  42
ATOM     42  C   UNL     1      19.033  10.109  83.316  0.00  0.00    +0.000 C 
BRANCH  42  43
ATOM     43  C   UNL     1      20.543   9.864  83.238  0.00  0.00    +0.000 C 
BRANCH  43  44
ATOM     44  C   UNL     1      20.965   8.412  82.996  0.00  0.00    +0.000 C 
BRANCH  44  45
ATOM     45  C   UNL     1      19.869   7.483  82.465  0.00  0.00    +0.000 C 
BRANCH  45  46
ATOM     46  C   UNL     1      20.352   6.172  81.841  0.00  0.00    +0.000 C 
ATOM     47  C   UNL     1      21.864   6.013  81.860  0.00  0.00    +0.000 C 
ENDBRANCH  45  46
ENDBRANCH  44  45
ENDBRANCH  43  44
ENDBRANCH  42  43
ENDBRANCH  41  42
ENDBRANCH  40  41
ENDBRANCH  39  40
ENDBRANCH  38  39
ENDBRANCH  37  38
ENDBRANCH  36  37
ENDBRANCH  35  36
ENDBRANCH  34  35
ENDBRANCH  32  34
ENDBRANCH   6  32
TORSDOF 20
ENDMDL
MODEL 4
REMARK VINA RESULT:      -4.1      1.820      3.180
REMARK  Name = 27924_Phorbol.pdbqt.pdb
REMARK  26 active torsions:
REMARK  status: ('A' for Active; 'I' for Inactive)
REMARK    1  A    between atoms: O_1  and  C_10
REMARK    2  A    between atoms: O_1  and  C_26
REMARK    3  A    between atoms: O_2  and  C_13
REMARK    4  A    between atoms: O_2  and  C_28
REMARK    5  A    between atoms: O_3  and  C_14
REMARK    6  A    between atoms: O_4  and  C_20
REMARK    7  A    between atoms: O_7  and  C_29
REMARK    8  A    between atoms: C_11  and  C_16
REMARK    9  A    between atoms: C_11  and  C_17
REMARK   10  A    between atoms: C_15  and  C_21
REMARK   11  A    between atoms: C_22  and  C_29
REMARK   12  A    between atoms: C_26  and  C_30
REMARK   13  A    between atoms: C_27  and  C_31
REMARK   14  A    between atoms: C_28  and  C_32
REMARK   15  A    between atoms: C_32  and  C_33
REMARK   16  A    between atoms: C_33  and  C_34
REMARK   17  A    between atoms: C_34  and  C_35
REMARK   18  A    between atoms: C_35  and  C_36
REMARK   19  A    between atoms: C_36  and  C_37
REMARK   20  A    between atoms: C_37  and  C_38
REMARK   21  A    between atoms: C_38  and  C_39
REMARK   22  A    between atoms: C_39  and  C_40
REMARK   23  A    between atoms: C_40  and  C_41
REMARK   24  A    between atoms: C_41  and  C_42
REMARK   25  A    between atoms: C_42  and  C_43
REMARK   26  A    between atoms: C_43  and  C_44
REMARK                            x       y       z     vdW  Elec       q    Type
REMARK                         _______ _______ _______ _____ _____    ______ ____
ROOT
ATOM      1  O   UNL     1      15.318  24.031  90.058  0.00  0.00    +0.000 OA
ATOM      2  C   UNL     1      19.038  18.528  87.560  0.00  0.00    +0.000 C 
ATOM      3  C   UNL     1      19.896  17.706  88.504  0.00  0.00    +0.000 C 
ATOM      4  C   UNL     1      20.544  18.675  87.474  0.00  0.00    +0.000 C 
ATOM      5  C   UNL     1      17.990  19.460  88.090  0.00  0.00    +0.000 C 
ATOM      6  C   UNL     1      19.769  18.007  90.009  0.00  0.00    +0.000 C 
ATOM      7  C   UNL     1      18.056  19.873  89.631  0.00  0.00    +0.000 C 
ATOM      8  C   UNL     1      18.328  18.507  90.377  0.00  0.00    +0.000 C 
ATOM      9  C   UNL     1      21.152  18.120  86.197  0.00  0.00    +0.000 C 
ATOM     10  C   UNL     1      21.227  19.953  87.895  0.00  0.00    +0.000 C 
ATOM     11  C   UNL     1      16.726  20.706  90.001  0.00  0.00    +0.000 C 
ATOM     12  C   UNL     1      17.701  20.631  87.168  0.00  0.00    +0.000 C 
ATOM     13  C   UNL     1      16.587  22.113  89.267  0.00  0.00    +0.000 C 
ATOM     14  C   UNL     1      18.145  18.526  91.895  0.00  0.00    +0.000 C 
ATOM     15  C   UNL     1      16.401  20.966  87.019  0.00  0.00    +0.000 C 
ATOM     16  C   UNL     1      15.895  22.105  87.886  0.00  0.00    +0.000 C 
ATOM     17  C   UNL     1      16.480  21.136  91.442  0.00  0.00    +0.000 C 
ATOM     18  C   UNL     1      15.825  22.941  90.279  0.00  0.00    +0.000 C 
ATOM     19  C   UNL     1      15.915  22.338  91.613  0.00  0.00    +0.000 C 
ATOM     20  C   UNL     1      15.462  23.025  92.841  0.00  0.00    +0.000 C 
ENDROOT
BRANCH   7  21
ATOM     21  O   UNL     1      19.181  20.714  89.918  0.00  0.00    +0.000 OA
ATOM     22  H   UNL     1      18.852  21.635  90.019  0.00  0.00    +0.000 HD
ENDBRANCH   7  21
BRANCH  13  23
ATOM     23  O   UNL     1      17.864  22.790  89.173  0.00  0.00    +0.000 OA
ATOM     24  H   UNL     1      18.420  22.422  89.891  0.00  0.00    +0.000 HD
ENDBRANCH  13  23
BRANCH   3  25
ATOM     25  O   UNL     1      19.784  16.300  88.164  0.00  0.00    +0.000 OA
BRANCH  25  27
ATOM     26  O   UNL     1      17.661  15.635  88.472  0.00  0.00    +0.000 OA
ATOM     27  C   UNL     1      18.648  15.691  87.740  0.00  0.00    +0.000 C 
ATOM     28  C   UNL     1      18.592  15.163  86.338  0.00  0.00    +0.000 C 
ENDBRANCH  25  27
ENDBRANCH   3  25
BRANCH  15  29
ATOM     29  C   UNL     1      15.344  20.003  86.548  0.00  0.00    +0.000 C 
BRANCH  29  30
ATOM     30  O   UNL     1      15.815  19.368  85.371  0.00  0.00    +0.000 OA
ATOM     31  H   UNL     1      15.258  19.688  84.639  0.00  0.00    +0.000 HD
ENDBRANCH  29  30
ENDBRANCH  15  29
BRANCH   6  32
ATOM     32  O   UNL     1      20.070  16.784  90.736  0.00  0.00    +0.000 OA
BRANCH  32  34
ATOM     33  O   UNL     1      21.988  15.636  90.679  0.00  0.00    +0.000 OA
ATOM     34  C   UNL     1      21.275  16.454  91.254  0.00  0.00    +0.000 C 
BRANCH  34  35
ATOM     35  C   UNL     1      21.729  17.099  92.540  0.00  0.00    +0.000 C 
BRANCH  35  36
ATOM     36  C   UNL     1      22.688  18.254  92.283  0.00  0.00    +0.000 C 
BRANCH  36  37
ATOM     37  C   UNL     1      22.563  19.410  93.282  0.00  0.00    +0.000 C 
BRANCH  37  38
ATOM     38  C   UNL     1      22.290  20.777  92.640  0.00  0.00    +0.000 C 
BRANCH  38  39
ATOM     39  C   UNL     1      20.798  21.126  92.616  0.00  0.00    +0.000 C 
BRANCH  39  40
ATOM     40  C   UNL     1      20.257  21.589  93.971  0.00  0.00    +0.000 C 
BRANCH  40  41
ATOM     41  C   UNL     1      19.333  22.805  93.864  0.00  0.00    +0.000 C 
BRANCH  41  42
ATOM     42  C   UNL     1      19.203  23.344  92.437  0.00  0.00    +0.000 C 
BRANCH  42  43
ATOM     43  C   UNL     1      19.517  24.832  92.255  0.00  0.00    +0.000 C 
BRANCH  43  44
ATOM     44  C   UNL     1      20.536  25.164  91.160  0.00  0.00    +0.000 C 
BRANCH  44  45
ATOM     45  C   UNL     1      22.007  25.009  91.556  0.00  0.00    +0.000 C 
BRANCH  45  46
ATOM     46  C   UNL     1      22.791  23.937  90.796  0.00  0.00    +0.000 C 
ATOM     47  C   UNL     1      21.948  23.168  89.792  0.00  0.00    +0.000 C 
ENDBRANCH  45  46
ENDBRANCH  44  45
ENDBRANCH  43  44
ENDBRANCH  42  43
ENDBRANCH  41  42
ENDBRANCH  40  41
ENDBRANCH  39  40
ENDBRANCH  38  39
ENDBRANCH  37  38
ENDBRANCH  36  37
ENDBRANCH  35  36
ENDBRANCH  34  35
ENDBRANCH  32  34
ENDBRANCH   6  32
TORSDOF 20
ENDMDL
MODEL 5
REMARK VINA RESULT:      -3.9     10.007     14.897
REMARK  Name = 27924_Phorbol.pdbqt.pdb
REMARK  26 active torsions:
REMARK  status: ('A' for Active; 'I' for Inactive)
REMARK    1  A    between atoms: O_1  and  C_10
REMARK    2  A    between atoms: O_1  and  C_26
REMARK    3  A    between atoms: O_2  and  C_13
REMARK    4  A    between atoms: O_2  and  C_28
REMARK    5  A    between atoms: O_3  and  C_14
REMARK    6  A    between atoms: O_4  and  C_20
REMARK    7  A    between atoms: O_7  and  C_29
REMARK    8  A    between atoms: C_11  and  C_16
REMARK    9  A    between atoms: C_11  and  C_17
REMARK   10  A    between atoms: C_15  and  C_21
REMARK   11  A    between atoms: C_22  and  C_29
REMARK   12  A    between atoms: C_26  and  C_30
REMARK   13  A    between atoms: C_27  and  C_31
REMARK   14  A    between atoms: C_28  and  C_32
REMARK   15  A    between atoms: C_32  and  C_33
REMARK   16  A    between atoms: C_33  and  C_34
REMARK   17  A    between atoms: C_34  and  C_35
REMARK   18  A    between atoms: C_35  and  C_36
REMARK   19  A    between atoms: C_36  and  C_37
REMARK   20  A    between atoms: C_37  and  C_38
REMARK   21  A    between atoms: C_38  and  C_39
REMARK   22  A    between atoms: C_39  and  C_40
REMARK   23  A    between atoms: C_40  and  C_41
REMARK   24  A    between atoms: C_41  and  C_42
REMARK   25  A    between atoms: C_42  and  C_43
REMARK   26  A    between atoms: C_43  and  C_44
REMARK                            x       y       z     vdW  Elec       q    Type
REMARK                         _______ _______ _______ _____ _____    ______ ____
ROOT
ATOM      1  O   UNL     1      22.779   2.898  84.847  0.00  0.00    +0.000 OA
ATOM      2  C   UNL     1      25.938   8.820  87.149  0.00  0.00    +0.000 C 
ATOM      3  C   UNL     1      25.244  10.159  86.985  0.00  0.00    +0.000 C 
ATOM      4  C   UNL     1      26.474   9.785  86.110  0.00  0.00    +0.000 C 
ATOM      5  C   UNL     1      25.179   7.537  86.998  0.00  0.00    +0.000 C 
ATOM      6  C   UNL     1      23.789  10.138  86.482  0.00  0.00    +0.000 C 
ATOM      7  C   UNL     1      23.752   7.584  86.281  0.00  0.00    +0.000 C 
ATOM      8  C   UNL     1      23.042   8.835  86.936  0.00  0.00    +0.000 C 
ATOM      9  C   UNL     1      27.839  10.364  86.441  0.00  0.00    +0.000 C 
ATOM     10  C   UNL     1      26.348   9.489  84.635  0.00  0.00    +0.000 C 
ATOM     11  C   UNL     1      23.055   6.137  86.420  0.00  0.00    +0.000 C 
ATOM     12  C   UNL     1      26.040   6.375  86.540  0.00  0.00    +0.000 C 
ATOM     13  C   UNL     1      23.796   4.957  85.648  0.00  0.00    +0.000 C 
ATOM     14  C   UNL     1      21.541   8.965  86.673  0.00  0.00    +0.000 C 
ATOM     15  C   UNL     1      25.819   5.191  87.151  0.00  0.00    +0.000 C 
ATOM     16  C   UNL     1      24.909   4.217  86.424  0.00  0.00    +0.000 C 
ATOM     17  C   UNL     1      21.634   5.931  85.912  0.00  0.00    +0.000 C 
ATOM     18  C   UNL     1      22.655   4.035  85.277  0.00  0.00    +0.000 C 
ATOM     19  C   UNL     1      21.374   4.747  85.343  0.00  0.00    +0.000 C 
ATOM     20  C   UNL     1      20.109   4.181  84.828  0.00  0.00    +0.000 C 
ENDROOT
BRANCH   7  21
ATOM     21  O   UNL     1      23.860   7.875  84.882  0.00  0.00    +0.000 OA
ATOM     22  H   UNL     1      23.037   7.563  84.444  0.00  0.00    +0.000 HD
ENDBRANCH   7  21
BRANCH  13  23
ATOM     23  O   UNL     1      24.302   5.398  84.364  0.00  0.00    +0.000 OA
ATOM     24  H   UNL     1      25.247   5.142  84.343  0.00  0.00    +0.000 HD
ENDBRANCH  13  23
BRANCH   3  25
ATOM     25  O   UNL     1      25.453  10.966  88.173  0.00  0.00    +0.000 OA
BRANCH  25  27
ATOM     26  O   UNL     1      24.225  10.265  89.918  0.00  0.00    +0.000 OA
ATOM     27  C   UNL     1      25.333  10.517  89.448  0.00  0.00    +0.000 C 
ATOM     28  C   UNL     1      26.578  10.255  90.242  0.00  0.00    +0.000 C 
ENDBRANCH  25  27
ENDBRANCH   3  25
BRANCH  15  29
ATOM     29  C   UNL     1      25.900   4.997  88.642  0.00  0.00    +0.000 C 
BRANCH  29  30
ATOM     30  O   UNL     1      26.353   3.678  88.894  0.00  0.00    +0.000 OA
ATOM     31  H   UNL     1      27.273   3.752  89.203  0.00  0.00    +0.000 HD
ENDBRANCH  29  30
ENDBRANCH  15  29
BRANCH   6  32
ATOM     32  O   UNL     1      23.113  11.308  87.018  0.00  0.00    +0.000 OA
BRANCH  32  34
ATOM     33  O   UNL     1      23.516  13.471  86.613  0.00  0.00    +0.000 OA
ATOM     34  C   UNL     1      22.877  12.457  86.343  0.00  0.00    +0.000 C 
BRANCH  34  35
ATOM     35  C   UNL     1      21.826  12.477  85.261  0.00  0.00    +0.000 C 
BRANCH  35  36
ATOM     36  C   UNL     1      22.413  12.132  83.898  0.00  0.00    +0.000 C 
BRANCH  36  37
ATOM     37  C   UNL     1      21.960  13.061  82.766  0.00  0.00    +0.000 C 
BRANCH  37  38
ATOM     38  C   UNL     1      22.966  13.195  81.615  0.00  0.00    +0.000 C 
BRANCH  38  39
ATOM     39  C   UNL     1      22.603  12.317  80.413  0.00  0.00    +0.000 C 
BRANCH  39  40
ATOM     40  C   UNL     1      21.122  11.931  80.364  0.00  0.00    +0.000 C 
BRANCH  40  41
ATOM     41  C   UNL     1      20.898  10.418  80.286  0.00  0.00    +0.000 C 
BRANCH  41  42
ATOM     42  C   UNL     1      21.524   9.652  81.455  0.00  0.00    +0.000 C 
BRANCH  42  43
ATOM     43  C   UNL     1      20.550   8.858  82.329  0.00  0.00    +0.000 C 
BRANCH  43  44
ATOM     44  C   UNL     1      19.973   9.614  83.530  0.00  0.00    +0.000 C 
BRANCH  44  45
ATOM     45  C   UNL     1      18.563  10.181  83.340  0.00  0.00    +0.000 C 
BRANCH  45  46
ATOM     46  C   UNL     1      18.488  11.637  82.875  0.00  0.00    +0.000 C 
ATOM     47  C   UNL     1      17.328  12.408  83.485  0.00  0.00    +0.000 C 
ENDBRANCH  45  46
ENDBRANCH  44  45
ENDBRANCH  43  44
ENDBRANCH  42  43
ENDBRANCH  41  42
ENDBRANCH  40  41
ENDBRANCH  39  40
ENDBRANCH  38  39
ENDBRANCH  37  38
ENDBRANCH  36  37
ENDBRANCH  35  36
ENDBRANCH  34  35
ENDBRANCH  32  34
ENDBRANCH   6  32
TORSDOF 20
ENDMDL
MODEL 6
REMARK VINA RESULT:      -3.9     46.675     49.459
REMARK  Name = 27924_Phorbol.pdbqt.pdb
REMARK  26 active torsions:
REMARK  status: ('A' for Active; 'I' for Inactive)
REMARK    1  A    between atoms: O_1  and  C_10
REMARK    2  A    between atoms: O_1  and  C_26
REMARK    3  A    between atoms: O_2  and  C_13
REMARK    4  A    between atoms: O_2  and  C_28
REMARK    5  A    between atoms: O_3  and  C_14
REMARK    6  A    between atoms: O_4  and  C_20
REMARK    7  A    between atoms: O_7  and  C_29
REMARK    8  A    between atoms: C_11  and  C_16
REMARK    9  A    between atoms: C_11  and  C_17
REMARK   10  A    between atoms: C_15  and  C_21
REMARK   11  A    between atoms: C_22  and  C_29
REMARK   12  A    between atoms: C_26  and  C_30
REMARK   13  A    between atoms: C_27  and  C_31
REMARK   14  A    between atoms: C_28  and  C_32
REMARK   15  A    between atoms: C_32  and  C_33
REMARK   16  A    between atoms: C_33  and  C_34
REMARK   17  A    between atoms: C_34  and  C_35
REMARK   18  A    between atoms: C_35  and  C_36
REMARK   19  A    between atoms: C_36  and  C_37
REMARK   20  A    between atoms: C_37  and  C_38
REMARK   21  A    between atoms: C_38  and  C_39
REMARK   22  A    between atoms: C_39  and  C_40
REMARK   23  A    between atoms: C_40  and  C_41
REMARK   24  A    between atoms: C_41  and  C_42
REMARK   25  A    between atoms: C_42  and  C_43
REMARK   26  A    between atoms: C_43  and  C_44
REMARK                            x       y       z     vdW  Elec       q    Type
REMARK                         _______ _______ _______ _____ _____    ______ ____
ROOT
ATOM      1  O   UNL     1      57.573  35.085  73.488  0.00  0.00    +0.000 OA
ATOM      2  C   UNL     1      63.548  32.885  70.355  0.00  0.00    +0.000 C 
ATOM      3  C   UNL     1      64.894  33.260  70.947  0.00  0.00    +0.000 C 
ATOM      4  C   UNL     1      64.389  33.919  69.632  0.00  0.00    +0.000 C 
ATOM      5  C   UNL     1      62.289  33.029  71.155  0.00  0.00    +0.000 C 
ATOM      6  C   UNL     1      64.886  33.959  72.320  0.00  0.00    +0.000 C 
ATOM      7  C   UNL     1      62.329  33.941  72.467  0.00  0.00    +0.000 C 
ATOM      8  C   UNL     1      63.663  33.503  73.191  0.00  0.00    +0.000 C 
ATOM      9  C   UNL     1      64.939  33.451  68.295  0.00  0.00    +0.000 C 
ATOM     10  C   UNL     1      63.962  35.365  69.572  0.00  0.00    +0.000 C 
ATOM     11  C   UNL     1      60.931  33.776  73.253  0.00  0.00    +0.000 C 
ATOM     12  C   UNL     1      61.055  33.259  70.303  0.00  0.00    +0.000 C 
ATOM     13  C   UNL     1      59.654  34.331  72.479  0.00  0.00    +0.000 C 
ATOM     14  C   UNL     1      63.830  33.984  74.632  0.00  0.00    +0.000 C 
ATOM     15  C   UNL     1      59.943  32.586  70.670  0.00  0.00    +0.000 C 
ATOM     16  C   UNL     1      58.944  33.346  71.524  0.00  0.00    +0.000 C 
ATOM     17  C   UNL     1      60.738  34.458  74.601  0.00  0.00    +0.000 C 
ATOM     18  C   UNL     1      58.750  34.777  73.607  0.00  0.00    +0.000 C 
ATOM     19  C   UNL     1      59.517  34.953  74.845  0.00  0.00    +0.000 C 
ATOM     20  C   UNL     1      58.959  35.590  76.057  0.00  0.00    +0.000 C 
ENDROOT
BRANCH   7  21
ATOM     21  O   UNL     1      62.483  35.331  72.154  0.00  0.00    +0.000 OA
ATOM     22  H   UNL     1      62.099  35.484  71.262  0.00  0.00    +0.000 HD
ENDBRANCH   7  21
BRANCH  13  23
ATOM     23  O   UNL     1      59.952  35.565  71.780  0.00  0.00    +0.000 OA
ATOM     24  H   UNL     1      59.173  36.145  71.910  0.00  0.00    +0.000 HD
ENDBRANCH  13  23
BRANCH   3  25
ATOM     25  O   UNL     1      65.798  32.129  70.858  0.00  0.00    +0.000 OA
BRANCH  25  27
ATOM     26  O   UNL     1      65.520  30.189  69.762  0.00  0.00    +0.000 OA
ATOM     27  C   UNL     1      65.413  30.829  70.806  0.00  0.00    +0.000 C 
ATOM     28  C   UNL     1      64.935  30.167  72.064  0.00  0.00    +0.000 C 
ENDBRANCH  25  27
ENDBRANCH   3  25
BRANCH  15  29
ATOM     29  C   UNL     1      59.886  31.086  70.802  0.00  0.00    +0.000 C 
BRANCH  29  30
ATOM     30  O   UNL     1      59.531  30.772  72.138  0.00  0.00    +0.000 OA
ATOM     31  H   UNL     1      59.770  29.839  72.278  0.00  0.00    +0.000 HD
ENDBRANCH  29  30
ENDBRANCH  15  29
BRANCH   6  32
ATOM     32  O   UNL     1      66.128  33.627  72.997  0.00  0.00    +0.000 OA
BRANCH  32  34
ATOM     33  O   UNL     1      68.271  34.002  73.516  0.00  0.00    +0.000 OA
ATOM     34  C   UNL     1      67.192  34.450  73.137  0.00  0.00    +0.000 C 
BRANCH  34  35
ATOM     35  C   UNL     1      67.038  35.918  72.823  0.00  0.00    +0.000 C 
BRANCH  35  36
ATOM     36  C   UNL     1      66.498  36.696  74.017  0.00  0.00    +0.000 C 
BRANCH  36  37
ATOM     37  C   UNL     1      65.247  37.527  73.711  0.00  0.00    +0.000 C 
BRANCH  37  38
ATOM     38  C   UNL     1      65.162  38.852  74.481  0.00  0.00    +0.000 C 
BRANCH  38  39
ATOM     39  C   UNL     1      63.743  39.431  74.497  0.00  0.00    +0.000 C 
BRANCH  39  40
ATOM     40  C   UNL     1      62.674  38.440  74.029  0.00  0.00    +0.000 C 
BRANCH  40  41
ATOM     41  C   UNL     1      61.769  37.953  75.164  0.00  0.00    +0.000 C 
BRANCH  41  42
ATOM     42  C   UNL     1      60.386  38.609  75.161  0.00  0.00    +0.000 C 
BRANCH  42  43
ATOM     43  C   UNL     1      59.597  38.496  73.854  0.00  0.00    +0.000 C 
BRANCH  43  44
ATOM     44  C   UNL     1      58.271  39.262  73.813  0.00  0.00    +0.000 C 
BRANCH  44  45
ATOM     45  C   UNL     1      57.046  38.490  74.314  0.00  0.00    +0.000 C 
BRANCH  45  46
ATOM     46  C   UNL     1      56.492  38.929  75.671  0.00  0.00    +0.000 C 
ATOM     47  C   UNL     1      55.864  37.793  76.464  0.00  0.00    +0.000 C 
ENDBRANCH  45  46
ENDBRANCH  44  45
ENDBRANCH  43  44
ENDBRANCH  42  43
ENDBRANCH  41  42
ENDBRANCH  40  41
ENDBRANCH  39  40
ENDBRANCH  38  39
ENDBRANCH  37  38
ENDBRANCH  36  37
ENDBRANCH  35  36
ENDBRANCH  34  35
ENDBRANCH  32  34
ENDBRANCH   6  32
TORSDOF 20
ENDMDL
MODEL 7
REMARK VINA RESULT:      -3.9     47.244     50.059
REMARK  Name = 27924_Phorbol.pdbqt.pdb
REMARK  26 active torsions:
REMARK  status: ('A' for Active; 'I' for Inactive)
REMARK    1  A    between atoms: O_1  and  C_10
REMARK    2  A    between atoms: O_1  and  C_26
REMARK    3  A    between atoms: O_2  and  C_13
REMARK    4  A    between atoms: O_2  and  C_28
REMARK    5  A    between atoms: O_3  and  C_14
REMARK    6  A    between atoms: O_4  and  C_20
REMARK    7  A    between atoms: O_7  and  C_29
REMARK    8  A    between atoms: C_11  and  C_16
REMARK    9  A    between atoms: C_11  and  C_17
REMARK   10  A    between atoms: C_15  and  C_21
REMARK   11  A    between atoms: C_22  and  C_29
REMARK   12  A    between atoms: C_26  and  C_30
REMARK   13  A    between atoms: C_27  and  C_31
REMARK   14  A    between atoms: C_28  and  C_32
REMARK   15  A    between atoms: C_32  and  C_33
REMARK   16  A    between atoms: C_33  and  C_34
REMARK   17  A    between atoms: C_34  and  C_35
REMARK   18  A    between atoms: C_35  and  C_36
REMARK   19  A    between atoms: C_36  and  C_37
REMARK   20  A    between atoms: C_37  and  C_38
REMARK   21  A    between atoms: C_38  and  C_39
REMARK   22  A    between atoms: C_39  and  C_40
REMARK   23  A    between atoms: C_40  and  C_41
REMARK   24  A    between atoms: C_41  and  C_42
REMARK   25  A    between atoms: C_42  and  C_43
REMARK   26  A    between atoms: C_43  and  C_44
REMARK                            x       y       z     vdW  Elec       q    Type
REMARK                         _______ _______ _______ _____ _____    ______ ____
ROOT
ATOM      1  O   UNL     1      57.071  36.214  73.972  0.00  0.00    +0.000 OA
ATOM      2  C   UNL     1      63.007  33.293  71.406  0.00  0.00    +0.000 C 
ATOM      3  C   UNL     1      64.305  33.417  72.181  0.00  0.00    +0.000 C 
ATOM      4  C   UNL     1      64.077  34.222  70.870  0.00  0.00    +0.000 C 
ATOM      5  C   UNL     1      61.690  33.585  72.061  0.00  0.00    +0.000 C 
ATOM      6  C   UNL     1      64.225  34.026  73.593  0.00  0.00    +0.000 C 
ATOM      7  C   UNL     1      61.695  34.400  73.435  0.00  0.00    +0.000 C 
ATOM      8  C   UNL     1      62.846  33.717  74.275  0.00  0.00    +0.000 C 
ATOM      9  C   UNL     1      64.719  33.753  69.575  0.00  0.00    +0.000 C 
ATOM     10  C   UNL     1      63.881  35.718  70.873  0.00  0.00    +0.000 C 
ATOM     11  C   UNL     1      60.199  34.411  74.035  0.00  0.00    +0.000 C 
ATOM     12  C   UNL     1      60.624  34.056  71.090  0.00  0.00    +0.000 C 
ATOM     13  C   UNL     1      59.129  35.204  73.161  0.00  0.00    +0.000 C 
ATOM     14  C   UNL     1      62.895  34.081  75.759  0.00  0.00    +0.000 C 
ATOM     15  C   UNL     1      59.387  33.544  71.268  0.00  0.00    +0.000 C 
ATOM     16  C   UNL     1      58.410  34.400  72.055  0.00  0.00    +0.000 C 
ATOM     17  C   UNL     1      59.937  35.035  75.400  0.00  0.00    +0.000 C 
ATOM     18  C   UNL     1      58.164  35.720  74.206  0.00  0.00    +0.000 C 
ATOM     19  C   UNL     1      58.783  35.700  75.536  0.00  0.00    +0.000 C 
ATOM     20  C   UNL     1      58.174  36.344  76.719  0.00  0.00    +0.000 C 
ENDROOT
BRANCH   7  21
ATOM     21  O   UNL     1      62.093  35.766  73.252  0.00  0.00    +0.000 OA
ATOM     22  H   UNL     1      63.076  35.794  73.233  0.00  0.00    +0.000 HD
ENDBRANCH   7  21
BRANCH  13  23
ATOM     23  O   UNL     1      59.694  36.414  72.601  0.00  0.00    +0.000 OA
ATOM     24  H   UNL     1      60.605  36.185  72.322  0.00  0.00    +0.000 HD
ENDBRANCH  13  23
BRANCH   3  25
ATOM     25  O   UNL     1      65.036  32.165  72.112  0.00  0.00    +0.000 OA
BRANCH  25  27
ATOM     26  O   UNL     1      63.615  30.551  72.760  0.00  0.00    +0.000 OA
ATOM     27  C   UNL     1      64.468  30.941  71.965  0.00  0.00    +0.000 C 
ATOM     28  C   UNL     1      64.840  30.111  70.773  0.00  0.00    +0.000 C 
ENDBRANCH  25  27
ENDBRANCH   3  25
BRANCH  15  29
ATOM     29  C   UNL     1      59.092  32.067  71.276  0.00  0.00    +0.000 C 
BRANCH  29  30
ATOM     30  O   UNL     1      59.455  31.549  72.545  0.00  0.00    +0.000 OA
ATOM     31  H   UNL     1      59.525  30.583  72.443  0.00  0.00    +0.000 HD
ENDBRANCH  29  30
ENDBRANCH  15  29
BRANCH   6  32
ATOM     32  O   UNL     1      65.306  33.464  74.385  0.00  0.00    +0.000 OA
BRANCH  32  34
ATOM     33  O   UNL     1      67.342  33.548  75.308  0.00  0.00    +0.000 OA
ATOM     34  C   UNL     1      66.367  34.152  74.867  0.00  0.00    +0.000 C 
BRANCH  34  35
ATOM     35  C   UNL     1      66.338  35.660  74.858  0.00  0.00    +0.000 C 
BRANCH  35  36
ATOM     36  C   UNL     1      66.038  36.227  76.240  0.00  0.00    +0.000 C 
BRANCH  36  37
ATOM     37  C   UNL     1      64.776  37.095  76.303  0.00  0.00    +0.000 C 
BRANCH  37  38
ATOM     38  C   UNL     1      65.037  38.569  76.640  0.00  0.00    +0.000 C 
BRANCH  38  39
ATOM     39  C   UNL     1      64.877  39.486  75.423  0.00  0.00    +0.000 C 
BRANCH  39  40
ATOM     40  C   UNL     1      66.162  39.650  74.608  0.00  0.00    +0.000 C 
BRANCH  40  41
ATOM     41  C   UNL     1      66.090  38.979  73.234  0.00  0.00    +0.000 C 
BRANCH  41  42
ATOM     42  C   UNL     1      65.878  39.970  72.086  0.00  0.00    +0.000 C 
BRANCH  42  43
ATOM     43  C   UNL     1      64.421  40.306  71.756  0.00  0.00    +0.000 C 
BRANCH  43  44
ATOM     44  C   UNL     1      64.018  41.771  71.955  0.00  0.00    +0.000 C 
BRANCH  44  45
ATOM     45  C   UNL     1      63.257  42.079  73.247  0.00  0.00    +0.000 C 
BRANCH  45  46
ATOM     46  C   UNL     1      64.042  42.842  74.316  0.00  0.00    +0.000 C 
ATOM     47  C   UNL     1      65.419  43.290  73.852  0.00  0.00    +0.000 C 
ENDBRANCH  45  46
ENDBRANCH  44  45
ENDBRANCH  43  44
ENDBRANCH  42  43
ENDBRANCH  41  42
ENDBRANCH  40  41
ENDBRANCH  39  40
ENDBRANCH  38  39
ENDBRANCH  37  38
ENDBRANCH  36  37
ENDBRANCH  35  36
ENDBRANCH  34  35
ENDBRANCH  32  34
ENDBRANCH   6  32
TORSDOF 20
ENDMDL
MODEL 8
REMARK VINA RESULT:      -3.7     33.303     36.917
REMARK  Name = 27924_Phorbol.pdbqt.pdb
REMARK  26 active torsions:
REMARK  status: ('A' for Active; 'I' for Inactive)
REMARK    1  A    between atoms: O_1  and  C_10
REMARK    2  A    between atoms: O_1  and  C_26
REMARK    3  A    between atoms: O_2  and  C_13
REMARK    4  A    between atoms: O_2  and  C_28
REMARK    5  A    between atoms: O_3  and  C_14
REMARK    6  A    between atoms: O_4  and  C_20
REMARK    7  A    between atoms: O_7  and  C_29
REMARK    8  A    between atoms: C_11  and  C_16
REMARK    9  A    between atoms: C_11  and  C_17
REMARK   10  A    between atoms: C_15  and  C_21
REMARK   11  A    between atoms: C_22  and  C_29
REMARK   12  A    between atoms: C_26  and  C_30
REMARK   13  A    between atoms: C_27  and  C_31
REMARK   14  A    between atoms: C_28  and  C_32
REMARK   15  A    between atoms: C_32  and  C_33
REMARK   16  A    between atoms: C_33  and  C_34
REMARK   17  A    between atoms: C_34  and  C_35
REMARK   18  A    between atoms: C_35  and  C_36
REMARK   19  A    between atoms: C_36  and  C_37
REMARK   20  A    between atoms: C_37  and  C_38
REMARK   21  A    between atoms: C_38  and  C_39
REMARK   22  A    between atoms: C_39  and  C_40
REMARK   23  A    between atoms: C_40  and  C_41
REMARK   24  A    between atoms: C_41  and  C_42
REMARK   25  A    between atoms: C_42  and  C_43
REMARK   26  A    between atoms: C_43  and  C_44
REMARK                            x       y       z     vdW  Elec       q    Type
REMARK                         _______ _______ _______ _____ _____    ______ ____
ROOT
ATOM      1  O   UNL     1      50.090  20.473  84.829  0.00  0.00    +0.000 OA
ATOM      2  C   UNL     1      56.588  18.059  83.313  0.00  0.00    +0.000 C 
ATOM      3  C   UNL     1      56.830  17.304  82.019  0.00  0.00    +0.000 C 
ATOM      4  C   UNL     1      56.821  16.563  83.387  0.00  0.00    +0.000 C 
ATOM      5  C   UNL     1      55.342  18.869  83.508  0.00  0.00    +0.000 C 
ATOM      6  C   UNL     1      55.672  17.258  81.006  0.00  0.00    +0.000 C 
ATOM      7  C   UNL     1      54.112  18.611  82.522  0.00  0.00    +0.000 C 
ATOM      8  C   UNL     1      54.781  18.547  81.092  0.00  0.00    +0.000 C 
ATOM      9  C   UNL     1      58.135  16.168  84.039  0.00  0.00    +0.000 C 
ATOM     10  C   UNL     1      55.710  15.621  83.781  0.00  0.00    +0.000 C 
ATOM     11  C   UNL     1      52.983  19.728  82.800  0.00  0.00    +0.000 C 
ATOM     12  C   UNL     1      54.927  18.999  84.961  0.00  0.00    +0.000 C 
ATOM     13  C   UNL     1      52.302  19.653  84.238  0.00  0.00    +0.000 C 
ATOM     14  C   UNL     1      53.822  18.609  79.903  0.00  0.00    +0.000 C 
ATOM     15  C   UNL     1      54.501  20.220  85.353  0.00  0.00    +0.000 C 
ATOM     16  C   UNL     1      52.998  20.435  85.373  0.00  0.00    +0.000 C 
ATOM     17  C   UNL     1      51.739  19.780  81.922  0.00  0.00    +0.000 C 
ATOM     18  C   UNL     1      50.904  20.167  83.971  0.00  0.00    +0.000 C 
ATOM     19  C   UNL     1      50.592  20.093  82.539  0.00  0.00    +0.000 C 
ATOM     20  C   UNL     1      49.235  20.314  81.997  0.00  0.00    +0.000 C 
ENDROOT
BRANCH   7  21
ATOM     21  O   UNL     1      53.507  17.329  82.737  0.00  0.00    +0.000 OA
ATOM     22  H   UNL     1      54.016  16.870  83.442  0.00  0.00    +0.000 HD
ENDBRANCH   7  21
BRANCH  13  23
ATOM     23  O   UNL     1      52.082  18.281  84.650  0.00  0.00    +0.000 OA
ATOM     24  H   UNL     1      52.343  17.724  83.887  0.00  0.00    +0.000 HD
ENDBRANCH  13  23
BRANCH   3  25
ATOM     25  O   UNL     1      58.104  17.705  81.452  0.00  0.00    +0.000 OA
BRANCH  25  27
ATOM     26  O   UNL     1      57.847  19.841  80.811  0.00  0.00    +0.000 OA
ATOM     27  C   UNL     1      58.543  18.985  81.353  0.00  0.00    +0.000 C 
ATOM     28  C   UNL     1      59.850  19.352  81.990  0.00  0.00    +0.000 C 
ENDBRANCH  25  27
ENDBRANCH   3  25
BRANCH  15  29
ATOM     29  C   UNL     1      55.325  21.473  85.209  0.00  0.00    +0.000 C 
BRANCH  29  30
ATOM     30  O   UNL     1      54.568  22.418  84.472  0.00  0.00    +0.000 OA
ATOM     31  H   UNL     1      54.637  23.264  84.950  0.00  0.00    +0.000 HD
ENDBRANCH  29  30
ENDBRANCH  15  29
BRANCH   6  32
ATOM     32  O   UNL     1      56.246  17.141  79.675  0.00  0.00    +0.000 OA
BRANCH  32  34
ATOM     33  O   UNL     1      56.658  16.059  77.762  0.00  0.00    +0.000 OA
ATOM     34  C   UNL     1      56.274  16.014  78.928  0.00  0.00    +0.000 C 
BRANCH  34  35
ATOM     35  C   UNL     1      55.831  14.708  79.541  0.00  0.00    +0.000 C 
BRANCH  35  36
ATOM     36  C   UNL     1      54.340  14.467  79.335  0.00  0.00    +0.000 C 
BRANCH  36  37
ATOM     37  C   UNL     1      53.535  14.363  80.635  0.00  0.00    +0.000 C 
BRANCH  37  38
ATOM     38  C   UNL     1      52.024  14.564  80.463  0.00  0.00    +0.000 C 
BRANCH  38  39
ATOM     39  C   UNL     1      51.687  15.837  79.679  0.00  0.00    +0.000 C 
BRANCH  39  40
ATOM     40  C   UNL     1      50.576  16.673  80.320  0.00  0.00    +0.000 C 
BRANCH  40  41
ATOM     41  C   UNL     1      49.981  17.712  79.366  0.00  0.00    +0.000 C 
BRANCH  41  42
ATOM     42  C   UNL     1      50.242  17.399  77.890  0.00  0.00    +0.000 C 
BRANCH  42  43
ATOM     43  C   UNL     1      51.159  18.379  77.152  0.00  0.00    +0.000 C 
BRANCH  43  44
ATOM     44  C   UNL     1      52.437  17.774  76.563  0.00  0.00    +0.000 C 
BRANCH  44  45
ATOM     45  C   UNL     1      53.274  18.714  75.692  0.00  0.00    +0.000 C 
BRANCH  45  46
ATOM     46  C   UNL     1      52.495  19.798  74.943  0.00  0.00    +0.000 C 
ATOM     47  C   UNL     1      52.961  21.209  75.262  0.00  0.00    +0.000 C 
ENDBRANCH  45  46
ENDBRANCH  44  45
ENDBRANCH  43  44
ENDBRANCH  42  43
ENDBRANCH  41  42
ENDBRANCH  40  41
ENDBRANCH  39  40
ENDBRANCH  38  39
ENDBRANCH  37  38
ENDBRANCH  36  37
ENDBRANCH  35  36
ENDBRANCH  34  35
ENDBRANCH  32  34
ENDBRANCH   6  32
TORSDOF 20
ENDMDL
MODEL 9
REMARK VINA RESULT:      -3.7     17.224     20.695
REMARK  Name = 27924_Phorbol.pdbqt.pdb
REMARK  26 active torsions:
REMARK  status: ('A' for Active; 'I' for Inactive)
REMARK    1  A    between atoms: O_1  and  C_10
REMARK    2  A    between atoms: O_1  and  C_26
REMARK    3  A    between atoms: O_2  and  C_13
REMARK    4  A    between atoms: O_2  and  C_28
REMARK    5  A    between atoms: O_3  and  C_14
REMARK    6  A    between atoms: O_4  and  C_20
REMARK    7  A    between atoms: O_7  and  C_29
REMARK    8  A    between atoms: C_11  and  C_16
REMARK    9  A    between atoms: C_11  and  C_17
REMARK   10  A    between atoms: C_15  and  C_21
REMARK   11  A    between atoms: C_22  and  C_29
REMARK   12  A    between atoms: C_26  and  C_30
REMARK   13  A    between atoms: C_27  and  C_31
REMARK   14  A    between atoms: C_28  and  C_32
REMARK   15  A    between atoms: C_32  and  C_33
REMARK   16  A    between atoms: C_33  and  C_34
REMARK   17  A    between atoms: C_34  and  C_35
REMARK   18  A    between atoms: C_35  and  C_36
REMARK   19  A    between atoms: C_36  and  C_37
REMARK   20  A    between atoms: C_37  and  C_38
REMARK   21  A    between atoms: C_38  and  C_39
REMARK   22  A    between atoms: C_39  and  C_40
REMARK   23  A    between atoms: C_40  and  C_41
REMARK   24  A    between atoms: C_41  and  C_42
REMARK   25  A    between atoms: C_42  and  C_43
REMARK   26  A    between atoms: C_43  and  C_44
REMARK                            x       y       z     vdW  Elec       q    Type
REMARK                         _______ _______ _______ _____ _____    ______ ____
ROOT
ATOM      1  O   UNL     1      43.356  24.718  82.079  0.00  0.00    +0.000 OA
ATOM      2  C   UNL     1      37.540  21.115  80.195  0.00  0.00    +0.000 C 
ATOM      3  C   UNL     1      36.606  20.576  81.263  0.00  0.00    +0.000 C 
ATOM      4  C   UNL     1      37.522  19.620  80.447  0.00  0.00    +0.000 C 
ATOM      5  C   UNL     1      38.569  22.154  80.527  0.00  0.00    +0.000 C 
ATOM      6  C   UNL     1      36.883  21.003  82.717  0.00  0.00    +0.000 C 
ATOM      7  C   UNL     1      38.934  22.391  82.063  0.00  0.00    +0.000 C 
ATOM      8  C   UNL     1      37.529  22.431  82.784  0.00  0.00    +0.000 C 
ATOM      9  C   UNL     1      36.935  18.803  79.309  0.00  0.00    +0.000 C 
ATOM     10  C   UNL     1      38.707  18.922  81.068  0.00  0.00    +0.000 C 
ATOM     11  C   UNL     1      39.899  23.678  82.173  0.00  0.00    +0.000 C 
ATOM     12  C   UNL     1      39.785  22.110  79.621  0.00  0.00    +0.000 C 
ATOM     13  C   UNL     1      41.330  23.506  81.494  0.00  0.00    +0.000 C 
ATOM     14  C   UNL     1      37.532  22.945  84.225  0.00  0.00    +0.000 C 
ATOM     15  C   UNL     1      40.265  23.303  79.208  0.00  0.00    +0.000 C 
ATOM     16  C   UNL     1      41.431  23.871  79.997  0.00  0.00    +0.000 C 
ATOM     17  C   UNL     1      40.318  24.193  83.544  0.00  0.00    +0.000 C 
ATOM     18  C   UNL     1      42.212  24.386  82.353  0.00  0.00    +0.000 C 
ATOM     19  C   UNL     1      41.571  24.657  83.644  0.00  0.00    +0.000 C 
ATOM     20  C   UNL     1      42.274  25.299  84.775  0.00  0.00    +0.000 C 
ENDROOT
BRANCH   7  21
ATOM     21  O   UNL     1      39.640  21.278  82.629  0.00  0.00    +0.000 OA
ATOM     22  H   UNL     1      39.035  20.826  83.259  0.00  0.00    +0.000 HD
ENDBRANCH   7  21
BRANCH  13  23
ATOM     23  O   UNL     1      41.865  22.178  81.714  0.00  0.00    +0.000 OA
ATOM     24  H   UNL     1      41.209  21.710  82.271  0.00  0.00    +0.000 HD
ENDBRANCH  13  23
BRANCH   3  25
ATOM     25  O   UNL     1      35.229  20.752  80.841  0.00  0.00    +0.000 OA
BRANCH  25  27
ATOM     26  O   UNL     1      34.717  22.009  79.052  0.00  0.00    +0.000 OA
ATOM     27  C   UNL     1      34.728  21.879  80.274  0.00  0.00    +0.000 C 
ATOM     28  C   UNL     1      34.116  22.922  81.161  0.00  0.00    +0.000 C 
ENDBRANCH  25  27
ENDBRANCH   3  25
BRANCH  15  29
ATOM     29  C   UNL     1      39.435  24.321  78.471  0.00  0.00    +0.000 C 
BRANCH  29  30
ATOM     30  O   UNL     1      39.984  25.604  78.720  0.00  0.00    +0.000 OA
ATOM     31  H   UNL     1      39.316  26.101  79.225  0.00  0.00    +0.000 HD
ENDBRANCH  29  30
ENDBRANCH  15  29
BRANCH   6  32
ATOM     32  O   UNL     1      35.617  20.998  83.432  0.00  0.00    +0.000 OA
BRANCH  32  34
ATOM     33  O   UNL     1      35.686  20.064  85.463  0.00  0.00    +0.000 OA
ATOM     34  C   UNL     1      35.223  20.061  84.325  0.00  0.00    +0.000 C 
BRANCH  34  35
ATOM     35  C   UNL     1      34.214  19.020  83.909  0.00  0.00    +0.000 C 
BRANCH  35  36
ATOM     36  C   UNL     1      32.808  19.601  83.821  0.00  0.00    +0.000 C 
BRANCH  36  37
ATOM     37  C   UNL     1      32.292  19.784  82.390  0.00  0.00    +0.000 C 
BRANCH  37  38
ATOM     38  C   UNL     1      31.156  20.806  82.251  0.00  0.00    +0.000 C 
BRANCH  38  39
ATOM     39  C   UNL     1      31.102  21.786  83.428  0.00  0.00    +0.000 C 
BRANCH  39  40
ATOM     40  C   UNL     1      29.720  21.882  84.081  0.00  0.00    +0.000 C 
BRANCH  40  41
ATOM     41  C   UNL     1      28.630  21.154  83.289  0.00  0.00    +0.000 C 
BRANCH  41  42
ATOM     42  C   UNL     1      27.853  22.074  82.344  0.00  0.00    +0.000 C 
BRANCH  42  43
ATOM     43  C   UNL     1      27.741  23.538  82.780  0.00  0.00    +0.000 C 
BRANCH  43  44
ATOM     44  C   UNL     1      28.087  24.576  81.709  0.00  0.00    +0.000 C 
BRANCH  44  45
ATOM     45  C   UNL     1      29.460  25.240  81.850  0.00  0.00    +0.000 C 
BRANCH  45  46
ATOM     46  C   UNL     1      30.634  24.477  81.232  0.00  0.00    +0.000 C 
ATOM     47  C   UNL     1      31.210  25.149  79.995  0.00  0.00    +0.000 C 
ENDBRANCH  45  46
ENDBRANCH  44  45
ENDBRANCH  43  44
ENDBRANCH  42  43
ENDBRANCH  41  42
ENDBRANCH  40  41
ENDBRANCH  39  40
ENDBRANCH  38  39
ENDBRANCH  37  38
ENDBRANCH  36  37
ENDBRANCH  35  36
ENDBRANCH  34  35
ENDBRANCH  32  34
ENDBRANCH   6  32
TORSDOF 20
ENDMDL
