MODEL 1
REMARK VINA RESULT:      -3.6      0.000      0.000
REMARK  Name = 2Methylcholine.pdbqt.pdb
REMARK  3 active torsions:
REMARK  status: ('A' for Active; 'I' for Inactive)
REMARK    1  A    between atoms: C_1  and  N_2
REMARK    2  A    between atoms: C_1  and  C_6
REMARK    3  A    between atoms: C_6  and  O_8
REMARK                            x       y       z     vdW  Elec       q    Type
REMARK                         _______ _______ _______ _____ _____    ______ ____
ROOT
ATOM      1  C   UNL     1      56.416  35.005  78.738  0.00  0.00    +0.000 C 
ENDROOT
BRANCH   1   2
ATOM      2  N   UNL     1      57.284  34.754  79.871  0.00  0.00    +0.000 N 
ATOM      3  C   UNL     1      56.817  35.512  81.036  0.00  0.00    +0.000 C 
ATOM      4  C   UNL     1      57.282  33.325  80.196  0.00  0.00    +0.000 C 
ATOM      5  C   UNL     1      58.651  35.169  79.548  0.00  0.00    +0.000 C 
ENDBRANCH   1   2
BRANCH   1   6
ATOM      6  C   UNL     1      55.575  35.275  77.648  0.00  0.00    +0.000 C 
ATOM      7  C   UNL     1      55.368  36.657  77.154  0.00  0.00    +0.000 C 
BRANCH   6   8
ATOM      8  O   UNL     1      54.908  34.290  76.988  0.00  0.00    +0.000 OA
ATOM      9  H   UNL     1      54.478  34.681  76.204  0.00  0.00    +0.000 HD
ENDBRANCH   6   8
ENDBRANCH   1   6
TORSDOF 3
ENDMDL
MODEL 2
REMARK VINA RESULT:      -3.4      2.245      3.322
REMARK  Name = 2Methylcholine.pdbqt.pdb
REMARK  3 active torsions:
REMARK  status: ('A' for Active; 'I' for Inactive)
REMARK    1  A    between atoms: C_1  and  N_2
REMARK    2  A    between atoms: C_1  and  C_6
REMARK    3  A    between atoms: C_6  and  O_8
REMARK                            x       y       z     vdW  Elec       q    Type
REMARK                         _______ _______ _______ _____ _____    ______ ____
ROOT
ATOM      1  C   UNL     1      56.734  35.937  77.342  0.00  0.00    +0.000 C 
ENDROOT
BRANCH   1   2
ATOM      2  N   UNL     1      57.709  36.918  76.908  0.00  0.00    +0.000 N 
ATOM      3  C   UNL     1      57.739  38.042  77.849  0.00  0.00    +0.000 C 
ATOM      4  C   UNL     1      59.039  36.306  76.847  0.00  0.00    +0.000 C 
ATOM      5  C   UNL     1      57.351  37.417  75.578  0.00  0.00    +0.000 C 
ENDBRANCH   1   2
BRANCH   1   6
ATOM      6  C   UNL     1      55.790  35.001  77.787  0.00  0.00    +0.000 C 
ATOM      7  C   UNL     1      55.687  34.623  79.217  0.00  0.00    +0.000 C 
BRANCH   6   8
ATOM      8  O   UNL     1      54.921  34.389  76.937  0.00  0.00    +0.000 OA
ATOM      9  H   UNL     1      55.207  33.463  76.817  0.00  0.00    +0.000 HD
ENDBRANCH   6   8
ENDBRANCH   1   6
TORSDOF 3
ENDMDL
MODEL 3
REMARK VINA RESULT:      -3.3      2.474      3.821
REMARK  Name = 2Methylcholine.pdbqt.pdb
REMARK  3 active torsions:
REMARK  status: ('A' for Active; 'I' for Inactive)
REMARK    1  A    between atoms: C_1  and  N_2
REMARK    2  A    between atoms: C_1  and  C_6
REMARK    3  A    between atoms: C_6  and  O_8
REMARK                            x       y       z     vdW  Elec       q    Type
REMARK                         _______ _______ _______ _____ _____    ______ ____
ROOT
ATOM      1  C   UNL     1      57.226  36.101  79.854  0.00  0.00    +0.000 C 
ENDROOT
BRANCH   1   2
ATOM      2  N   UNL     1      57.597  36.347  78.475  0.00  0.00    +0.000 N 
ATOM      3  C   UNL     1      57.932  37.762  78.293  0.00  0.00    +0.000 C 
ATOM      4  C   UNL     1      58.757  35.528  78.115  0.00  0.00    +0.000 C 
ATOM      5  C   UNL     1      56.478  36.004  77.593  0.00  0.00    +0.000 C 
ENDBRANCH   1   2
BRANCH   1   6
ATOM      6  C   UNL     1      56.855  35.888  81.190  0.00  0.00    +0.000 C 
ATOM      7  C   UNL     1      57.657  35.023  82.088  0.00  0.00    +0.000 C 
BRANCH   6   8
ATOM      8  O   UNL     1      55.745  36.459  81.732  0.00  0.00    +0.000 OA
ATOM      9  H   UNL     1      55.831  37.429  81.661  0.00  0.00    +0.000 HD
ENDBRANCH   6   8
ENDBRANCH   1   6
TORSDOF 3
ENDMDL
MODEL 4
REMARK VINA RESULT:      -3.3      2.612      2.971
REMARK  Name = 2Methylcholine.pdbqt.pdb
REMARK  3 active torsions:
REMARK  status: ('A' for Active; 'I' for Inactive)
REMARK    1  A    between atoms: C_1  and  N_2
REMARK    2  A    between atoms: C_1  and  C_6
REMARK    3  A    between atoms: C_6  and  O_8
REMARK                            x       y       z     vdW  Elec       q    Type
REMARK                         _______ _______ _______ _____ _____    ______ ____
ROOT
ATOM      1  C   UNL     1      57.245  36.507  78.811  0.00  0.00    +0.000 C 
ENDROOT
BRANCH   1   2
ATOM      2  N   UNL     1      56.784  35.256  79.380  0.00  0.00    +0.000 N 
ATOM      3  C   UNL     1      55.543  34.836  78.723  0.00  0.00    +0.000 C 
ATOM      4  C   UNL     1      57.801  34.217  79.196  0.00  0.00    +0.000 C 
ATOM      5  C   UNL     1      56.531  35.428  80.813  0.00  0.00    +0.000 C 
ENDBRANCH   1   2
BRANCH   1   6
ATOM      6  C   UNL     1      57.692  37.727  78.286  0.00  0.00    +0.000 C 
ATOM      7  C   UNL     1      56.947  38.429  77.214  0.00  0.00    +0.000 C 
BRANCH   6   8
ATOM      8  O   UNL     1      58.829  38.332  78.728  0.00  0.00    +0.000 OA
ATOM      9  H   UNL     1      58.746  38.477  79.690  0.00  0.00    +0.000 HD
ENDBRANCH   6   8
ENDBRANCH   1   6
TORSDOF 3
ENDMDL
MODEL 5
REMARK VINA RESULT:      -3.3      2.691      3.997
REMARK  Name = 2Methylcholine.pdbqt.pdb
REMARK  3 active torsions:
REMARK  status: ('A' for Active; 'I' for Inactive)
REMARK    1  A    between atoms: C_1  and  N_2
REMARK    2  A    between atoms: C_1  and  C_6
REMARK    3  A    between atoms: C_6  and  O_8
REMARK                            x       y       z     vdW  Elec       q    Type
REMARK                         _______ _______ _______ _____ _____    ______ ____
ROOT
ATOM      1  C   UNL     1      58.238  34.997  78.905  0.00  0.00    +0.000 C 
ENDROOT
BRANCH   1   2
ATOM      2  N   UNL     1      58.018  36.035  77.916  0.00  0.00    +0.000 N 
ATOM      3  C   UNL     1      59.024  35.934  76.854  0.00  0.00    +0.000 C 
ATOM      4  C   UNL     1      56.683  35.892  77.330  0.00  0.00    +0.000 C 
ATOM      5  C   UNL     1      58.123  37.352  78.550  0.00  0.00    +0.000 C 
ENDBRANCH   1   2
BRANCH   1   6
ATOM      6  C   UNL     1      58.425  33.999  79.871  0.00  0.00    +0.000 C 
ATOM      7  C   UNL     1      57.278  33.293  80.488  0.00  0.00    +0.000 C 
BRANCH   6   8
ATOM      8  O   UNL     1      59.664  33.624  80.293  0.00  0.00    +0.000 OA
ATOM      9  H   UNL     1      59.595  32.742  80.707  0.00  0.00    +0.000 HD
ENDBRANCH   6   8
ENDBRANCH   1   6
TORSDOF 3
ENDMDL
MODEL 6
REMARK VINA RESULT:      -3.2      2.459      3.604
REMARK  Name = 2Methylcholine.pdbqt.pdb
REMARK  3 active torsions:
REMARK  status: ('A' for Active; 'I' for Inactive)
REMARK    1  A    between atoms: C_1  and  N_2
REMARK    2  A    between atoms: C_1  and  C_6
REMARK    3  A    between atoms: C_6  and  O_8
REMARK                            x       y       z     vdW  Elec       q    Type
REMARK                         _______ _______ _______ _____ _____    ______ ____
ROOT
ATOM      1  C   UNL     1      57.930  35.488  79.182  0.00  0.00    +0.000 C 
ENDROOT
BRANCH   1   2
ATOM      2  N   UNL     1      56.541  35.868  79.348  0.00  0.00    +0.000 N 
ATOM      3  C   UNL     1      55.673  34.723  79.060  0.00  0.00    +0.000 C 
ATOM      4  C   UNL     1      56.306  36.316  80.723  0.00  0.00    +0.000 C 
ATOM      5  C   UNL     1      56.213  36.960  78.428  0.00  0.00    +0.000 C 
ENDBRANCH   1   2
BRANCH   1   6
ATOM      6  C   UNL     1      59.266  35.095  79.019  0.00  0.00    +0.000 C 
ATOM      7  C   UNL     1      60.075  35.559  77.866  0.00  0.00    +0.000 C 
BRANCH   6   8
ATOM      8  O   UNL     1      59.890  34.270  79.903  0.00  0.00    +0.000 OA
ATOM      9  H   UNL     1      59.386  34.276  80.739  0.00  0.00    +0.000 HD
ENDBRANCH   6   8
ENDBRANCH   1   6
TORSDOF 3
ENDMDL
MODEL 7
REMARK VINA RESULT:      -3.2     14.522     15.311
REMARK  Name = 2Methylcholine.pdbqt.pdb
REMARK  3 active torsions:
REMARK  status: ('A' for Active; 'I' for Inactive)
REMARK    1  A    between atoms: C_1  and  N_2
REMARK    2  A    between atoms: C_1  and  C_6
REMARK    3  A    between atoms: C_6  and  O_8
REMARK                            x       y       z     vdW  Elec       q    Type
REMARK                         _______ _______ _______ _____ _____    ______ ____
ROOT
ATOM      1  C   UNL     1      45.601  26.086  83.667  0.00  0.00    +0.000 C 
ENDROOT
BRANCH   1   2
ATOM      2  N   UNL     1      44.492  26.796  84.272  0.00  0.00    +0.000 N 
ATOM      3  C   UNL     1      43.241  26.438  83.597  0.00  0.00    +0.000 C 
ATOM      4  C   UNL     1      44.389  26.445  85.691  0.00  0.00    +0.000 C 
ATOM      5  C   UNL     1      44.704  28.240  84.151  0.00  0.00    +0.000 C 
ENDBRANCH   1   2
BRANCH   1   6
ATOM      6  C   UNL     1      46.660  25.399  83.056  0.00  0.00    +0.000 C 
ATOM      7  C   UNL     1      46.814  23.931  83.196  0.00  0.00    +0.000 C 
BRANCH   6   8
ATOM      8  O   UNL     1      47.600  26.037  82.307  0.00  0.00    +0.000 OA
ATOM      9  H   UNL     1      48.018  26.726  82.858  0.00  0.00    +0.000 HD
ENDBRANCH   6   8
ENDBRANCH   1   6
TORSDOF 3
ENDMDL
MODEL 8
REMARK VINA RESULT:      -3.1     54.985     55.665
REMARK  Name = 2Methylcholine.pdbqt.pdb
REMARK  3 active torsions:
REMARK  status: ('A' for Active; 'I' for Inactive)
REMARK    1  A    between atoms: C_1  and  N_2
REMARK    2  A    between atoms: C_1  and  C_6
REMARK    3  A    between atoms: C_6  and  O_8
REMARK                            x       y       z     vdW  Elec       q    Type
REMARK                         _______ _______ _______ _____ _____    ______ ____
ROOT
ATOM      1  C   UNL     1      13.825   4.884  97.362  0.00  0.00    +0.000 C 
ENDROOT
BRANCH   1   2
ATOM      2  N   UNL     1      13.336   3.614  97.862  0.00  0.00    +0.000 N 
ATOM      3  C   UNL     1      13.245   2.646  96.765  0.00  0.00    +0.000 C 
ATOM      4  C   UNL     1      14.248   3.096  98.886  0.00  0.00    +0.000 C 
ATOM      5  C   UNL     1      12.008   3.793  98.453  0.00  0.00    +0.000 C 
ENDBRANCH   1   2
BRANCH   1   6
ATOM      6  C   UNL     1      14.299   6.101  96.852  0.00  0.00    +0.000 C 
ATOM      7  C   UNL     1      13.815   7.401  97.375  0.00  0.00    +0.000 C 
BRANCH   6   8
ATOM      8  O   UNL     1      15.223   6.156  95.855  0.00  0.00    +0.000 OA
ATOM      9  H   UNL     1      14.761   6.058  95.000  0.00  0.00    +0.000 HD
ENDBRANCH   6   8
ENDBRANCH   1   6
TORSDOF 3
ENDMDL
MODEL 9
REMARK VINA RESULT:      -2.9      2.378      3.062
REMARK  Name = 2Methylcholine.pdbqt.pdb
REMARK  3 active torsions:
REMARK  status: ('A' for Active; 'I' for Inactive)
REMARK    1  A    between atoms: C_1  and  N_2
REMARK    2  A    between atoms: C_1  and  C_6
REMARK    3  A    between atoms: C_6  and  O_8
REMARK                            x       y       z     vdW  Elec       q    Type
REMARK                         _______ _______ _______ _____ _____    ______ ____
ROOT
ATOM      1  C   UNL     1      57.847  35.475  78.429  0.00  0.00    +0.000 C 
ENDROOT
BRANCH   1   2
ATOM      2  N   UNL     1      56.878  34.796  79.266  0.00  0.00    +0.000 N 
ATOM      3  C   UNL     1      55.647  34.552  78.509  0.00  0.00    +0.000 C 
ATOM      4  C   UNL     1      57.424  33.515  79.723  0.00  0.00    +0.000 C 
ATOM      5  C   UNL     1      56.565  35.625  80.433  0.00  0.00    +0.000 C 
ENDBRANCH   1   2
BRANCH   1   6
ATOM      6  C   UNL     1      58.774  36.118  77.596  0.00  0.00    +0.000 C 
ATOM      7  C   UNL     1      59.602  35.360  76.628  0.00  0.00    +0.000 C 
BRANCH   6   8
ATOM      8  O   UNL     1      58.966  37.465  77.632  0.00  0.00    +0.000 OA
ATOM      9  H   UNL     1      59.523  37.717  76.870  0.00  0.00    +0.000 HD
ENDBRANCH   6   8
ENDBRANCH   1   6
TORSDOF 3
ENDMDL
