MODEL 1
REMARK VINA RESULT:      -7.5      0.000      0.000
REMARK  Name = 3035817_K252a.pdbqt.pdb
REMARK  3 active torsions:
REMARK  status: ('A' for Active; 'I' for Inactive)
REMARK    1  A    between atoms: C_3  and  O_7
REMARK    2  A    between atoms: C_3  and  C_9
REMARK    3  A    between atoms: C_9  and  O_11
REMARK                            x       y       z     vdW  Elec       q    Type
REMARK                         _______ _______ _______ _____ _____    ______ ____
ROOT
ATOM      1  O   UNL     1      57.133  39.199  70.469  0.00  0.00    +0.000 OA
ATOM      2  C   UNL     1      56.224  39.347  71.616  0.00  0.00    +0.000 C 
ATOM      3  C   UNL     1      54.876  38.657  71.134  0.00  0.00    +0.000 C 
ATOM      4  C   UNL     1      56.832  37.927  69.951  0.00  0.00    +0.000 C 
ATOM      5  C   UNL     1      55.440  37.744  70.143  0.00  0.00    +0.000 C 
ATOM      6  C   UNL     1      56.115  40.889  71.857  0.00  0.00    +0.000 C 
ATOM      7  N   UNL     1      56.863  38.650  72.752  0.00  0.00    +0.000 N 
ATOM      8  C   UNL     1      57.716  37.577  72.783  0.00  0.00    +0.000 A 
ATOM      9  C   UNL     1      58.106  36.779  71.706  0.00  0.00    +0.000 A 
ATOM     10  C   UNL     1      58.214  37.136  74.013  0.00  0.00    +0.000 A 
ATOM     11  N   UNL     1      57.662  36.927  70.429  0.00  0.00    +0.000 N 
ATOM     12  C   UNL     1      58.914  35.685  72.030  0.00  0.00    +0.000 A 
ATOM     13  C   UNL     1      58.198  35.769  69.839  0.00  0.00    +0.000 A 
ATOM     14  C   UNL     1      58.986  35.014  70.789  0.00  0.00    +0.000 A 
ATOM     15  C   UNL     1      58.057  35.331  68.512  0.00  0.00    +0.000 A 
ATOM     16  C   UNL     1      59.594  33.824  70.342  0.00  0.00    +0.000 A 
ATOM     17  C   UNL     1      59.444  33.407  69.020  0.00  0.00    +0.000 A 
ATOM     18  C   UNL     1      58.687  34.149  68.124  0.00  0.00    +0.000 A 
ATOM     19  C   UNL     1      59.439  35.240  73.261  0.00  0.00    +0.000 A 
ATOM     20  C   UNL     1      59.042  36.059  74.358  0.00  0.00    +0.000 A 
ATOM     21  C   UNL     1      60.247  34.136  73.721  0.00  0.00    +0.000 C 
ATOM     22  C   UNL     1      59.624  35.443  75.582  0.00  0.00    +0.000 C 
ATOM     23  N   UNL     1      60.285  34.367  75.102  0.00  0.00    +0.000 N 
ATOM     24  H   UNL     1      60.794  33.735  75.705  0.00  0.00    +0.000 HD
ATOM     25  O   UNL     1      60.800  33.200  73.163  0.00  0.00    +0.000 OA
ATOM     26  C   UNL     1      57.566  37.999  74.916  0.00  0.00    +0.000 A 
ATOM     27  C   UNL     1      56.729  38.889  74.143  0.00  0.00    +0.000 A 
ATOM     28  C   UNL     1      57.555  38.116  76.321  0.00  0.00    +0.000 A 
ATOM     29  C   UNL     1      55.915  39.829  74.799  0.00  0.00    +0.000 A 
ATOM     30  C   UNL     1      55.940  39.907  76.192  0.00  0.00    +0.000 A 
ATOM     31  C   UNL     1      56.750  39.070  76.942  0.00  0.00    +0.000 A 
ENDROOT
BRANCH   3  32
ATOM     32  O   UNL     1      54.197  37.891  72.140  0.00  0.00    +0.000 OA
ATOM     33  H   UNL     1      53.681  37.194  71.678  0.00  0.00    +0.000 HD
ENDBRANCH   3  32
BRANCH   3  34
ATOM     34  C   UNL     1      53.922  39.663  70.495  0.00  0.00    +0.000 C 
ATOM     35  O   UNL     1      54.142  40.104  69.364  0.00  0.00    +0.000 OA
BRANCH  34  36
ATOM     36  O   UNL     1      52.904  40.003  71.343  0.00  0.00    +0.000 OA
ATOM     37  C   UNL     1      52.471  41.336  71.340  0.00  0.00    +0.000 C 
ENDBRANCH  34  36
ENDBRANCH   3  34
TORSDOF 3
ENDMDL
MODEL 2
REMARK VINA RESULT:      -7.5      1.458      5.086
REMARK  Name = 3035817_K252a.pdbqt.pdb
REMARK  3 active torsions:
REMARK  status: ('A' for Active; 'I' for Inactive)
REMARK    1  A    between atoms: C_3  and  O_7
REMARK    2  A    between atoms: C_3  and  C_9
REMARK    3  A    between atoms: C_9  and  O_11
REMARK                            x       y       z     vdW  Elec       q    Type
REMARK                         _______ _______ _______ _____ _____    ______ ____
ROOT
ATOM      1  O   UNL     1      55.288  38.072  73.118  0.00  0.00    +0.000 OA
ATOM      2  C   UNL     1      55.920  38.364  71.821  0.00  0.00    +0.000 C 
ATOM      3  C   UNL     1      56.550  39.810  72.015  0.00  0.00    +0.000 C 
ATOM      4  C   UNL     1      56.172  38.621  74.064  0.00  0.00    +0.000 C 
ATOM      5  C   UNL     1      56.715  39.784  73.466  0.00  0.00    +0.000 C 
ATOM      6  C   UNL     1      54.759  38.296  70.775  0.00  0.00    +0.000 C 
ATOM      7  N   UNL     1      56.932  37.311  71.598  0.00  0.00    +0.000 N 
ATOM      8  C   UNL     1      57.674  36.575  72.487  0.00  0.00    +0.000 A 
ATOM      9  C   UNL     1      57.736  36.739  73.871  0.00  0.00    +0.000 A 
ATOM     10  C   UNL     1      58.545  35.595  72.001  0.00  0.00    +0.000 A 
ATOM     11  N   UNL     1      57.076  37.702  74.570  0.00  0.00    +0.000 N 
ATOM     12  C   UNL     1      58.649  35.912  74.535  0.00  0.00    +0.000 A 
ATOM     13  C   UNL     1      57.652  37.530  75.841  0.00  0.00    +0.000 A 
ATOM     14  C   UNL     1      58.590  36.429  75.848  0.00  0.00    +0.000 A 
ATOM     15  C   UNL     1      57.399  38.267  77.010  0.00  0.00    +0.000 A 
ATOM     16  C   UNL     1      59.247  36.130  77.058  0.00  0.00    +0.000 A 
ATOM     17  C   UNL     1      58.981  36.872  78.209  0.00  0.00    +0.000 A 
ATOM     18  C   UNL     1      58.074  37.922  78.181  0.00  0.00    +0.000 A 
ATOM     19  C   UNL     1      59.518  34.908  74.061  0.00  0.00    +0.000 A 
ATOM     20  C   UNL     1      59.449  34.741  72.647  0.00  0.00    +0.000 A 
ATOM     21  C   UNL     1      60.506  34.022  74.628  0.00  0.00    +0.000 C 
ATOM     22  C   UNL     1      60.449  33.696  72.294  0.00  0.00    +0.000 C 
ATOM     23  N   UNL     1      60.982  33.360  73.488  0.00  0.00    +0.000 N 
ATOM     24  H   UNL     1      61.705  32.659  73.577  0.00  0.00    +0.000 HD
ATOM     25  O   UNL     1      60.906  33.813  75.764  0.00  0.00    +0.000 OA
ATOM     26  C   UNL     1      58.397  35.737  70.610  0.00  0.00    +0.000 A 
ATOM     27  C   UNL     1      57.442  36.798  70.379  0.00  0.00    +0.000 A 
ATOM     28  C   UNL     1      58.991  35.113  69.493  0.00  0.00    +0.000 A 
ATOM     29  C   UNL     1      57.143  37.196  69.065  0.00  0.00    +0.000 A 
ATOM     30  C   UNL     1      57.756  36.546  67.993  0.00  0.00    +0.000 A 
ATOM     31  C   UNL     1      58.661  35.518  68.201  0.00  0.00    +0.000 A 
ENDROOT
BRANCH   3  32
ATOM     32  O   UNL     1      57.836  39.994  71.403  0.00  0.00    +0.000 OA
ATOM     33  H   UNL     1      57.805  40.842  70.908  0.00  0.00    +0.000 HD
ENDBRANCH   3  32
BRANCH   3  34
ATOM     34  C   UNL     1      55.589  40.911  71.576  0.00  0.00    +0.000 C 
ATOM     35  O   UNL     1      55.658  41.387  70.440  0.00  0.00    +0.000 OA
BRANCH  34  36
ATOM     36  O   UNL     1      54.750  41.284  72.590  0.00  0.00    +0.000 OA
ATOM     37  C   UNL     1      54.425  42.643  72.700  0.00  0.00    +0.000 C 
ENDBRANCH  34  36
ENDBRANCH   3  34
TORSDOF 3
ENDMDL
MODEL 3
REMARK VINA RESULT:      -6.8     12.277     15.605
REMARK  Name = 3035817_K252a.pdbqt.pdb
REMARK  3 active torsions:
REMARK  status: ('A' for Active; 'I' for Inactive)
REMARK    1  A    between atoms: C_3  and  O_7
REMARK    2  A    between atoms: C_3  and  C_9
REMARK    3  A    between atoms: C_9  and  O_11
REMARK                            x       y       z     vdW  Elec       q    Type
REMARK                         _______ _______ _______ _____ _____    ______ ____
ROOT
ATOM      1  O   UNL     1      43.335  37.945  82.234  0.00  0.00    +0.000 OA
ATOM      2  C   UNL     1      44.685  37.920  82.818  0.00  0.00    +0.000 C 
ATOM      3  C   UNL     1      45.039  36.374  82.910  0.00  0.00    +0.000 C 
ATOM      4  C   UNL     1      43.346  36.900  81.293  0.00  0.00    +0.000 C 
ATOM      5  C   UNL     1      44.170  35.886  81.842  0.00  0.00    +0.000 C 
ATOM      6  C   UNL     1      44.547  38.639  84.201  0.00  0.00    +0.000 C 
ATOM      7  N   UNL     1      45.560  38.665  81.889  0.00  0.00    +0.000 N 
ATOM      8  C   UNL     1      45.485  38.841  80.531  0.00  0.00    +0.000 A 
ATOM      9  C   UNL     1      44.590  38.232  79.650  0.00  0.00    +0.000 A 
ATOM     10  C   UNL     1      46.438  39.642  79.893  0.00  0.00    +0.000 A 
ATOM     11  N   UNL     1      43.647  37.318  80.009  0.00  0.00    +0.000 N 
ATOM     12  C   UNL     1      44.792  38.515  78.295  0.00  0.00    +0.000 A 
ATOM     13  C   UNL     1      43.200  36.908  78.741  0.00  0.00    +0.000 A 
ATOM     14  C   UNL     1      43.863  37.643  77.686  0.00  0.00    +0.000 A 
ATOM     15  C   UNL     1      42.230  35.936  78.441  0.00  0.00    +0.000 A 
ATOM     16  C   UNL     1      43.514  37.343  76.355  0.00  0.00    +0.000 A 
ATOM     17  C   UNL     1      42.548  36.377  76.077  0.00  0.00    +0.000 A 
ATOM     18  C   UNL     1      41.921  35.687  77.104  0.00  0.00    +0.000 A 
ATOM     19  C   UNL     1      45.734  39.335  77.641  0.00  0.00    +0.000 A 
ATOM     20  C   UNL     1      46.644  39.958  78.544  0.00  0.00    +0.000 A 
ATOM     21  C   UNL     1      46.057  39.682  76.277  0.00  0.00    +0.000 C 
ATOM     22  C   UNL     1      47.599  40.741  77.712  0.00  0.00    +0.000 C 
ATOM     23  N   UNL     1      47.170  40.515  76.451  0.00  0.00    +0.000 N 
ATOM     24  H   UNL     1      47.627  40.920  75.646  0.00  0.00    +0.000 HD
ATOM     25  O   UNL     1      45.572  39.397  75.192  0.00  0.00    +0.000 OA
ATOM     26  C   UNL     1      47.279  40.001  80.961  0.00  0.00    +0.000 A 
ATOM     27  C   UNL     1      46.755  39.378  82.157  0.00  0.00    +0.000 A 
ATOM     28  C   UNL     1      48.464  40.758  81.063  0.00  0.00    +0.000 A 
ATOM     29  C   UNL     1      47.439  39.522  83.377  0.00  0.00    +0.000 A 
ATOM     30  C   UNL     1      48.607  40.283  83.425  0.00  0.00    +0.000 A 
ATOM     31  C   UNL     1      49.110  40.897  82.290  0.00  0.00    +0.000 A 
ENDROOT
BRANCH   3  32
ATOM     32  O   UNL     1      46.399  36.046  82.591  0.00  0.00    +0.000 OA
ATOM     33  H   UNL     1      46.405  35.126  82.246  0.00  0.00    +0.000 HD
ENDBRANCH   3  32
BRANCH   3  34
ATOM     34  C   UNL     1      44.652  35.784  84.264  0.00  0.00    +0.000 C 
ATOM     35  O   UNL     1      45.458  35.779  85.198  0.00  0.00    +0.000 OA
BRANCH  34  36
ATOM     36  O   UNL     1      43.391  35.256  84.245  0.00  0.00    +0.000 OA
ATOM     37  C   UNL     1      42.410  35.884  85.025  0.00  0.00    +0.000 C 
ENDBRANCH  34  36
ENDBRANCH   3  34
TORSDOF 3
ENDMDL
MODEL 4
REMARK VINA RESULT:      -6.6     19.583     21.963
REMARK  Name = 3035817_K252a.pdbqt.pdb
REMARK  3 active torsions:
REMARK  status: ('A' for Active; 'I' for Inactive)
REMARK    1  A    between atoms: C_3  and  O_7
REMARK    2  A    between atoms: C_3  and  C_9
REMARK    3  A    between atoms: C_9  and  O_11
REMARK                            x       y       z     vdW  Elec       q    Type
REMARK                         _______ _______ _______ _____ _____    ______ ____
ROOT
ATOM      1  O   UNL     1      52.170  18.889  81.045  0.00  0.00    +0.000 OA
ATOM      2  C   UNL     1      50.906  18.180  81.296  0.00  0.00    +0.000 C 
ATOM      3  C   UNL     1      49.827  19.342  81.410  0.00  0.00    +0.000 C 
ATOM      4  C   UNL     1      51.808  19.956  80.203  0.00  0.00    +0.000 C 
ATOM      5  C   UNL     1      50.512  20.356  80.612  0.00  0.00    +0.000 C 
ATOM      6  C   UNL     1      51.140  17.378  82.618  0.00  0.00    +0.000 C 
ATOM      7  N   UNL     1      50.684  17.291  80.137  0.00  0.00    +0.000 N 
ATOM      8  C   UNL     1      51.067  17.411  78.826  0.00  0.00    +0.000 A 
ATOM      9  C   UNL     1      51.683  18.510  78.225  0.00  0.00    +0.000 A 
ATOM     10  C   UNL     1      50.757  16.385  77.928  0.00  0.00    +0.000 A 
ATOM     11  N   UNL     1      51.977  19.678  78.858  0.00  0.00    +0.000 N 
ATOM     12  C   UNL     1      51.882  18.408  76.844  0.00  0.00    +0.000 A 
ATOM     13  C   UNL     1      52.374  20.465  77.762  0.00  0.00    +0.000 A 
ATOM     14  C   UNL     1      52.350  19.703  76.533  0.00  0.00    +0.000 A 
ATOM     15  C   UNL     1      52.775  21.811  77.768  0.00  0.00    +0.000 A 
ATOM     16  C   UNL     1      52.728  20.359  75.345  0.00  0.00    +0.000 A 
ATOM     17  C   UNL     1      53.125  21.696  75.370  0.00  0.00    +0.000 A 
ATOM     18  C   UNL     1      53.145  22.406  76.562  0.00  0.00    +0.000 A 
ATOM     19  C   UNL     1      51.592  17.373  75.931  0.00  0.00    +0.000 A 
ATOM     20  C   UNL     1      50.967  16.251  76.548  0.00  0.00    +0.000 A 
ATOM     21  C   UNL     1      51.721  17.161  74.508  0.00  0.00    +0.000 C 
ATOM     22  C   UNL     1      50.680  15.273  75.463  0.00  0.00    +0.000 C 
ATOM     23  N   UNL     1      51.150  15.891  74.357  0.00  0.00    +0.000 N 
ATOM     24  H   UNL     1      51.098  15.468  73.441  0.00  0.00    +0.000 HD
ATOM     25  O   UNL     1      52.181  17.824  73.591  0.00  0.00    +0.000 OA
ATOM     26  C   UNL     1      50.032  15.495  78.740  0.00  0.00    +0.000 A 
ATOM     27  C   UNL     1      49.969  16.069  80.066  0.00  0.00    +0.000 A 
ATOM     28  C   UNL     1      49.376  14.269  78.507  0.00  0.00    +0.000 A 
ATOM     29  C   UNL     1      49.247  15.413  81.078  0.00  0.00    +0.000 A 
ATOM     30  C   UNL     1      48.616  14.201  80.797  0.00  0.00    +0.000 A 
ATOM     31  C   UNL     1      48.683  13.633  79.535  0.00  0.00    +0.000 A 
ENDROOT
BRANCH   3  32
ATOM     32  O   UNL     1      48.559  19.050  80.804  0.00  0.00    +0.000 OA
ATOM     33  H   UNL     1      48.737  18.751  79.885  0.00  0.00    +0.000 HD
ENDBRANCH   3  32
BRANCH   3  34
ATOM     34  C   UNL     1      49.635  19.796  82.855  0.00  0.00    +0.000 C 
ATOM     35  O   UNL     1      50.443  20.565  83.382  0.00  0.00    +0.000 OA
BRANCH  34  36
ATOM     36  O   UNL     1      48.541  19.209  83.429  0.00  0.00    +0.000 OA
ATOM     37  C   UNL     1      48.542  19.051  84.821  0.00  0.00    +0.000 C 
ENDBRANCH  34  36
ENDBRANCH   3  34
TORSDOF 3
ENDMDL
MODEL 5
REMARK VINA RESULT:      -6.6     46.767     47.712
REMARK  Name = 3035817_K252a.pdbqt.pdb
REMARK  3 active torsions:
REMARK  status: ('A' for Active; 'I' for Inactive)
REMARK    1  A    between atoms: C_3  and  O_7
REMARK    2  A    between atoms: C_3  and  C_9
REMARK    3  A    between atoms: C_9  and  O_11
REMARK                            x       y       z     vdW  Elec       q    Type
REMARK                         _______ _______ _______ _____ _____    ______ ____
ROOT
ATOM      1  O   UNL     1      20.411   6.547  85.819  0.00  0.00    +0.000 OA
ATOM      2  C   UNL     1      21.711   5.869  85.697  0.00  0.00    +0.000 C 
ATOM      3  C   UNL     1      21.834   5.544  84.146  0.00  0.00    +0.000 C 
ATOM      4  C   UNL     1      20.322   7.335  84.657  0.00  0.00    +0.000 C 
ATOM      5  C   UNL     1      20.962   6.597  83.632  0.00  0.00    +0.000 C 
ATOM      6  C   UNL     1      21.605   4.610  86.619  0.00  0.00    +0.000 C 
ATOM      7  N   UNL     1      22.731   6.825  86.176  0.00  0.00    +0.000 N 
ATOM      8  C   UNL     1      22.754   8.196  86.163  0.00  0.00    +0.000 A 
ATOM      9  C   UNL     1      21.828   9.049  85.560  0.00  0.00    +0.000 A 
ATOM     10  C   UNL     1      23.844   8.865  86.729  0.00  0.00    +0.000 A 
ATOM     11  N   UNL     1      20.747   8.639  84.843  0.00  0.00    +0.000 N 
ATOM     12  C   UNL     1      22.140  10.411  85.616  0.00  0.00    +0.000 A 
ATOM     13  C   UNL     1      20.312   9.869  84.318  0.00  0.00    +0.000 A 
ATOM     14  C   UNL     1      21.129  10.962  84.798  0.00  0.00    +0.000 A 
ATOM     15  C   UNL     1      19.231  10.104  83.453  0.00  0.00    +0.000 A 
ATOM     16  C   UNL     1      20.811  12.263  84.360  0.00  0.00    +0.000 A 
ATOM     17  C   UNL     1      19.733  12.477  83.502  0.00  0.00    +0.000 A 
ATOM     18  C   UNL     1      18.960  11.414  83.058  0.00  0.00    +0.000 A 
ATOM     19  C   UNL     1      23.223  11.101  86.199  0.00  0.00    +0.000 A 
ATOM     20  C   UNL     1      24.164  10.227  86.817  0.00  0.00    +0.000 A 
ATOM     21  C   UNL     1      23.663  12.472  86.300  0.00  0.00    +0.000 C 
ATOM     22  C   UNL     1      25.264  11.086  87.336  0.00  0.00    +0.000 C 
ATOM     23  N   UNL     1      24.874  12.332  86.991  0.00  0.00    +0.000 N 
ATOM     24  H   UNL     1      25.426  13.150  87.211  0.00  0.00    +0.000 HD
ATOM     25  O   UNL     1      23.201  13.540  85.929  0.00  0.00    +0.000 OA
ATOM     26  C   UNL     1      24.671   7.797  87.121  0.00  0.00    +0.000 A 
ATOM     27  C   UNL     1      24.000   6.570  86.753  0.00  0.00    +0.000 A 
ATOM     28  C   UNL     1      25.945   7.714  87.718  0.00  0.00    +0.000 A 
ATOM     29  C   UNL     1      24.632   5.334  86.977  0.00  0.00    +0.000 A 
ATOM     30  C   UNL     1      25.893   5.305  87.573  0.00  0.00    +0.000 A 
ATOM     31  C   UNL     1      26.538   6.473  87.944  0.00  0.00    +0.000 A 
ENDROOT
BRANCH   3  32
ATOM     32  O   UNL     1      23.148   5.717  83.596  0.00  0.00    +0.000 OA
ATOM     33  H   UNL     1      23.220   5.122  82.818  0.00  0.00    +0.000 HD
ENDBRANCH   3  32
BRANCH   3  34
ATOM     34  C   UNL     1      21.296   4.154  83.814  0.00  0.00    +0.000 C 
ATOM     35  O   UNL     1      22.059   3.187  83.746  0.00  0.00    +0.000 OA
BRANCH  34  36
ATOM     36  O   UNL     1      19.950   4.177  83.571  0.00  0.00    +0.000 OA
ATOM     37  C   UNL     1      19.215   3.021  83.864  0.00  0.00    +0.000 C 
ENDBRANCH  34  36
ENDBRANCH   3  34
TORSDOF 3
ENDMDL
MODEL 6
REMARK VINA RESULT:      -6.5     60.983     62.480
REMARK  Name = 3035817_K252a.pdbqt.pdb
REMARK  3 active torsions:
REMARK  status: ('A' for Active; 'I' for Inactive)
REMARK    1  A    between atoms: C_3  and  O_7
REMARK    2  A    between atoms: C_3  and  C_9
REMARK    3  A    between atoms: C_9  and  O_11
REMARK                            x       y       z     vdW  Elec       q    Type
REMARK                         _______ _______ _______ _____ _____    ______ ____
ROOT
ATOM      1  O   UNL     1      11.770   3.212  98.218  0.00  0.00    +0.000 OA
ATOM      2  C   UNL     1      12.141   2.246  99.265  0.00  0.00    +0.000 C 
ATOM      3  C   UNL     1      13.660   1.900  98.951  0.00  0.00    +0.000 C 
ATOM      4  C   UNL     1      12.924   3.997  98.049  0.00  0.00    +0.000 C 
ATOM      5  C   UNL     1      14.024   3.129  98.250  0.00  0.00    +0.000 C 
ATOM      6  C   UNL     1      11.151   1.048  99.086  0.00  0.00    +0.000 C 
ATOM      7  N   UNL     1      11.954   2.934 100.559  0.00  0.00    +0.000 N 
ATOM      8  C   UNL     1      12.046   4.261 100.892  0.00  0.00    +0.000 A 
ATOM      9  C   UNL     1      12.474   5.308 100.075  0.00  0.00    +0.000 A 
ATOM     10  C   UNL     1      11.775   4.654 102.207  0.00  0.00    +0.000 A 
ATOM     11  N   UNL     1      12.909   5.165  98.793  0.00  0.00    +0.000 N 
ATOM     12  C   UNL     1      12.563   6.558 100.695  0.00  0.00    +0.000 A 
ATOM     13  C   UNL     1      13.390   6.462  98.544  0.00  0.00    +0.000 A 
ATOM     14  C   UNL     1      13.164   7.332  99.678  0.00  0.00    +0.000 A 
ATOM     15  C   UNL     1      14.004   6.945  97.377  0.00  0.00    +0.000 A 
ATOM     16  C   UNL     1      13.591   8.671  99.576  0.00  0.00    +0.000 A 
ATOM     17  C   UNL     1      14.197   9.133  98.408  0.00  0.00    +0.000 A 
ATOM     18  C   UNL     1      14.400   8.282  97.331  0.00  0.00    +0.000 A 
ATOM     19  C   UNL     1      12.275   6.973 102.012  0.00  0.00    +0.000 A 
ATOM     20  C   UNL     1      11.835   5.902 102.843  0.00  0.00    +0.000 A 
ATOM     21  C   UNL     1      12.349   8.201 102.766  0.00  0.00    +0.000 C 
ATOM     22  C   UNL     1      11.621   6.477 104.200  0.00  0.00    +0.000 C 
ATOM     23  N   UNL     1      11.939   7.780 104.038  0.00  0.00    +0.000 N 
ATOM     24  H   UNL     1      11.891   8.444 104.798  0.00  0.00    +0.000 HD
ATOM     25  O   UNL     1      12.665   9.348 102.489  0.00  0.00    +0.000 OA
ATOM     26  C   UNL     1      11.519   3.421 102.834  0.00  0.00    +0.000 A 
ATOM     27  C   UNL     1      11.661   2.387 101.834  0.00  0.00    +0.000 A 
ATOM     28  C   UNL     1      11.216   3.040 104.157  0.00  0.00    +0.000 A 
ATOM     29  C   UNL     1      11.516   1.037 102.198  0.00  0.00    +0.000 A 
ATOM     30  C   UNL     1      11.215   0.711 103.521  0.00  0.00    +0.000 A 
ATOM     31  C   UNL     1      11.061   1.694 104.485  0.00  0.00    +0.000 A 
ENDROOT
BRANCH   3  32
ATOM     32  O   UNL     1      14.497   1.758 100.108  0.00  0.00    +0.000 OA
ATOM     33  H   UNL     1      14.111   1.045 100.663  0.00  0.00    +0.000 HD
ENDBRANCH   3  32
BRANCH   3  34
ATOM     34  C   UNL     1      13.787   0.676  98.047  0.00  0.00    +0.000 C 
ATOM     35  O   UNL     1      13.964  -0.444  98.531  0.00  0.00    +0.000 OA
BRANCH  34  36
ATOM     36  O   UNL     1      13.734   1.017  96.723  0.00  0.00    +0.000 OA
ATOM     37  C   UNL     1      12.939   0.230  95.879  0.00  0.00    +0.000 C 
ENDBRANCH  34  36
ENDBRANCH   3  34
TORSDOF 3
ENDMDL
MODEL 7
REMARK VINA RESULT:      -6.4     47.118     48.142
REMARK  Name = 3035817_K252a.pdbqt.pdb
REMARK  3 active torsions:
REMARK  status: ('A' for Active; 'I' for Inactive)
REMARK    1  A    between atoms: C_3  and  O_7
REMARK    2  A    between atoms: C_3  and  C_9
REMARK    3  A    between atoms: C_9  and  O_11
REMARK                            x       y       z     vdW  Elec       q    Type
REMARK                         _______ _______ _______ _____ _____    ______ ____
ROOT
ATOM      1  O   UNL     1      26.194   4.814  85.592  0.00  0.00    +0.000 OA
ATOM      2  C   UNL     1      24.922   4.076  85.536  0.00  0.00    +0.000 C 
ATOM      3  C   UNL     1      24.822   3.372  86.958  0.00  0.00    +0.000 C 
ATOM      4  C   UNL     1      26.259   5.292  86.913  0.00  0.00    +0.000 C 
ATOM      5  C   UNL     1      25.655   4.298  87.721  0.00  0.00    +0.000 C 
ATOM      6  C   UNL     1      25.072   3.090  84.332  0.00  0.00    +0.000 C 
ATOM      7  N   UNL     1      23.863   5.079  85.306  0.00  0.00    +0.000 N 
ATOM      8  C   UNL     1      23.787   6.403  85.658  0.00  0.00    +0.000 A 
ATOM      9  C   UNL     1      24.682   7.115  86.457  0.00  0.00    +0.000 A 
ATOM     10  C   UNL     1      22.668   7.148  85.272  0.00  0.00    +0.000 A 
ATOM     11  N   UNL     1      25.782   6.584  87.055  0.00  0.00    +0.000 N 
ATOM     12  C   UNL     1      24.316   8.436  86.740  0.00  0.00    +0.000 A 
ATOM     13  C   UNL     1      26.172   7.661  87.870  0.00  0.00    +0.000 A 
ATOM     14  C   UNL     1      25.310   8.806  87.673  0.00  0.00    +0.000 A 
ATOM     15  C   UNL     1      27.248   7.717  88.771  0.00  0.00    +0.000 A 
ATOM     16  C   UNL     1      25.579   9.969  88.421  0.00  0.00    +0.000 A 
ATOM     17  C   UNL     1      26.654  10.006  89.309  0.00  0.00    +0.000 A 
ATOM     18  C   UNL     1      27.470   8.897  89.479  0.00  0.00    +0.000 A 
ATOM     19  C   UNL     1      23.203   9.205  86.343  0.00  0.00    +0.000 A 
ATOM     20  C   UNL     1      22.293   8.475  85.523  0.00  0.00    +0.000 A 
ATOM     21  C   UNL     1      22.709  10.540  86.583  0.00  0.00    +0.000 C 
ATOM     22  C   UNL     1      21.158   9.392  85.229  0.00  0.00    +0.000 C 
ATOM     23  N   UNL     1      21.501  10.528  85.874  0.00  0.00    +0.000 N 
ATOM     24  H   UNL     1      20.916  11.352  85.861  0.00  0.00    +0.000 HD
ATOM     25  O   UNL     1      23.132  11.500  87.209  0.00  0.00    +0.000 OA
ATOM     26  C   UNL     1      21.881   6.179  84.624  0.00  0.00    +0.000 A 
ATOM     27  C   UNL     1      22.601   4.926  84.679  0.00  0.00    +0.000 A 
ATOM     28  C   UNL     1      20.607   6.196  84.020  0.00  0.00    +0.000 A 
ATOM     29  C   UNL     1      22.017   3.761  84.153  0.00  0.00    +0.000 A 
ATOM     30  C   UNL     1      20.754   3.830  83.563  0.00  0.00    +0.000 A 
ATOM     31  C   UNL     1      20.061   5.028  83.491  0.00  0.00    +0.000 A 
ENDROOT
BRANCH   3  32
ATOM     32  O   UNL     1      23.505   3.351  87.529  0.00  0.00    +0.000 OA
ATOM     33  H   UNL     1      23.465   4.070  88.197  0.00  0.00    +0.000 HD
ENDBRANCH   3  32
BRANCH   3  34
ATOM     34  C   UNL     1      25.416   1.966  86.937  0.00  0.00    +0.000 C 
ATOM     35  O   UNL     1      26.638   1.802  86.970  0.00  0.00    +0.000 OA
BRANCH  34  36
ATOM     36  O   UNL     1      24.445   1.008  86.826  0.00  0.00    +0.000 OA
ATOM     37  C   UNL     1      24.752  -0.285  87.271  0.00  0.00    +0.000 C 
ENDBRANCH  34  36
ENDBRANCH   3  34
TORSDOF 3
ENDMDL
MODEL 8
REMARK VINA RESULT:      -6.4     60.546     62.079
REMARK  Name = 3035817_K252a.pdbqt.pdb
REMARK  3 active torsions:
REMARK  status: ('A' for Active; 'I' for Inactive)
REMARK    1  A    between atoms: C_3  and  O_7
REMARK    2  A    between atoms: C_3  and  C_9
REMARK    3  A    between atoms: C_9  and  O_11
REMARK                            x       y       z     vdW  Elec       q    Type
REMARK                         _______ _______ _______ _____ _____    ______ ____
ROOT
ATOM      1  O   UNL     1       3.314   5.785  86.610  0.00  0.00    +0.000 OA
ATOM      2  C   UNL     1       3.202   7.077  85.915  0.00  0.00    +0.000 C 
ATOM      3  C   UNL     1       3.933   8.102  86.886  0.00  0.00    +0.000 C 
ATOM      4  C   UNL     1       4.592   5.816  87.196  0.00  0.00    +0.000 C 
ATOM      5  C   UNL     1       4.820   7.164  87.568  0.00  0.00    +0.000 C 
ATOM      6  C   UNL     1       1.667   7.322  85.747  0.00  0.00    +0.000 C 
ATOM      7  N   UNL     1       3.886   6.916  84.616  0.00  0.00    +0.000 N 
ATOM      8  C   UNL     1       4.931   6.111  84.243  0.00  0.00    +0.000 A 
ATOM      9  C   UNL     1       5.709   5.302  85.073  0.00  0.00    +0.000 A 
ATOM     10  C   UNL     1       5.363   6.124  82.913  0.00  0.00    +0.000 A 
ATOM     11  N   UNL     1       5.567   5.210  86.423  0.00  0.00    +0.000 N 
ATOM     12  C   UNL     1       6.779   4.652  84.449  0.00  0.00    +0.000 A 
ATOM     13  C   UNL     1       6.704   4.448  86.745  0.00  0.00    +0.000 A 
ATOM     14  C   UNL     1       7.439   4.075  85.556  0.00  0.00    +0.000 A 
ATOM     15  C   UNL     1       7.137   4.040  88.017  0.00  0.00    +0.000 A 
ATOM     16  C   UNL     1       8.606   3.302  85.719  0.00  0.00    +0.000 A 
ATOM     17  C   UNL     1       9.019   2.904  86.990  0.00  0.00    +0.000 A 
ATOM     18  C   UNL     1       8.296   3.270  88.117  0.00  0.00    +0.000 A 
ATOM     19  C   UNL     1       7.214   4.641  83.108  0.00  0.00    +0.000 A 
ATOM     20  C   UNL     1       6.415   5.465  82.262  0.00  0.00    +0.000 A 
ATOM     21  C   UNL     1       8.295   4.045  82.359  0.00  0.00    +0.000 C 
ATOM     22  C   UNL     1       7.021   5.393  80.904  0.00  0.00    +0.000 C 
ATOM     23  N   UNL     1       8.072   4.562  81.076  0.00  0.00    +0.000 N 
ATOM     24  H   UNL     1       8.691   4.313  80.318  0.00  0.00    +0.000 HD
ATOM     25  O   UNL     1       9.209   3.287  82.647  0.00  0.00    +0.000 OA
ATOM     26  C   UNL     1       4.528   7.103  82.345  0.00  0.00    +0.000 A 
ATOM     27  C   UNL     1       3.660   7.595  83.391  0.00  0.00    +0.000 A 
ATOM     28  C   UNL     1       4.420   7.672  81.059  0.00  0.00    +0.000 A 
ATOM     29  C   UNL     1       2.752   8.632  83.116  0.00  0.00    +0.000 A 
ATOM     30  C   UNL     1       2.682   9.160  81.827  0.00  0.00    +0.000 A 
ATOM     31  C   UNL     1       3.497   8.686  80.812  0.00  0.00    +0.000 A 
ENDROOT
BRANCH   3  32
ATOM     32  O   UNL     1       4.727   9.098  86.224  0.00  0.00    +0.000 OA
ATOM     33  H   UNL     1       5.225   8.646  85.508  0.00  0.00    +0.000 HD
ENDBRANCH   3  32
BRANCH   3  34
ATOM     34  C   UNL     1       2.954   8.759  87.856  0.00  0.00    +0.000 C 
ATOM     35  O   UNL     1       2.507   8.128  88.817  0.00  0.00    +0.000 OA
BRANCH  34  36
ATOM     36  O   UNL     1       2.643  10.035  87.474  0.00  0.00    +0.000 OA
ATOM     37  C   UNL     1       1.286  10.371  87.367  0.00  0.00    +0.000 C 
ENDBRANCH  34  36
ENDBRANCH   3  34
TORSDOF 3
ENDMDL
MODEL 9
REMARK VINA RESULT:      -6.3     21.864     23.373
REMARK  Name = 3035817_K252a.pdbqt.pdb
REMARK  3 active torsions:
REMARK  status: ('A' for Active; 'I' for Inactive)
REMARK    1  A    between atoms: C_3  and  O_7
REMARK    2  A    between atoms: C_3  and  C_9
REMARK    3  A    between atoms: C_9  and  O_11
REMARK                            x       y       z     vdW  Elec       q    Type
REMARK                         _______ _______ _______ _____ _____    ______ ____
ROOT
ATOM      1  O   UNL     1      41.078  23.226  84.518  0.00  0.00    +0.000 OA
ATOM      2  C   UNL     1      41.261  22.111  83.576  0.00  0.00    +0.000 C 
ATOM      3  C   UNL     1      40.807  22.711  82.175  0.00  0.00    +0.000 C 
ATOM      4  C   UNL     1      41.460  24.364  83.786  0.00  0.00    +0.000 C 
ATOM      5  C   UNL     1      41.062  24.123  82.449  0.00  0.00    +0.000 C 
ATOM      6  C   UNL     1      40.349  20.962  84.117  0.00  0.00    +0.000 C 
ATOM      7  N   UNL     1      42.693  21.753  83.620  0.00  0.00    +0.000 N 
ATOM      8  C   UNL     1      43.802  22.513  83.889  0.00  0.00    +0.000 A 
ATOM      9  C   UNL     1      43.851  23.895  84.077  0.00  0.00    +0.000 A 
ATOM     10  C   UNL     1      45.061  21.903  83.907  0.00  0.00    +0.000 A 
ATOM     11  N   UNL     1      42.780  24.730  83.986  0.00  0.00    +0.000 N 
ATOM     12  C   UNL     1      45.131  24.435  84.244  0.00  0.00    +0.000 A 
ATOM     13  C   UNL     1      43.426  25.977  84.053  0.00  0.00    +0.000 A 
ATOM     14  C   UNL     1      44.853  25.820  84.238  0.00  0.00    +0.000 A 
ATOM     15  C   UNL     1      42.847  27.254  83.979  0.00  0.00    +0.000 A 
ATOM     16  C   UNL     1      45.637  26.987  84.328  0.00  0.00    +0.000 A 
ATOM     17  C   UNL     1      45.043  28.246  84.254  0.00  0.00    +0.000 A 
ATOM     18  C   UNL     1      43.672  28.373  84.081  0.00  0.00    +0.000 A 
ATOM     19  C   UNL     1      46.404  23.831  84.283  0.00  0.00    +0.000 A 
ATOM     20  C   UNL     1      46.350  22.419  84.095  0.00  0.00    +0.000 A 
ATOM     21  C   UNL     1      47.772  24.271  84.420  0.00  0.00    +0.000 C 
ATOM     22  C   UNL     1      47.758  21.934  84.110  0.00  0.00    +0.000 C 
ATOM     23  N   UNL     1      48.473  23.064  84.303  0.00  0.00    +0.000 N 
ATOM     24  H   UNL     1      49.482  23.059  84.360  0.00  0.00    +0.000 HD
ATOM     25  O   UNL     1      48.299  25.360  84.594  0.00  0.00    +0.000 OA
ATOM     26  C   UNL     1      44.747  20.578  83.554  0.00  0.00    +0.000 A 
ATOM     27  C   UNL     1      43.317  20.507  83.354  0.00  0.00    +0.000 A 
ATOM     28  C   UNL     1      45.514  19.414  83.339  0.00  0.00    +0.000 A 
ATOM     29  C   UNL     1      42.728  19.302  82.934  0.00  0.00    +0.000 A 
ATOM     30  C   UNL     1      43.530  18.178  82.736  0.00  0.00    +0.000 A 
ATOM     31  C   UNL     1      44.900  18.229  82.940  0.00  0.00    +0.000 A 
ENDROOT
BRANCH   3  32
ATOM     32  O   UNL     1      41.607  22.301  81.056  0.00  0.00    +0.000 OA
ATOM     33  H   UNL     1      42.182  23.060  80.814  0.00  0.00    +0.000 HD
ENDBRANCH   3  32
BRANCH   3  34
ATOM     34  C   UNL     1      39.329  22.448  81.898  0.00  0.00    +0.000 C 
ATOM     35  O   UNL     1      38.457  23.067  82.513  0.00  0.00    +0.000 OA
BRANCH  34  36
ATOM     36  O   UNL     1      39.156  21.454  80.975  0.00  0.00    +0.000 OA
ATOM     37  C   UNL     1      38.007  21.501  80.175  0.00  0.00    +0.000 C 
ENDBRANCH  34  36
ENDBRANCH   3  34
TORSDOF 3
ENDMDL
