MODEL 1
REMARK VINA RESULT:      -5.9      0.000      0.000
REMARK  Name = 3136_Dimethoxy.pdbqt.pdb
REMARK  2 active torsions:
REMARK  status: ('A' for Active; 'I' for Inactive)
REMARK    1  A    between atoms: C_7  and  O_13
REMARK    2  A    between atoms: C_8  and  O_15
REMARK                            x       y       z     vdW  Elec       q    Type
REMARK                         _______ _______ _______ _____ _____    ______ ____
ROOT
ATOM      1  O   UNL     1      60.226  34.728  78.538  0.00  0.00    +0.000 OA
ATOM      2  O   UNL     1      55.279  36.652  79.011  0.00  0.00    +0.000 OA
ATOM      3  C   UNL     1      58.401  35.752  77.493  0.00  0.00    +0.000 A 
ATOM      4  C   UNL     1      57.104  36.230  77.611  0.00  0.00    +0.000 A 
ATOM      5  C   UNL     1      59.101  35.195  78.656  0.00  0.00    +0.000 C 
ATOM      6  C   UNL     1      56.403  36.183  78.898  0.00  0.00    +0.000 C 
ATOM      7  C   UNL     1      58.398  35.199  79.962  0.00  0.00    +0.000 C 
ATOM      8  C   UNL     1      57.105  35.571  80.053  0.00  0.00    +0.000 C 
ATOM      9  C   UNL     1      59.054  35.798  76.262  0.00  0.00    +0.000 A 
ATOM     10  C   UNL     1      56.451  36.763  76.499  0.00  0.00    +0.000 A 
ATOM     11  C   UNL     1      58.404  36.328  75.150  0.00  0.00    +0.000 A 
ATOM     12  C   UNL     1      57.103  36.811  75.268  0.00  0.00    +0.000 A 
ENDROOT
BRANCH   7  13
ATOM     13  O   UNL     1      59.128  34.705  81.028  0.00  0.00    +0.000 OA
ATOM     14  C   UNL     1      58.765  33.367  81.270  0.00  0.00    +0.000 C 
ENDBRANCH   7  13
BRANCH   8  15
ATOM     15  O   UNL     1      56.372  35.511  81.225  0.00  0.00    +0.000 OA
ATOM     16  C   UNL     1      56.666  36.631  82.025  0.00  0.00    +0.000 C 
ENDBRANCH   8  15
TORSDOF 2
ENDMDL
MODEL 2
REMARK VINA RESULT:      -5.4      1.975      3.336
REMARK  Name = 3136_Dimethoxy.pdbqt.pdb
REMARK  2 active torsions:
REMARK  status: ('A' for Active; 'I' for Inactive)
REMARK    1  A    between atoms: C_7  and  O_13
REMARK    2  A    between atoms: C_8  and  O_15
REMARK                            x       y       z     vdW  Elec       q    Type
REMARK                         _______ _______ _______ _____ _____    ______ ____
ROOT
ATOM      1  O   UNL     1      59.680  37.896  75.760  0.00  0.00    +0.000 OA
ATOM      2  O   UNL     1      56.301  35.459  79.082  0.00  0.00    +0.000 OA
ATOM      3  C   UNL     1      57.547  37.850  76.717  0.00  0.00    +0.000 A 
ATOM      4  C   UNL     1      56.660  37.201  77.563  0.00  0.00    +0.000 A 
ATOM      5  C   UNL     1      58.916  37.351  76.545  0.00  0.00    +0.000 C 
ATOM      6  C   UNL     1      57.069  35.999  78.298  0.00  0.00    +0.000 C 
ATOM      7  C   UNL     1      59.332  36.164  77.332  0.00  0.00    +0.000 C 
ATOM      8  C   UNL     1      58.439  35.478  78.075  0.00  0.00    +0.000 C 
ATOM      9  C   UNL     1      57.143  38.989  76.020  0.00  0.00    +0.000 A 
ATOM     10  C   UNL     1      55.362  37.688  77.723  0.00  0.00    +0.000 A 
ATOM     11  C   UNL     1      55.848  39.476  76.177  0.00  0.00    +0.000 A 
ATOM     12  C   UNL     1      54.957  38.827  77.029  0.00  0.00    +0.000 A 
ENDROOT
BRANCH   7  13
ATOM     13  O   UNL     1      60.647  35.773  77.161  0.00  0.00    +0.000 OA
ATOM     14  C   UNL     1      60.739  34.885  76.074  0.00  0.00    +0.000 C 
ENDBRANCH   7  13
BRANCH   8  15
ATOM     15  O   UNL     1      58.747  34.314  78.757  0.00  0.00    +0.000 OA
ATOM     16  C   UNL     1      59.268  34.633  80.026  0.00  0.00    +0.000 C 
ENDBRANCH   8  15
TORSDOF 2
ENDMDL
MODEL 3
REMARK VINA RESULT:      -5.2      4.416      6.741
REMARK  Name = 3136_Dimethoxy.pdbqt.pdb
REMARK  2 active torsions:
REMARK  status: ('A' for Active; 'I' for Inactive)
REMARK    1  A    between atoms: C_7  and  O_13
REMARK    2  A    between atoms: C_8  and  O_15
REMARK                            x       y       z     vdW  Elec       q    Type
REMARK                         _______ _______ _______ _____ _____    ______ ____
ROOT
ATOM      1  O   UNL     1      58.611  35.131  72.806  0.00  0.00    +0.000 OA
ATOM      2  O   UNL     1      62.056  32.097  75.513  0.00  0.00    +0.000 OA
ATOM      3  C   UNL     1      59.745  33.091  72.957  0.00  0.00    +0.000 A 
ATOM      4  C   UNL     1      60.661  32.312  73.648  0.00  0.00    +0.000 A 
ATOM      5  C   UNL     1      59.380  34.426  73.446  0.00  0.00    +0.000 C 
ATOM      6  C   UNL     1      61.289  32.807  74.878  0.00  0.00    +0.000 C 
ATOM      7  C   UNL     1      59.985  34.894  74.717  0.00  0.00    +0.000 C 
ATOM      8  C   UNL     1      60.948  34.177  75.332  0.00  0.00    +0.000 C 
ATOM      9  C   UNL     1      59.161  32.610  71.785  0.00  0.00    +0.000 A 
ATOM     10  C   UNL     1      60.996  31.042  73.176  0.00  0.00    +0.000 A 
ATOM     11  C   UNL     1      59.495  31.344  71.312  0.00  0.00    +0.000 A 
ATOM     12  C   UNL     1      60.412  30.559  72.007  0.00  0.00    +0.000 A 
ENDROOT
BRANCH   7  13
ATOM     13  O   UNL     1      59.563  36.138  75.148  0.00  0.00    +0.000 OA
ATOM     14  C   UNL     1      58.538  35.987  76.099  0.00  0.00    +0.000 C 
ENDBRANCH   7  13
BRANCH   8  15
ATOM     15  O   UNL     1      61.610  34.605  76.469  0.00  0.00    +0.000 OA
ATOM     16  C   UNL     1      62.738  35.362  76.103  0.00  0.00    +0.000 C 
ENDBRANCH   8  15
TORSDOF 2
ENDMDL
MODEL 4
REMARK VINA RESULT:      -4.9     15.832     17.274
REMARK  Name = 3136_Dimethoxy.pdbqt.pdb
REMARK  2 active torsions:
REMARK  status: ('A' for Active; 'I' for Inactive)
REMARK    1  A    between atoms: C_7  and  O_13
REMARK    2  A    between atoms: C_8  and  O_15
REMARK                            x       y       z     vdW  Elec       q    Type
REMARK                         _______ _______ _______ _____ _____    ______ ____
ROOT
ATOM      1  O   UNL     1      45.818  28.079  85.929  0.00  0.00    +0.000 OA
ATOM      2  O   UNL     1      44.613  24.041  82.666  0.00  0.00    +0.000 OA
ATOM      3  C   UNL     1      46.493  26.061  84.958  0.00  0.00    +0.000 A 
ATOM      4  C   UNL     1      46.169  24.998  84.128  0.00  0.00    +0.000 A 
ATOM      5  C   UNL     1      45.550  27.168  85.157  0.00  0.00    +0.000 C 
ATOM      6  C   UNL     1      44.875  24.954  83.438  0.00  0.00    +0.000 C 
ATOM      7  C   UNL     1      44.266  27.135  84.414  0.00  0.00    +0.000 C 
ATOM      8  C   UNL     1      43.912  26.054  83.689  0.00  0.00    +0.000 C 
ATOM      9  C   UNL     1      47.724  26.087  85.612  0.00  0.00    +0.000 A 
ATOM     10  C   UNL     1      47.076  23.954  83.941  0.00  0.00    +0.000 A 
ATOM     11  C   UNL     1      48.630  25.046  85.429  0.00  0.00    +0.000 A 
ATOM     12  C   UNL     1      48.307  23.979  84.593  0.00  0.00    +0.000 A 
ENDROOT
BRANCH   7  13
ATOM     13  O   UNL     1      43.444  28.229  84.608  0.00  0.00    +0.000 OA
ATOM     14  C   UNL     1      43.435  29.026  83.448  0.00  0.00    +0.000 C 
ENDBRANCH   7  13
BRANCH   8  15
ATOM     15  O   UNL     1      42.692  25.929  83.048  0.00  0.00    +0.000 OA
ATOM     16  C   UNL     1      41.750  25.368  83.931  0.00  0.00    +0.000 C 
ENDBRANCH   8  15
TORSDOF 2
ENDMDL
MODEL 5
REMARK VINA RESULT:      -4.9     15.766     17.396
REMARK  Name = 3136_Dimethoxy.pdbqt.pdb
REMARK  2 active torsions:
REMARK  status: ('A' for Active; 'I' for Inactive)
REMARK    1  A    between atoms: C_7  and  O_13
REMARK    2  A    between atoms: C_8  and  O_15
REMARK                            x       y       z     vdW  Elec       q    Type
REMARK                         _______ _______ _______ _____ _____    ______ ____
ROOT
ATOM      1  O   UNL     1      44.525  23.790  82.722  0.00  0.00    +0.000 OA
ATOM      2  O   UNL     1      45.386  28.381  85.286  0.00  0.00    +0.000 OA
ATOM      3  C   UNL     1      45.960  25.058  84.065  0.00  0.00    +0.000 A 
ATOM      4  C   UNL     1      46.194  26.263  84.711  0.00  0.00    +0.000 A 
ATOM      5  C   UNL     1      44.708  24.834  83.333  0.00  0.00    +0.000 C 
ATOM      6  C   UNL     1      45.199  27.340  84.672  0.00  0.00    +0.000 C 
ATOM      7  C   UNL     1      43.689  25.913  83.343  0.00  0.00    +0.000 C 
ATOM      8  C   UNL     1      43.960  27.117  83.887  0.00  0.00    +0.000 C 
ATOM      9  C   UNL     1      46.917  24.045  84.105  0.00  0.00    +0.000 A 
ATOM     10  C   UNL     1      47.386  26.462  85.408  0.00  0.00    +0.000 A 
ATOM     11  C   UNL     1      48.108  24.242  84.799  0.00  0.00    +0.000 A 
ATOM     12  C   UNL     1      48.343  25.451  85.451  0.00  0.00    +0.000 A 
ENDROOT
BRANCH   7  13
ATOM     13  O   UNL     1      42.513  25.621  82.677  0.00  0.00    +0.000 OA
ATOM     14  C   UNL     1      41.618  24.982  83.555  0.00  0.00    +0.000 C 
ENDBRANCH   7  13
BRANCH   8  15
ATOM     15  O   UNL     1      43.085  28.188  83.847  0.00  0.00    +0.000 OA
ATOM     16  C   UNL     1      42.254  28.162  84.983  0.00  0.00    +0.000 C 
ENDBRANCH   8  15
TORSDOF 2
ENDMDL
MODEL 6
REMARK VINA RESULT:      -4.9      2.394      5.128
REMARK  Name = 3136_Dimethoxy.pdbqt.pdb
REMARK  2 active torsions:
REMARK  status: ('A' for Active; 'I' for Inactive)
REMARK    1  A    between atoms: C_7  and  O_13
REMARK    2  A    between atoms: C_8  and  O_15
REMARK                            x       y       z     vdW  Elec       q    Type
REMARK                         _______ _______ _______ _____ _____    ______ ____
ROOT
ATOM      1  O   UNL     1      57.898  37.252  74.463  0.00  0.00    +0.000 OA
ATOM      2  O   UNL     1      60.097  34.855  78.684  0.00  0.00    +0.000 OA
ATOM      3  C   UNL     1      57.573  36.245  76.549  0.00  0.00    +0.000 A 
ATOM      4  C   UNL     1      58.143  35.599  77.637  0.00  0.00    +0.000 A 
ATOM      5  C   UNL     1      58.409  36.727  75.444  0.00  0.00    +0.000 C 
ATOM      6  C   UNL     1      59.592  35.378  77.701  0.00  0.00    +0.000 C 
ATOM      7  C   UNL     1      59.877  36.542  75.546  0.00  0.00    +0.000 C 
ATOM      8  C   UNL     1      60.418  35.826  76.553  0.00  0.00    +0.000 C 
ATOM      9  C   UNL     1      56.194  36.443  76.498  0.00  0.00    +0.000 A 
ATOM     10  C   UNL     1      57.338  35.150  78.684  0.00  0.00    +0.000 A 
ATOM     11  C   UNL     1      55.388  35.995  77.542  0.00  0.00    +0.000 A 
ATOM     12  C   UNL     1      55.960  35.348  78.636  0.00  0.00    +0.000 A 
ENDROOT
BRANCH   7  13
ATOM     13  O   UNL     1      60.612  37.060  74.495  0.00  0.00    +0.000 OA
ATOM     14  C   UNL     1      61.142  38.311  74.861  0.00  0.00    +0.000 C 
ENDBRANCH   7  13
BRANCH   8  15
ATOM     15  O   UNL     1      61.769  35.544  76.652  0.00  0.00    +0.000 OA
ATOM     16  C   UNL     1      62.078  34.423  75.858  0.00  0.00    +0.000 C 
ENDBRANCH   8  15
TORSDOF 2
ENDMDL
MODEL 7
REMARK VINA RESULT:      -4.7     15.934     17.040
REMARK  Name = 3136_Dimethoxy.pdbqt.pdb
REMARK  2 active torsions:
REMARK  status: ('A' for Active; 'I' for Inactive)
REMARK    1  A    between atoms: C_7  and  O_13
REMARK    2  A    between atoms: C_8  and  O_15
REMARK                            x       y       z     vdW  Elec       q    Type
REMARK                         _______ _______ _______ _____ _____    ______ ____
ROOT
ATOM      1  O   UNL     1      43.562  25.498  83.171  0.00  0.00    +0.000 OA
ATOM      2  O   UNL     1      47.797  26.681  86.182  0.00  0.00    +0.000 OA
ATOM      3  C   UNL     1      45.660  24.839  83.967  0.00  0.00    +0.000 A 
ATOM      4  C   UNL     1      46.773  25.159  84.731  0.00  0.00    +0.000 A 
ATOM      5  C   UNL     1      44.520  25.759  83.886  0.00  0.00    +0.000 C 
ATOM      6  C   UNL     1      46.837  26.425  85.468  0.00  0.00    +0.000 C 
ATOM      7  C   UNL     1      44.577  27.013  84.676  0.00  0.00    +0.000 C 
ATOM      8  C   UNL     1      45.699  27.367  85.336  0.00  0.00    +0.000 C 
ATOM      9  C   UNL     1      45.615  23.634  83.266  0.00  0.00    +0.000 A 
ATOM     10  C   UNL     1      47.849  24.273  84.804  0.00  0.00    +0.000 A 
ATOM     11  C   UNL     1      46.688  22.749  83.337  0.00  0.00    +0.000 A 
ATOM     12  C   UNL     1      47.805  23.068  84.106  0.00  0.00    +0.000 A 
ENDROOT
BRANCH   7  13
ATOM     13  O   UNL     1      43.452  27.814  84.595  0.00  0.00    +0.000 OA
ATOM     14  C   UNL     1      43.620  28.763  83.570  0.00  0.00    +0.000 C 
ENDBRANCH   7  13
BRANCH   8  15
ATOM     15  O   UNL     1      45.841  28.564  86.015  0.00  0.00    +0.000 OA
ATOM     16  C   UNL     1      45.277  28.450  87.300  0.00  0.00    +0.000 C 
ENDBRANCH   8  15
TORSDOF 2
ENDMDL
MODEL 8
REMARK VINA RESULT:      -4.5      5.702      8.144
REMARK  Name = 3136_Dimethoxy.pdbqt.pdb
REMARK  2 active torsions:
REMARK  status: ('A' for Active; 'I' for Inactive)
REMARK    1  A    between atoms: C_7  and  O_13
REMARK    2  A    between atoms: C_8  and  O_15
REMARK                            x       y       z     vdW  Elec       q    Type
REMARK                         _______ _______ _______ _____ _____    ______ ____
ROOT
ATOM      1  O   UNL     1      59.672  35.672  70.226  0.00  0.00    +0.000 OA
ATOM      2  O   UNL     1      60.246  31.663  73.690  0.00  0.00    +0.000 OA
ATOM      3  C   UNL     1      59.791  33.361  70.564  0.00  0.00    +0.000 A 
ATOM      4  C   UNL     1      59.966  32.318  71.463  0.00  0.00    +0.000 A 
ATOM      5  C   UNL     1      59.775  34.752  71.028  0.00  0.00    +0.000 C 
ATOM      6  C   UNL     1      60.144  32.586  72.894  0.00  0.00    +0.000 C 
ATOM      7  C   UNL     1      59.907  35.005  72.483  0.00  0.00    +0.000 C 
ATOM      8  C   UNL     1      60.176  34.000  73.341  0.00  0.00    +0.000 C 
ATOM      9  C   UNL     1      59.629  33.092  69.205  0.00  0.00    +0.000 A 
ATOM     10  C   UNL     1      59.974  30.998  71.010  0.00  0.00    +0.000 A 
ATOM     11  C   UNL     1      59.638  31.775  68.751  0.00  0.00    +0.000 A 
ATOM     12  C   UNL     1      59.810  30.728  69.653  0.00  0.00    +0.000 A 
ENDROOT
BRANCH   7  13
ATOM     13  O   UNL     1      59.835  36.334  72.861  0.00  0.00    +0.000 OA
ATOM     14  C   UNL     1      58.520  36.644  73.254  0.00  0.00    +0.000 C 
ENDBRANCH   7  13
BRANCH   8  15
ATOM     15  O   UNL     1      60.397  34.187  74.694  0.00  0.00    +0.000 OA
ATOM     16  C   UNL     1      61.764  34.437  74.919  0.00  0.00    +0.000 C 
ENDBRANCH   8  15
TORSDOF 2
ENDMDL
MODEL 9
REMARK VINA RESULT:      -4.4     45.036     46.205
REMARK  Name = 3136_Dimethoxy.pdbqt.pdb
REMARK  2 active torsions:
REMARK  status: ('A' for Active; 'I' for Inactive)
REMARK    1  A    between atoms: C_7  and  O_13
REMARK    2  A    between atoms: C_8  and  O_15
REMARK                            x       y       z     vdW  Elec       q    Type
REMARK                         _______ _______ _______ _____ _____    ______ ____
ROOT
ATOM      1  O   UNL     1      19.783   8.507  82.919  0.00  0.00    +0.000 OA
ATOM      2  O   UNL     1      22.223   8.957  87.635  0.00  0.00    +0.000 OA
ATOM      3  C   UNL     1      20.714   7.419  84.768  0.00  0.00    +0.000 A 
ATOM      4  C   UNL     1      21.371   7.536  85.984  0.00  0.00    +0.000 A 
ATOM      5  C   UNL     1      20.317   8.614  84.015  0.00  0.00    +0.000 C 
ATOM      6  C   UNL     1      21.690   8.856  86.539  0.00  0.00    +0.000 C 
ATOM      7  C   UNL     1      20.601   9.942  84.611  0.00  0.00    +0.000 C 
ATOM      8  C   UNL     1      21.328  10.053  85.742  0.00  0.00    +0.000 C 
ATOM      9  C   UNL     1      20.422   6.157  84.250  0.00  0.00    +0.000 A 
ATOM     10  C   UNL     1      21.738   6.392  86.694  0.00  0.00    +0.000 A 
ATOM     11  C   UNL     1      20.789   5.014  84.956  0.00  0.00    +0.000 A 
ATOM     12  C   UNL     1      21.447   5.131  86.178  0.00  0.00    +0.000 A 
ENDROOT
BRANCH   7  13
ATOM     13  O   UNL     1      20.160  11.026  83.875  0.00  0.00    +0.000 OA
ATOM     14  C   UNL     1      21.120  11.360  82.902  0.00  0.00    +0.000 C 
ENDBRANCH   7  13
BRANCH   8  15
ATOM     15  O   UNL     1      21.700  11.266  86.296  0.00  0.00    +0.000 OA
ATOM     16  C   UNL     1      23.021  11.572  85.920  0.00  0.00    +0.000 C 
ENDBRANCH   8  15
TORSDOF 2
ENDMDL
