MODEL 1
REMARK VINA RESULT:      -5.3      0.000      0.000
REMARK  Name = 326_Cuminaldehyde.pdb
REMARK  1 active torsions:
REMARK  status: ('A' for Active; 'I' for Inactive)
REMARK    1  A    between atoms: C_1  and  C_7
REMARK                            x       y       z     vdW  Elec       q    Type
REMARK                         _______ _______ _______ _____ _____    ______ ____
ROOT
ATOM      1  C   UNL     1      56.935  35.155  80.194  0.00  0.00    +0.000 C 
ATOM      2  C   UNL     1      57.138  36.477  79.792  0.00  0.00    +0.000 C 
ATOM      3  C   UNL     1      56.071  34.338  79.460  0.00  0.00    +0.000 C 
ATOM      4  C   UNL     1      56.486  36.977  78.666  0.00  0.00    +0.000 C 
ATOM      5  C   UNL     1      55.418  34.838  78.334  0.00  0.00    +0.000 C 
ATOM      6  C   UNL     1      55.626  36.158  77.939  0.00  0.00    +0.000 C 
ATOM      7  O   UNL     1      54.407  37.091  75.838  0.00  0.00    +0.000 OA
ATOM      8  C   UNL     1      54.958  36.669  76.788  0.00  0.00    +0.000 C 
ENDROOT
BRANCH   1   9
ATOM      9  C   UNL     1      57.619  34.631  81.372  0.00  0.00    +0.000 C 
ATOM     10  C   UNL     1      57.778  35.458  82.624  0.00  0.00    +0.000 C 
ATOM     11  C   UNL     1      58.198  33.238  81.393  0.00  0.00    +0.000 C 
ENDBRANCH   1   9
TORSDOF 1
ENDMDL
MODEL 2
REMARK VINA RESULT:      -5.1      0.675      1.936
REMARK  Name = 326_Cuminaldehyde.pdb
REMARK  1 active torsions:
REMARK  status: ('A' for Active; 'I' for Inactive)
REMARK    1  A    between atoms: C_1  and  C_7
REMARK                            x       y       z     vdW  Elec       q    Type
REMARK                         _______ _______ _______ _____ _____    ______ ____
ROOT
ATOM      1  C   UNL     1      56.746  35.306  79.710  0.00  0.00    +0.000 C 
ATOM      2  C   UNL     1      56.068  34.427  78.862  0.00  0.00    +0.000 C 
ATOM      3  C   UNL     1      56.922  36.636  79.321  0.00  0.00    +0.000 C 
ATOM      4  C   UNL     1      55.570  34.873  77.639  0.00  0.00    +0.000 C 
ATOM      5  C   UNL     1      56.426  37.083  78.098  0.00  0.00    +0.000 C 
ATOM      6  C   UNL     1      55.750  36.200  77.258  0.00  0.00    +0.000 C 
ATOM      7  O   UNL     1      54.823  37.034  74.974  0.00  0.00    +0.000 OA
ATOM      8  C   UNL     1      55.242  36.657  76.007  0.00  0.00    +0.000 C 
ENDROOT
BRANCH   1   9
ATOM      9  C   UNL     1      57.266  34.838  80.991  0.00  0.00    +0.000 C 
ATOM     10  C   UNL     1      57.626  33.391  81.214  0.00  0.00    +0.000 C 
ATOM     11  C   UNL     1      57.467  35.781  82.151  0.00  0.00    +0.000 C 
ENDBRANCH   1   9
TORSDOF 1
ENDMDL
MODEL 3
REMARK VINA RESULT:      -4.9      2.877      4.899
REMARK  Name = 326_Cuminaldehyde.pdb
REMARK  1 active torsions:
REMARK  status: ('A' for Active; 'I' for Inactive)
REMARK    1  A    between atoms: C_1  and  C_7
REMARK                            x       y       z     vdW  Elec       q    Type
REMARK                         _______ _______ _______ _____ _____    ______ ____
ROOT
ATOM      1  C   UNL     1      56.419  35.952  77.758  0.00  0.00    +0.000 C 
ATOM      2  C   UNL     1      57.801  35.748  77.808  0.00  0.00    +0.000 C 
ATOM      3  C   UNL     1      55.590  35.260  78.643  0.00  0.00    +0.000 C 
ATOM      4  C   UNL     1      58.347  34.862  78.735  0.00  0.00    +0.000 C 
ATOM      5  C   UNL     1      56.136  34.373  79.570  0.00  0.00    +0.000 C 
ATOM      6  C   UNL     1      57.514  34.176  79.614  0.00  0.00    +0.000 C 
ATOM      7  O   UNL     1      58.533  32.520  81.344  0.00  0.00    +0.000 OA
ATOM      8  C   UNL     1      58.073  33.268  80.562  0.00  0.00    +0.000 C 
ENDROOT
BRANCH   1   9
ATOM      9  C   UNL     1      55.848  36.881  76.787  0.00  0.00    +0.000 C 
ATOM     10  C   UNL     1      55.116  38.125  77.224  0.00  0.00    +0.000 C 
ATOM     11  C   UNL     1      55.963  36.638  75.303  0.00  0.00    +0.000 C 
ENDBRANCH   1   9
TORSDOF 1
ENDMDL
MODEL 4
REMARK VINA RESULT:      -4.7      1.978      2.669
REMARK  Name = 326_Cuminaldehyde.pdb
REMARK  1 active torsions:
REMARK  status: ('A' for Active; 'I' for Inactive)
REMARK    1  A    between atoms: C_1  and  C_7
REMARK                            x       y       z     vdW  Elec       q    Type
REMARK                         _______ _______ _______ _____ _____    ______ ____
ROOT
ATOM      1  C   UNL     1      57.242  36.947  78.933  0.00  0.00    +0.000 C 
ATOM      2  C   UNL     1      58.126  37.796  78.262  0.00  0.00    +0.000 C 
ATOM      3  C   UNL     1      55.913  36.867  78.512  0.00  0.00    +0.000 C 
ATOM      4  C   UNL     1      57.685  38.555  77.179  0.00  0.00    +0.000 C 
ATOM      5  C   UNL     1      55.471  37.626  77.430  0.00  0.00    +0.000 C 
ATOM      6  C   UNL     1      56.358  38.469  76.764  0.00  0.00    +0.000 C 
ATOM      7  O   UNL     1      55.533  39.887  74.744  0.00  0.00    +0.000 OA
ATOM      8  C   UNL     1      55.906  39.246  75.657  0.00  0.00    +0.000 C 
ENDROOT
BRANCH   1   9
ATOM      9  C   UNL     1      57.705  36.152  80.067  0.00  0.00    +0.000 C 
ATOM     10  C   UNL     1      59.153  35.754  80.211  0.00  0.00    +0.000 C 
ATOM     11  C   UNL     1      56.757  35.692  81.145  0.00  0.00    +0.000 C 
ENDBRANCH   1   9
TORSDOF 1
ENDMDL
MODEL 5
REMARK VINA RESULT:      -4.5      3.539      4.659
REMARK  Name = 326_Cuminaldehyde.pdb
REMARK  1 active torsions:
REMARK  status: ('A' for Active; 'I' for Inactive)
REMARK    1  A    between atoms: C_1  and  C_7
REMARK                            x       y       z     vdW  Elec       q    Type
REMARK                         _______ _______ _______ _____ _____    ______ ____
ROOT
ATOM      1  C   UNL     1      59.237  35.886  78.013  0.00  0.00    +0.000 C 
ATOM      2  C   UNL     1      58.158  36.771  77.941  0.00  0.00    +0.000 C 
ATOM      3  C   UNL     1      59.474  35.187  79.199  0.00  0.00    +0.000 C 
ATOM      4  C   UNL     1      57.324  36.953  79.043  0.00  0.00    +0.000 C 
ATOM      5  C   UNL     1      58.641  35.370  80.302  0.00  0.00    +0.000 C 
ATOM      6  C   UNL     1      57.566  36.253  80.221  0.00  0.00    +0.000 C 
ATOM      7  O   UNL     1      56.011  36.594  82.279  0.00  0.00    +0.000 OA
ATOM      8  C   UNL     1      56.714  36.440  81.349  0.00  0.00    +0.000 C 
ENDROOT
BRANCH   1   9
ATOM      9  C   UNL     1      60.110  35.695  76.859  0.00  0.00    +0.000 C 
ATOM     10  C   UNL     1      59.554  35.578  75.462  0.00  0.00    +0.000 C 
ATOM     11  C   UNL     1      61.608  35.605  77.011  0.00  0.00    +0.000 C 
ENDBRANCH   1   9
TORSDOF 1
ENDMDL
MODEL 6
REMARK VINA RESULT:      -4.5      3.046      4.706
REMARK  Name = 326_Cuminaldehyde.pdb
REMARK  1 active torsions:
REMARK  status: ('A' for Active; 'I' for Inactive)
REMARK    1  A    between atoms: C_1  and  C_7
REMARK                            x       y       z     vdW  Elec       q    Type
REMARK                         _______ _______ _______ _____ _____    ______ ____
ROOT
ATOM      1  C   UNL     1      57.747  36.097  77.320  0.00  0.00    +0.000 C 
ATOM      2  C   UNL     1      58.607  35.777  78.373  0.00  0.00    +0.000 C 
ATOM      3  C   UNL     1      56.451  36.538  77.600  0.00  0.00    +0.000 C 
ATOM      4  C   UNL     1      58.177  35.899  79.694  0.00  0.00    +0.000 C 
ATOM      5  C   UNL     1      56.020  36.660  78.920  0.00  0.00    +0.000 C 
ATOM      6  C   UNL     1      56.884  36.340  79.965  0.00  0.00    +0.000 C 
ATOM      7  O   UNL     1      56.080  36.566  82.430  0.00  0.00    +0.000 OA
ATOM      8  C   UNL     1      56.443  36.464  81.316  0.00  0.00    +0.000 C 
ENDROOT
BRANCH   1   9
ATOM      9  C   UNL     1      58.198  35.970  75.937  0.00  0.00    +0.000 C 
ATOM     10  C   UNL     1      57.218  35.860  74.796  0.00  0.00    +0.000 C 
ATOM     11  C   UNL     1      59.665  35.943  75.587  0.00  0.00    +0.000 C 
ENDBRANCH   1   9
TORSDOF 1
ENDMDL
MODEL 7
REMARK VINA RESULT:      -4.5      2.974      5.403
REMARK  Name = 326_Cuminaldehyde.pdb
REMARK  1 active torsions:
REMARK  status: ('A' for Active; 'I' for Inactive)
REMARK    1  A    between atoms: C_1  and  C_7
REMARK                            x       y       z     vdW  Elec       q    Type
REMARK                         _______ _______ _______ _____ _____    ______ ____
ROOT
ATOM      1  C   UNL     1      56.948  38.127  77.037  0.00  0.00    +0.000 C 
ATOM      2  C   UNL     1      55.713  37.602  77.427  0.00  0.00    +0.000 C 
ATOM      3  C   UNL     1      58.070  37.912  77.841  0.00  0.00    +0.000 C 
ATOM      4  C   UNL     1      55.602  36.869  78.607  0.00  0.00    +0.000 C 
ATOM      5  C   UNL     1      57.960  37.180  79.022  0.00  0.00    +0.000 C 
ATOM      6  C   UNL     1      56.725  36.660  79.403  0.00  0.00    +0.000 C 
ATOM      7  O   UNL     1      56.519  35.293  81.608  0.00  0.00    +0.000 OA
ATOM      8  C   UNL     1      56.612  35.911  80.612  0.00  0.00    +0.000 C 
ENDROOT
BRANCH   1   9
ATOM      9  C   UNL     1      57.064  38.893  75.800  0.00  0.00    +0.000 C 
ATOM     10  C   UNL     1      55.909  39.703  75.264  0.00  0.00    +0.000 C 
ATOM     11  C   UNL     1      58.343  38.911  75.001  0.00  0.00    +0.000 C 
ENDBRANCH   1   9
TORSDOF 1
ENDMDL
MODEL 8
REMARK VINA RESULT:      -4.4      3.882      4.680
REMARK  Name = 326_Cuminaldehyde.pdb
REMARK  1 active torsions:
REMARK  status: ('A' for Active; 'I' for Inactive)
REMARK    1  A    between atoms: C_1  and  C_7
REMARK                            x       y       z     vdW  Elec       q    Type
REMARK                         _______ _______ _______ _____ _____    ______ ____
ROOT
ATOM      1  C   UNL     1      59.350  35.561  75.985  0.00  0.00    +0.000 C 
ATOM      2  C   UNL     1      58.660  35.777  77.181  0.00  0.00    +0.000 C 
ATOM      3  C   UNL     1      58.679  35.707  74.769  0.00  0.00    +0.000 C 
ATOM      4  C   UNL     1      57.314  36.139  77.160  0.00  0.00    +0.000 C 
ATOM      5  C   UNL     1      57.333  36.067  74.747  0.00  0.00    +0.000 C 
ATOM      6  C   UNL     1      56.652  36.283  75.943  0.00  0.00    +0.000 C 
ATOM      7  O   UNL     1      54.139  36.955  75.903  0.00  0.00    +0.000 OA
ATOM      8  C   UNL     1      55.275  36.651  75.921  0.00  0.00    +0.000 C 
ENDROOT
BRANCH   1   9
ATOM      9  C   UNL     1      60.760  35.184  76.008  0.00  0.00    +0.000 C 
ATOM     10  C   UNL     1      61.264  33.974  75.261  0.00  0.00    +0.000 C 
ATOM     11  C   UNL     1      61.778  35.987  76.779  0.00  0.00    +0.000 C 
ENDBRANCH   1   9
TORSDOF 1
ENDMDL
MODEL 9
REMARK VINA RESULT:      -4.3     54.745     55.615
REMARK  Name = 326_Cuminaldehyde.pdb
REMARK  1 active torsions:
REMARK  status: ('A' for Active; 'I' for Inactive)
REMARK    1  A    between atoms: C_1  and  C_7
REMARK                            x       y       z     vdW  Elec       q    Type
REMARK                         _______ _______ _______ _____ _____    ______ ____
ROOT
ATOM      1  C   UNL     1      13.486   6.858  98.487  0.00  0.00    +0.000 C 
ATOM      2  C   UNL     1      14.053   6.566  97.243  0.00  0.00    +0.000 C 
ATOM      3  C   UNL     1      12.926   5.828  99.246  0.00  0.00    +0.000 C 
ATOM      4  C   UNL     1      14.061   5.257  96.765  0.00  0.00    +0.000 C 
ATOM      5  C   UNL     1      12.933   4.519  98.768  0.00  0.00    +0.000 C 
ATOM      6  C   UNL     1      13.501   4.235  97.527  0.00  0.00    +0.000 C 
ATOM      7  O   UNL     1      13.514   1.791  96.635  0.00  0.00    +0.000 OA
ATOM      8  C   UNL     1      13.508   2.896  97.038  0.00  0.00    +0.000 C 
ENDROOT
BRANCH   1   9
ATOM      9  C   UNL     1      13.479   8.230  98.988  0.00  0.00    +0.000 C 
ATOM     10  C   UNL     1      12.448   8.699  99.983  0.00  0.00    +0.000 C 
ATOM     11  C   UNL     1      14.503   9.239  98.533  0.00  0.00    +0.000 C 
ENDBRANCH   1   9
TORSDOF 1
ENDMDL
