MODEL 1
REMARK VINA RESULT:      -6.1      0.000      0.000
REMARK  Name = 3363_5FluorouracilDeoxyriboside.pdbqt.pdb
REMARK  4 active torsions:
REMARK  status: ('A' for Active; 'I' for Inactive)
REMARK    1  A    between atoms: N_4  and  C1*_13
REMARK    2  A    between atoms: C3*_12  and  O3*_16
REMARK    3  A    between atoms: C4*_15  and  C5*_18
REMARK    4  A    between atoms: C5*_18  and  O5*_19
REMARK                            x       y       z     vdW  Elec       q    Type
REMARK                         _______ _______ _______ _____ _____    ______ ____
ROOT
ATOM      1  F   UNL     1      58.869  36.330  80.092  0.00  0.00    +0.000 F 
ATOM      2  O   UNL     1      54.877  34.398  76.955  0.00  0.00    +0.000 OA
ATOM      3  O   UNL     1      56.993  34.430  81.027  0.00  0.00    +0.000 OA
ATOM      4  N   UNL     1      56.600  35.990  77.297  0.00  0.00    +0.000 N 
ATOM      5  N   UNL     1      55.914  34.516  78.995  0.00  0.00    +0.000 N 
ATOM      6  C   UNL     1      55.723  34.939  77.657  0.00  0.00    +0.000 C 
ATOM      7  C   UNL     1      57.459  36.425  78.241  0.00  0.00    +0.000 C 
ATOM      8  C   UNL     1      57.701  36.107  79.468  0.00  0.00    +0.000 C 
ATOM      9  C   UNL     1      56.859  34.957  79.930  0.00  0.00    +0.000 C 
ATOM     10  H   UNL     1      55.336  33.739  79.285  0.00  0.00    +0.000 HD
ENDROOT
BRANCH   4  13
ATOM     11  O4* UNL     1      57.667  36.330  75.153  0.00  0.00    +0.000 OA
ATOM     12  C3* UNL     1      56.138  37.782  74.192  0.00  0.00    +0.000 A 
ATOM     13  C1* UNL     1      56.629  36.571  76.061  0.00  0.00    +0.000 A 
ATOM     14  C2* UNL     1      55.690  37.446  75.482  0.00  0.00    +0.000 A 
ATOM     15  C4* UNL     1      57.377  37.069  73.999  0.00  0.00    +0.000 A 
BRANCH  12  16
ATOM     16  O3* UNL     1      55.298  38.068  73.152  0.00  0.00    +0.000 OA
ATOM     17  H3* UNL     1      54.612  37.387  73.036  0.00  0.00    +0.000 HD
ENDBRANCH  12  16
BRANCH  15  18
ATOM     18  C5* UNL     1      58.103  36.917  72.801  0.00  0.00    +0.000 C 
BRANCH  18  19
ATOM     19  O5* UNL     1      58.777  36.790  71.663  0.00  0.00    +0.000 OA
ATOM     20  H5* UNL     1      59.460  36.101  71.743  0.00  0.00    +0.000 HD
ENDBRANCH  18  19
ENDBRANCH  15  18
ENDBRANCH   4  13
TORSDOF 4
ENDMDL
MODEL 2
REMARK VINA RESULT:      -5.9      1.630      2.038
REMARK  Name = 3363_5FluorouracilDeoxyriboside.pdbqt.pdb
REMARK  4 active torsions:
REMARK  status: ('A' for Active; 'I' for Inactive)
REMARK    1  A    between atoms: N_4  and  C1*_13
REMARK    2  A    between atoms: C3*_12  and  O3*_16
REMARK    3  A    between atoms: C4*_15  and  C5*_18
REMARK    4  A    between atoms: C5*_18  and  O5*_19
REMARK                            x       y       z     vdW  Elec       q    Type
REMARK                         _______ _______ _______ _____ _____    ______ ____
ROOT
ATOM      1  F   UNL     1      60.068  34.701  79.668  0.00  0.00    +0.000 F 
ATOM      2  O   UNL     1      54.961  34.818  77.821  0.00  0.00    +0.000 OA
ATOM      3  O   UNL     1      58.098  32.870  80.546  0.00  0.00    +0.000 OA
ATOM      4  N   UNL     1      57.079  35.868  78.000  0.00  0.00    +0.000 N 
ATOM      5  N   UNL     1      56.539  33.938  79.229  0.00  0.00    +0.000 N 
ATOM      6  C   UNL     1      56.090  34.897  78.289  0.00  0.00    +0.000 C 
ATOM      7  C   UNL     1      58.262  35.749  78.636  0.00  0.00    +0.000 C 
ATOM      8  C   UNL     1      58.754  34.923  79.496  0.00  0.00    +0.000 C 
ATOM      9  C   UNL     1      57.801  33.816  79.827  0.00  0.00    +0.000 C 
ATOM     10  H   UNL     1      55.881  33.201  79.437  0.00  0.00    +0.000 HD
ENDROOT
BRANCH   4  13
ATOM     11  O4* UNL     1      56.542  36.675  75.783  0.00  0.00    +0.000 OA
ATOM     12  C3* UNL     1      56.748  38.954  76.148  0.00  0.00    +0.000 A 
ATOM     13  C1* UNL     1      56.905  36.896  77.118  0.00  0.00    +0.000 A 
ATOM     14  C2* UNL     1      57.024  38.280  77.351  0.00  0.00    +0.000 A 
ATOM     15  C4* UNL     1      56.442  37.933  75.176  0.00  0.00    +0.000 A 
BRANCH  12  16
ATOM     16  O3* UNL     1      56.186  40.198  76.092  0.00  0.00    +0.000 OA
ATOM     17  H3* UNL     1      55.223  40.173  76.239  0.00  0.00    +0.000 HD
ENDBRANCH  12  16
BRANCH  15  18
ATOM     18  C5* UNL     1      55.907  38.109  73.885  0.00  0.00    +0.000 C 
BRANCH  18  19
ATOM     19  O5* UNL     1      55.419  38.268  72.659  0.00  0.00    +0.000 OA
ATOM     20  H5* UNL     1      56.128  38.505  72.036  0.00  0.00    +0.000 HD
ENDBRANCH  18  19
ENDBRANCH  15  18
ENDBRANCH   4  13
TORSDOF 4
ENDMDL
MODEL 3
REMARK VINA RESULT:      -5.2     16.016     17.639
REMARK  Name = 3363_5FluorouracilDeoxyriboside.pdbqt.pdb
REMARK  4 active torsions:
REMARK  status: ('A' for Active; 'I' for Inactive)
REMARK    1  A    between atoms: N_4  and  C1*_13
REMARK    2  A    between atoms: C3*_12  and  O3*_16
REMARK    3  A    between atoms: C4*_15  and  C5*_18
REMARK    4  A    between atoms: C5*_18  and  O5*_19
REMARK                            x       y       z     vdW  Elec       q    Type
REMARK                         _______ _______ _______ _____ _____    ______ ____
ROOT
ATOM      1  F   UNL     1      54.786  16.278  75.003  0.00  0.00    +0.000 F 
ATOM      2  O   UNL     1      50.083  18.935  75.586  0.00  0.00    +0.000 OA
ATOM      3  O   UNL     1      52.286  15.070  74.459  0.00  0.00    +0.000 OA
ATOM      4  N   UNL     1      52.422  18.842  75.963  0.00  0.00    +0.000 N 
ATOM      5  N   UNL     1      51.223  17.003  75.119  0.00  0.00    +0.000 N 
ATOM      6  C   UNL     1      51.156  18.343  75.573  0.00  0.00    +0.000 C 
ATOM      7  C   UNL     1      53.473  18.003  75.854  0.00  0.00    +0.000 C 
ATOM      8  C   UNL     1      53.629  16.785  75.461  0.00  0.00    +0.000 C 
ATOM      9  C   UNL     1      52.349  16.182  74.968  0.00  0.00    +0.000 C 
ATOM     10  H   UNL     1      50.349  16.618  74.792  0.00  0.00    +0.000 HD
ENDROOT
BRANCH   4  13
ATOM     11  O4* UNL     1      53.022  21.154  75.579  0.00  0.00    +0.000 OA
ATOM     12  C3* UNL     1      52.820  21.964  77.741  0.00  0.00    +0.000 A 
ATOM     13  C1* UNL     1      52.635  20.109  76.428  0.00  0.00    +0.000 A 
ATOM     14  C2* UNL     1      52.501  20.594  77.742  0.00  0.00    +0.000 A 
ATOM     15  C4* UNL     1      53.140  22.300  76.375  0.00  0.00    +0.000 A 
BRANCH  12  16
ATOM     16  O3* UNL     1      52.261  22.870  78.597  0.00  0.00    +0.000 OA
ATOM     17  H3* UNL     1      51.571  23.406  78.166  0.00  0.00    +0.000 HD
ENDBRANCH  12  16
BRANCH  15  18
ATOM     18  C5* UNL     1      53.324  23.585  75.827  0.00  0.00    +0.000 C 
BRANCH  18  19
ATOM     19  O5* UNL     1      53.518  24.794  75.313  0.00  0.00    +0.000 OA
ATOM     20  H5* UNL     1      54.014  24.737  74.478  0.00  0.00    +0.000 HD
ENDBRANCH  18  19
ENDBRANCH  15  18
ENDBRANCH   4  13
TORSDOF 4
ENDMDL
MODEL 4
REMARK VINA RESULT:      -5.1     54.294     56.407
REMARK  Name = 3363_5FluorouracilDeoxyriboside.pdbqt.pdb
REMARK  4 active torsions:
REMARK  status: ('A' for Active; 'I' for Inactive)
REMARK    1  A    between atoms: N_4  and  C1*_13
REMARK    2  A    between atoms: C3*_12  and  O3*_16
REMARK    3  A    between atoms: C4*_15  and  C5*_18
REMARK    4  A    between atoms: C5*_18  and  O5*_19
REMARK                            x       y       z     vdW  Elec       q    Type
REMARK                         _______ _______ _______ _____ _____    ______ ____
ROOT
ATOM      1  F   UNL     1      12.796   3.132  99.369  0.00  0.00    +0.000 F 
ATOM      2  O   UNL     1      14.955   6.916  96.124  0.00  0.00    +0.000 OA
ATOM      3  O   UNL     1      13.497   2.600  96.680  0.00  0.00    +0.000 OA
ATOM      4  N   UNL     1      13.867   6.366  98.157  0.00  0.00    +0.000 N 
ATOM      5  N   UNL     1      14.133   4.799  96.425  0.00  0.00    +0.000 N 
ATOM      6  C   UNL     1      14.369   6.127  96.855  0.00  0.00    +0.000 C 
ATOM      7  C   UNL     1      13.257   5.337  98.780  0.00  0.00    +0.000 C 
ATOM      8  C   UNL     1      12.998   4.111  98.473  0.00  0.00    +0.000 C 
ATOM      9  C   UNL     1      13.544   3.739  97.128  0.00  0.00    +0.000 C 
ATOM     10  H   UNL     1      14.509   4.569  95.517  0.00  0.00    +0.000 HD
ENDROOT
BRANCH   4  13
ATOM     11  O4* UNL     1      15.190   8.250  98.903  0.00  0.00    +0.000 OA
ATOM     12  C3* UNL     1      13.542   9.471  99.979  0.00  0.00    +0.000 A 
ATOM     13  C1* UNL     1      13.973   7.562  98.809  0.00  0.00    +0.000 A 
ATOM     14  C2* UNL     1      12.964   8.302  99.454  0.00  0.00    +0.000 A 
ATOM     15  C4* UNL     1      14.938   9.425  99.619  0.00  0.00    +0.000 A 
BRANCH  12  16
ATOM     16  O3* UNL     1      12.867  10.652 100.113  0.00  0.00    +0.000 OA
ATOM     17  H3* UNL     1      13.372  11.406  99.758  0.00  0.00    +0.000 HD
ENDBRANCH  12  16
BRANCH  15  18
ATOM     18  C5* UNL     1      15.890  10.457  99.739  0.00  0.00    +0.000 C 
BRANCH  18  19
ATOM     19  O5* UNL     1      16.775  11.443  99.838  0.00  0.00    +0.000 OA
ATOM     20  H5* UNL     1      16.366  12.296  99.612  0.00  0.00    +0.000 HD
ENDBRANCH  18  19
ENDBRANCH  15  18
ENDBRANCH   4  13
TORSDOF 4
ENDMDL
MODEL 5
REMARK VINA RESULT:      -4.8     17.075     18.406
REMARK  Name = 3363_5FluorouracilDeoxyriboside.pdbqt.pdb
REMARK  4 active torsions:
REMARK  status: ('A' for Active; 'I' for Inactive)
REMARK    1  A    between atoms: N_4  and  C1*_13
REMARK    2  A    between atoms: C3*_12  and  O3*_16
REMARK    3  A    between atoms: C4*_15  and  C5*_18
REMARK    4  A    between atoms: C5*_18  and  O5*_19
REMARK                            x       y       z     vdW  Elec       q    Type
REMARK                         _______ _______ _______ _____ _____    ______ ____
ROOT
ATOM      1  F   UNL     1      48.850  25.900  84.875  0.00  0.00    +0.000 F 
ATOM      2  O   UNL     1      44.090  23.448  83.960  0.00  0.00    +0.000 OA
ATOM      3  O   UNL     1      48.648  23.123  84.378  0.00  0.00    +0.000 OA
ATOM      4  N   UNL     1      45.278  25.372  84.671  0.00  0.00    +0.000 N 
ATOM      5  N   UNL     1      46.357  23.323  84.266  0.00  0.00    +0.000 N 
ATOM      6  C   UNL     1      45.125  24.021  84.277  0.00  0.00    +0.000 C 
ATOM      7  C   UNL     1      46.526  25.788  84.970  0.00  0.00    +0.000 C 
ATOM      8  C   UNL     1      47.690  25.233  84.990  0.00  0.00    +0.000 C 
ATOM      9  C   UNL     1      47.645  23.808  84.530  0.00  0.00    +0.000 C 
ATOM     10  H   UNL     1      46.303  22.364  83.952  0.00  0.00    +0.000 HD
ENDROOT
BRANCH   4  13
ATOM     11  O4* UNL     1      43.377  26.292  85.851  0.00  0.00    +0.000 OA
ATOM     12  C3* UNL     1      42.763  27.948  84.352  0.00  0.00    +0.000 A 
ATOM     13  C1* UNL     1      44.248  26.265  84.755  0.00  0.00    +0.000 A 
ATOM     14  C2* UNL     1      43.887  27.275  83.842  0.00  0.00    +0.000 A 
ATOM     15  C4* UNL     1      42.459  27.322  85.616  0.00  0.00    +0.000 A 
BRANCH  12  16
ATOM     16  O3* UNL     1      42.504  29.270  84.117  0.00  0.00    +0.000 OA
ATOM     17  H3* UNL     1      42.971  29.852  84.744  0.00  0.00    +0.000 HD
ENDBRANCH  12  16
BRANCH  15  18
ATOM     18  C5* UNL     1      41.553  27.768  86.599  0.00  0.00    +0.000 C 
BRANCH  18  19
ATOM     19  O5* UNL     1      40.690  28.169  87.526  0.00  0.00    +0.000 OA
ATOM     20  H5* UNL     1      39.944  27.548  87.592  0.00  0.00    +0.000 HD
ENDBRANCH  18  19
ENDBRANCH  15  18
ENDBRANCH   4  13
TORSDOF 4
ENDMDL
MODEL 6
REMARK VINA RESULT:      -4.6      4.125      7.152
REMARK  Name = 3363_5FluorouracilDeoxyriboside.pdbqt.pdb
REMARK  4 active torsions:
REMARK  status: ('A' for Active; 'I' for Inactive)
REMARK    1  A    between atoms: N_4  and  C1*_13
REMARK    2  A    between atoms: C3*_12  and  O3*_16
REMARK    3  A    between atoms: C4*_15  and  C5*_18
REMARK    4  A    between atoms: C5*_18  and  O5*_19
REMARK                            x       y       z     vdW  Elec       q    Type
REMARK                         _______ _______ _______ _____ _____    ______ ____
ROOT
ATOM      1  F   UNL     1      56.788  42.495  72.230  0.00  0.00    +0.000 F 
ATOM      2  O   UNL     1      54.190  37.761  71.642  0.00  0.00    +0.000 OA
ATOM      3  O   UNL     1      54.939  42.032  70.140  0.00  0.00    +0.000 OA
ATOM      4  N   UNL     1      55.913  39.015  72.681  0.00  0.00    +0.000 N 
ATOM      5  N   UNL     1      54.665  39.869  70.880  0.00  0.00    +0.000 N 
ATOM      6  C   UNL     1      54.876  38.770  71.748  0.00  0.00    +0.000 C 
ATOM      7  C   UNL     1      56.530  40.213  72.613  0.00  0.00    +0.000 C 
ATOM      8  C   UNL     1      56.409  41.258  71.868  0.00  0.00    +0.000 C 
ATOM      9  C   UNL     1      55.292  41.122  70.879  0.00  0.00    +0.000 C 
ATOM     10  H   UNL     1      53.907  39.755  70.223  0.00  0.00    +0.000 HD
ENDROOT
BRANCH   4  13
ATOM     11  O4* UNL     1      55.386  37.411  74.413  0.00  0.00    +0.000 OA
ATOM     12  C3* UNL     1      57.533  36.792  75.025  0.00  0.00    +0.000 A 
ATOM     13  C1* UNL     1      56.309  38.122  73.635  0.00  0.00    +0.000 A 
ATOM     14  C2* UNL     1      57.617  37.746  73.996  0.00  0.00    +0.000 A 
ATOM     15  C4* UNL     1      56.126  36.590  75.271  0.00  0.00    +0.000 A 
BRANCH  12  16
ATOM     16  O3* UNL     1      58.452  35.797  75.208  0.00  0.00    +0.000 OA
ATOM     17  H3* UNL     1      58.470  35.172  74.461  0.00  0.00    +0.000 HD
ENDBRANCH  12  16
BRANCH  15  18
ATOM     18  C5* UNL     1      55.529  35.589  76.063  0.00  0.00    +0.000 C 
BRANCH  18  19
ATOM     19  O5* UNL     1      54.984  34.642  76.819  0.00  0.00    +0.000 OA
ATOM     20  H5* UNL     1      54.082  34.892  77.085  0.00  0.00    +0.000 HD
ENDBRANCH  18  19
ENDBRANCH  15  18
ENDBRANCH   4  13
TORSDOF 4
ENDMDL
MODEL 7
REMARK VINA RESULT:      -4.6     44.954     45.925
REMARK  Name = 3363_5FluorouracilDeoxyriboside.pdbqt.pdb
REMARK  4 active torsions:
REMARK  status: ('A' for Active; 'I' for Inactive)
REMARK    1  A    between atoms: N_4  and  C1*_13
REMARK    2  A    between atoms: C3*_12  and  O3*_16
REMARK    3  A    between atoms: C4*_15  and  C5*_18
REMARK    4  A    between atoms: C5*_18  and  O5*_19
REMARK                            x       y       z     vdW  Elec       q    Type
REMARK                         _______ _______ _______ _____ _____    ______ ____
ROOT
ATOM      1  F   UNL     1      19.088  14.190  81.760  0.00  0.00    +0.000 F 
ATOM      2  O   UNL     1      15.393  13.072  85.581  0.00  0.00    +0.000 OA
ATOM      3  O   UNL     1      17.368  11.951  81.593  0.00  0.00    +0.000 OA
ATOM      4  N   UNL     1      17.290  14.317  84.895  0.00  0.00    +0.000 N 
ATOM      5  N   UNL     1      16.470  12.506  83.640  0.00  0.00    +0.000 N 
ATOM      6  C   UNL     1      16.309  13.300  84.801  0.00  0.00    +0.000 C 
ATOM      7  C   UNL     1      18.205  14.382  83.906  0.00  0.00    +0.000 C 
ATOM      8  C   UNL     1      18.429  13.711  82.827  0.00  0.00    +0.000 C 
ATOM      9  C   UNL     1      17.404  12.641  82.604  0.00  0.00    +0.000 C 
ATOM     10  H   UNL     1      15.768  11.791  83.509  0.00  0.00    +0.000 HD
ENDROOT
BRANCH   4  13
ATOM     11  O4* UNL     1      18.045  14.961  87.101  0.00  0.00    +0.000 OA
ATOM     12  C3* UNL     1      17.128  17.086  87.212  0.00  0.00    +0.000 A 
ATOM     13  C1* UNL     1      17.353  15.226  85.912  0.00  0.00    +0.000 A 
ATOM     14  C2* UNL     1      16.799  16.519  85.968  0.00  0.00    +0.000 A 
ATOM     15  C4* UNL     1      17.914  16.097  87.909  0.00  0.00    +0.000 A 
BRANCH  12  16
ATOM     16  O3* UNL     1      17.313  18.426  87.405  0.00  0.00    +0.000 OA
ATOM     17  H3* UNL     1      17.145  18.941  86.595  0.00  0.00    +0.000 HD
ENDBRANCH  12  16
BRANCH  15  18
ATOM     18  C5* UNL     1      18.645  16.266  89.101  0.00  0.00    +0.000 C 
BRANCH  18  19
ATOM     19  O5* UNL     1      19.332  16.406  90.230  0.00  0.00    +0.000 OA
ATOM     20  H5* UNL     1      19.673  15.546  90.533  0.00  0.00    +0.000 HD
ENDBRANCH  18  19
ENDBRANCH  15  18
ENDBRANCH   4  13
TORSDOF 4
ENDMDL
MODEL 8
REMARK VINA RESULT:      -4.5     16.902     17.828
REMARK  Name = 3363_5FluorouracilDeoxyriboside.pdbqt.pdb
REMARK  4 active torsions:
REMARK  status: ('A' for Active; 'I' for Inactive)
REMARK    1  A    between atoms: N_4  and  C1*_13
REMARK    2  A    between atoms: C3*_12  and  O3*_16
REMARK    3  A    between atoms: C4*_15  and  C5*_18
REMARK    4  A    between atoms: C5*_18  and  O5*_19
REMARK                            x       y       z     vdW  Elec       q    Type
REMARK                         _______ _______ _______ _____ _____    ______ ____
ROOT
ATOM      1  F   UNL     1      46.891  22.150  86.982  0.00  0.00    +0.000 F 
ATOM      2  O   UNL     1      46.924  24.941  82.321  0.00  0.00    +0.000 OA
ATOM      3  O   UNL     1      47.625  20.972  84.517  0.00  0.00    +0.000 OA
ATOM      4  N   UNL     1      46.308  24.814  84.607  0.00  0.00    +0.000 N 
ATOM      5  N   UNL     1      47.175  22.961  83.448  0.00  0.00    +0.000 N 
ATOM      6  C   UNL     1      46.799  24.324  83.373  0.00  0.00    +0.000 C 
ATOM      7  C   UNL     1      46.266  23.947  85.639  0.00  0.00    +0.000 C 
ATOM      8  C   UNL     1      46.580  22.706  85.799  0.00  0.00    +0.000 C 
ATOM      9  C   UNL     1      47.169  22.107  84.559  0.00  0.00    +0.000 C 
ATOM     10  H   UNL     1      47.569  22.579  82.600  0.00  0.00    +0.000 HD
ENDROOT
BRANCH   4  13
ATOM     11  O4* UNL     1      44.866  26.673  84.040  0.00  0.00    +0.000 OA
ATOM     12  C3* UNL     1      45.616  28.222  85.592  0.00  0.00    +0.000 A 
ATOM     13  C1* UNL     1      45.889  26.099  84.807  0.00  0.00    +0.000 A 
ATOM     14  C2* UNL     1      46.344  27.031  85.759  0.00  0.00    +0.000 A 
ATOM     15  C4* UNL     1      44.689  27.978  84.513  0.00  0.00    +0.000 A 
BRANCH  12  16
ATOM     16  O3* UNL     1      45.326  29.079  86.617  0.00  0.00    +0.000 OA
ATOM     17  H3* UNL     1      46.129  29.419  87.049  0.00  0.00    +0.000 HD
ENDBRANCH  12  16
BRANCH  15  18
ATOM     18  C5* UNL     1      43.611  28.790  84.108  0.00  0.00    +0.000 C 
BRANCH  18  19
ATOM     19  O5* UNL     1      42.603  29.571  83.736  0.00  0.00    +0.000 OA
ATOM     20  H5* UNL     1      41.924  29.056  83.266  0.00  0.00    +0.000 HD
ENDBRANCH  18  19
ENDBRANCH  15  18
ENDBRANCH   4  13
TORSDOF 4
ENDMDL
MODEL 9
REMARK VINA RESULT:      -4.5     16.870     18.630
REMARK  Name = 3363_5FluorouracilDeoxyriboside.pdbqt.pdb
REMARK  4 active torsions:
REMARK  status: ('A' for Active; 'I' for Inactive)
REMARK    1  A    between atoms: N_4  and  C1*_13
REMARK    2  A    between atoms: C3*_12  and  O3*_16
REMARK    3  A    between atoms: C4*_15  and  C5*_18
REMARK    4  A    between atoms: C5*_18  and  O5*_19
REMARK                            x       y       z     vdW  Elec       q    Type
REMARK                         _______ _______ _______ _____ _____    ______ ____
ROOT
ATOM      1  F   UNL     1      43.189  28.163  87.095  0.00  0.00    +0.000 F 
ATOM      2  O   UNL     1      46.276  26.046  83.159  0.00  0.00    +0.000 OA
ATOM      3  O   UNL     1      45.916  28.844  86.778  0.00  0.00    +0.000 OA
ATOM      4  N   UNL     1      44.252  26.009  84.392  0.00  0.00    +0.000 N 
ATOM      5  N   UNL     1      46.069  27.361  85.024  0.00  0.00    +0.000 N 
ATOM      6  C   UNL     1      45.575  26.414  84.093  0.00  0.00    +0.000 C 
ATOM      7  C   UNL     1      43.671  26.558  85.478  0.00  0.00    +0.000 C 
ATOM      8  C   UNL     1      44.036  27.413  86.371  0.00  0.00    +0.000 C 
ATOM      9  C   UNL     1      45.410  27.951  86.111  0.00  0.00    +0.000 C 
ATOM     10  H   UNL     1      46.996  27.710  84.828  0.00  0.00    +0.000 HD
ENDROOT
BRANCH   4  13
ATOM     11  O4* UNL     1      43.058  25.430  82.368  0.00  0.00    +0.000 OA
ATOM     12  C3* UNL     1      42.459  23.253  82.890  0.00  0.00    +0.000 A 
ATOM     13  C1* UNL     1      43.540  25.113  83.645  0.00  0.00    +0.000 A 
ATOM     14  C2* UNL     1      43.188  23.788  83.966  0.00  0.00    +0.000 A 
ATOM     15  C4* UNL     1      42.392  24.294  81.893  0.00  0.00    +0.000 A 
BRANCH  12  16
ATOM     16  O3* UNL     1      42.474  21.928  82.553  0.00  0.00    +0.000 OA
ATOM     17  H3* UNL     1      43.380  21.582  82.463  0.00  0.00    +0.000 HD
ENDBRANCH  12  16
BRANCH  15  18
ATOM     18  C5* UNL     1      41.947  24.180  80.561  0.00  0.00    +0.000 C 
BRANCH  18  19
ATOM     19  O5* UNL     1      41.545  24.062  79.300  0.00  0.00    +0.000 OA
ATOM     20  H5* UNL     1      42.308  23.955  78.705  0.00  0.00    +0.000 HD
ENDBRANCH  18  19
ENDBRANCH  15  18
ENDBRANCH   4  13
TORSDOF 4
ENDMDL
