MODEL 1
REMARK VINA RESULT:      -4.8      0.000      0.000
REMARK  Name = 3385_5Fluorouracil.pdbqt.pdb
REMARK  0 active torsions:
REMARK  status: ('A' for Active; 'I' for Inactive)
REMARK                            x       y       z     vdW  Elec       q    Type
REMARK                         _______ _______ _______ _____ _____    ______ ____
ROOT
ATOM      1  F   UNL     1      58.744  36.112  80.355  0.00  0.00    +0.000 F 
ATOM      2  O   UNL     1      56.209  35.323  81.344  0.00  0.00    +0.000 OA
ATOM      3  O   UNL     1      54.780  34.432  77.049  0.00  0.00    +0.000 OA
ATOM      4  N   UNL     1      55.481  34.947  79.193  0.00  0.00    +0.000 N 
ATOM      5  N   UNL     1      56.849  35.391  77.371  0.00  0.00    +0.000 N 
ATOM      6  C   UNL     1      56.411  35.403  80.138  0.00  0.00    +0.000 C 
ATOM      7  C   UNL     1      55.630  34.887  77.800  0.00  0.00    +0.000 C 
ATOM      8  C   UNL     1      57.672  35.978  79.557  0.00  0.00    +0.000 C 
ATOM      9  C   UNL     1      57.721  35.866  78.272  0.00  0.00    +0.000 C 
ATOM     10  H   UNL     1      54.626  34.559  79.562  0.00  0.00    +0.000 HD
ATOM     11  H   UNL     1      57.058  35.388  76.381  0.00  0.00    +0.000 HD
ENDROOT
TORSDOF 0
ENDMDL
MODEL 2
REMARK VINA RESULT:      -4.8      2.288      3.549
REMARK  Name = 3385_5Fluorouracil.pdbqt.pdb
REMARK  0 active torsions:
REMARK  status: ('A' for Active; 'I' for Inactive)
REMARK                            x       y       z     vdW  Elec       q    Type
REMARK                         _______ _______ _______ _____ _____    ______ ____
ROOT
ATOM      1  F   UNL     1      58.505  34.381  78.670  0.00  0.00    +0.000 F 
ATOM      2  O   UNL     1      55.717  34.431  79.172  0.00  0.00    +0.000 OA
ATOM      3  O   UNL     1      56.419  36.935  82.982  0.00  0.00    +0.000 OA
ATOM      4  N   UNL     1      56.081  35.621  81.109  0.00  0.00    +0.000 N 
ATOM      5  N   UNL     1      58.234  36.128  81.815  0.00  0.00    +0.000 N 
ATOM      6  C   UNL     1      56.506  34.893  79.988  0.00  0.00    +0.000 C 
ATOM      7  C   UNL     1      56.876  36.284  82.054  0.00  0.00    +0.000 C 
ATOM      8  C   UNL     1      57.996  34.743  79.859  0.00  0.00    +0.000 C 
ATOM      9  C   UNL     1      58.639  35.397  80.767  0.00  0.00    +0.000 C 
ATOM     10  H   UNL     1      55.084  35.732  81.215  0.00  0.00    +0.000 HD
ATOM     11  H   UNL     1      58.894  36.574  82.439  0.00  0.00    +0.000 HD
ENDROOT
TORSDOF 0
ENDMDL
MODEL 3
REMARK VINA RESULT:      -4.8      3.339      4.256
REMARK  Name = 3385_5Fluorouracil.pdbqt.pdb
REMARK  0 active torsions:
REMARK  status: ('A' for Active; 'I' for Inactive)
REMARK                            x       y       z     vdW  Elec       q    Type
REMARK                         _______ _______ _______ _____ _____    ______ ____
ROOT
ATOM      1  F   UNL     1      57.056  33.344  79.137  0.00  0.00    +0.000 F 
ATOM      2  O   UNL     1      59.521  33.429  80.530  0.00  0.00    +0.000 OA
ATOM      3  O   UNL     1      57.766  36.484  83.507  0.00  0.00    +0.000 OA
ATOM      4  N   UNL     1      58.660  35.005  81.969  0.00  0.00    +0.000 N 
ATOM      5  N   UNL     1      56.510  35.835  81.689  0.00  0.00    +0.000 N 
ATOM      6  C   UNL     1      58.609  34.190  80.830  0.00  0.00    +0.000 C 
ATOM      7  C   UNL     1      57.652  35.836  82.477  0.00  0.00    +0.000 C 
ATOM      8  C   UNL     1      57.347  34.311  80.022  0.00  0.00    +0.000 C 
ATOM      9  C   UNL     1      56.478  35.088  80.576  0.00  0.00    +0.000 C 
ATOM     10  H   UNL     1      59.500  34.940  82.525  0.00  0.00    +0.000 HD
ATOM     11  H   UNL     1      55.720  36.400  81.972  0.00  0.00    +0.000 HD
ENDROOT
TORSDOF 0
ENDMDL
MODEL 4
REMARK VINA RESULT:      -4.6      1.871      3.159
REMARK  Name = 3385_5Fluorouracil.pdbqt.pdb
REMARK  0 active torsions:
REMARK  status: ('A' for Active; 'I' for Inactive)
REMARK                            x       y       z     vdW  Elec       q    Type
REMARK                         _______ _______ _______ _____ _____    ______ ____
ROOT
ATOM      1  F   UNL     1      57.170  36.158  76.585  0.00  0.00    +0.000 F 
ATOM      2  O   UNL     1      54.999  34.760  77.749  0.00  0.00    +0.000 OA
ATOM      3  O   UNL     1      56.109  36.435  81.901  0.00  0.00    +0.000 OA
ATOM      4  N   UNL     1      55.601  35.545  79.828  0.00  0.00    +0.000 N 
ATOM      5  N   UNL     1      57.492  36.861  80.109  0.00  0.00    +0.000 N 
ATOM      6  C   UNL     1      55.802  35.362  78.452  0.00  0.00    +0.000 C 
ATOM      7  C   UNL     1      56.383  36.293  80.718  0.00  0.00    +0.000 C 
ATOM      8  C   UNL     1      57.063  35.974  77.911  0.00  0.00    +0.000 C 
ATOM      9  C   UNL     1      57.706  36.651  78.802  0.00  0.00    +0.000 C 
ATOM     10  H   UNL     1      54.760  35.140  80.212  0.00  0.00    +0.000 HD
ATOM     11  H   UNL     1      58.119  37.427  80.666  0.00  0.00    +0.000 HD
ENDROOT
TORSDOF 0
ENDMDL
MODEL 5
REMARK VINA RESULT:      -4.2      2.455      2.703
REMARK  Name = 3385_5Fluorouracil.pdbqt.pdb
REMARK  0 active torsions:
REMARK  status: ('A' for Active; 'I' for Inactive)
REMARK                            x       y       z     vdW  Elec       q    Type
REMARK                         _______ _______ _______ _____ _____    ______ ____
ROOT
ATOM      1  F   UNL     1      56.056  33.914  79.066  0.00  0.00    +0.000 F 
ATOM      2  O   UNL     1      56.120  36.525  80.162  0.00  0.00    +0.000 OA
ATOM      3  O   UNL     1      54.557  38.264  76.186  0.00  0.00    +0.000 OA
ATOM      4  N   UNL     1      55.406  37.392  78.153  0.00  0.00    +0.000 N 
ATOM      5  N   UNL     1      55.076  36.023  76.308  0.00  0.00    +0.000 N 
ATOM      6  C   UNL     1      55.858  36.352  78.978  0.00  0.00    +0.000 C 
ATOM      7  C   UNL     1      54.978  37.308  76.821  0.00  0.00    +0.000 C 
ATOM      8  C   UNL     1      55.976  35.015  78.302  0.00  0.00    +0.000 C 
ATOM      9  C   UNL     1      55.548  35.037  77.085  0.00  0.00    +0.000 C 
ATOM     10  H   UNL     1      55.321  38.299  78.587  0.00  0.00    +0.000 HD
ATOM     11  H   UNL     1      54.786  35.854  75.353  0.00  0.00    +0.000 HD
ENDROOT
TORSDOF 0
ENDMDL
MODEL 6
REMARK VINA RESULT:      -4.2      2.884      3.319
REMARK  Name = 3385_5Fluorouracil.pdbqt.pdb
REMARK  0 active torsions:
REMARK  status: ('A' for Active; 'I' for Inactive)
REMARK                            x       y       z     vdW  Elec       q    Type
REMARK                         _______ _______ _______ _____ _____    ______ ____
ROOT
ATOM      1  F   UNL     1      58.352  37.490  79.100  0.00  0.00    +0.000 F 
ATOM      2  O   UNL     1      57.754  39.385  77.082  0.00  0.00    +0.000 OA
ATOM      3  O   UNL     1      54.027  36.956  75.863  0.00  0.00    +0.000 OA
ATOM      4  N   UNL     1      55.936  38.131  76.435  0.00  0.00    +0.000 N 
ATOM      5  N   UNL     1      55.458  36.101  77.453  0.00  0.00    +0.000 N 
ATOM      6  C   UNL     1      57.103  38.352  77.180  0.00  0.00    +0.000 C 
ATOM      7  C   UNL     1      55.051  37.048  76.525  0.00  0.00    +0.000 C 
ATOM      8  C   UNL     1      57.477  37.236  78.113  0.00  0.00    +0.000 C 
ATOM      9  C   UNL     1      56.597  36.292  78.135  0.00  0.00    +0.000 C 
ATOM     10  H   UNL     1      55.667  38.869  75.800  0.00  0.00    +0.000 HD
ATOM     11  H   UNL     1      54.884  35.280  77.598  0.00  0.00    +0.000 HD
ENDROOT
TORSDOF 0
ENDMDL
MODEL 7
REMARK VINA RESULT:      -4.0      3.502      4.069
REMARK  Name = 3385_5Fluorouracil.pdbqt.pdb
REMARK  0 active torsions:
REMARK  status: ('A' for Active; 'I' for Inactive)
REMARK                            x       y       z     vdW  Elec       q    Type
REMARK                         _______ _______ _______ _____ _____    ______ ____
ROOT
ATOM      1  F   UNL     1      58.843  35.593  76.149  0.00  0.00    +0.000 F 
ATOM      2  O   UNL     1      56.546  35.214  74.536  0.00  0.00    +0.000 OA
ATOM      3  O   UNL     1      54.378  38.617  76.772  0.00  0.00    +0.000 OA
ATOM      4  N   UNL     1      55.447  36.866  75.702  0.00  0.00    +0.000 N 
ATOM      5  N   UNL     1      56.452  37.932  77.503  0.00  0.00    +0.000 N 
ATOM      6  C   UNL     1      56.524  35.997  75.478  0.00  0.00    +0.000 C 
ATOM      7  C   UNL     1      55.342  37.871  76.674  0.00  0.00    +0.000 C 
ATOM      8  C   UNL     1      57.647  36.113  76.470  0.00  0.00    +0.000 C 
ATOM      9  C   UNL     1      57.464  37.072  77.314  0.00  0.00    +0.000 C 
ATOM     10  H   UNL     1      54.681  36.803  75.048  0.00  0.00    +0.000 HD
ATOM     11  H   UNL     1      56.477  38.629  78.236  0.00  0.00    +0.000 HD
ENDROOT
TORSDOF 0
ENDMDL
MODEL 8
REMARK VINA RESULT:      -3.9     15.170     15.862
REMARK  Name = 3385_5Fluorouracil.pdbqt.pdb
REMARK  0 active torsions:
REMARK  status: ('A' for Active; 'I' for Inactive)
REMARK                            x       y       z     vdW  Elec       q    Type
REMARK                         _______ _______ _______ _____ _____    ______ ____
ROOT
ATOM      1  F   UNL     1      42.506  28.673  84.150  0.00  0.00    +0.000 F 
ATOM      2  O   UNL     1      42.307  26.029  83.153  0.00  0.00    +0.000 OA
ATOM      3  O   UNL     1      46.827  25.404  83.827  0.00  0.00    +0.000 OA
ATOM      4  N   UNL     1      44.575  25.749  83.428  0.00  0.00    +0.000 N 
ATOM      5  N   UNL     1      45.913  27.488  84.185  0.00  0.00    +0.000 N 
ATOM      6  C   UNL     1      43.400  26.513  83.423  0.00  0.00    +0.000 C 
ATOM      7  C   UNL     1      45.861  26.153  83.813  0.00  0.00    +0.000 C 
ATOM      8  C   UNL     1      43.584  27.959  83.790  0.00  0.00    +0.000 C 
ATOM      9  C   UNL     1      44.797  28.229  84.140  0.00  0.00    +0.000 C 
ATOM     10  H   UNL     1      44.474  24.775  83.183  0.00  0.00    +0.000 HD
ATOM     11  H   UNL     1      46.797  27.877  84.486  0.00  0.00    +0.000 HD
ENDROOT
TORSDOF 0
ENDMDL
MODEL 9
REMARK VINA RESULT:      -3.8     15.451     16.194
REMARK  Name = 3385_5Fluorouracil.pdbqt.pdb
REMARK  0 active torsions:
REMARK  status: ('A' for Active; 'I' for Inactive)
REMARK                            x       y       z     vdW  Elec       q    Type
REMARK                         _______ _______ _______ _____ _____    ______ ____
ROOT
ATOM      1  F   UNL     1      44.308  23.794  82.363  0.00  0.00    +0.000 F 
ATOM      2  O   UNL     1      42.233  25.658  82.855  0.00  0.00    +0.000 OA
ATOM      3  O   UNL     1      45.303  28.686  84.493  0.00  0.00    +0.000 OA
ATOM      4  N   UNL     1      43.762  27.136  83.735  0.00  0.00    +0.000 N 
ATOM      5  N   UNL     1      46.003  26.564  83.933  0.00  0.00    +0.000 N 
ATOM      6  C   UNL     1      43.379  25.889  83.223  0.00  0.00    +0.000 C 
ATOM      7  C   UNL     1      45.050  27.559  84.093  0.00  0.00    +0.000 C 
ATOM      8  C   UNL     1      44.482  24.871  83.145  0.00  0.00    +0.000 C 
ATOM      9  C   UNL     1      45.629  25.358  83.483  0.00  0.00    +0.000 C 
ATOM     10  H   UNL     1      43.035  27.834  83.797  0.00  0.00    +0.000 HD
ATOM     11  H   UNL     1      46.968  26.771  84.160  0.00  0.00    +0.000 HD
ENDROOT
TORSDOF 0
ENDMDL
