MODEL 1
REMARK VINA RESULT:      -6.1      0.000      0.000
REMARK  Name = 342374_SipholenolA.pdbqt.pdb
REMARK  5 active torsions:
REMARK  status: ('A' for Active; 'I' for Inactive)
REMARK    1  A    between atoms: C_3  and  C_20
REMARK    2  A    between atoms: C_4  and  O_16
REMARK    3  A    between atoms: C_13  and  O_18
REMARK    4  A    between atoms: C_21  and  C_25
REMARK    5  A    between atoms: C_26  and  O_36
REMARK                            x       y       z     vdW  Elec       q    Type
REMARK                         _______ _______ _______ _____ _____    ______ ____
ROOT
ATOM      1  O   UNL     1       7.804  17.553  98.968  0.00  0.00    +0.000 OA
ATOM      2  C   UNL     1       9.669  15.851  99.634  0.00  0.00    +0.000 C 
ATOM      3  C   UNL     1      10.700  15.508 100.714  0.00  0.00    +0.000 C 
ATOM      4  C   UNL     1      11.535  16.613 101.339  0.00  0.00    +0.000 C 
ATOM      5  C   UNL     1       8.902  17.239  99.777  0.00  0.00    +0.000 C 
ATOM      6  C   UNL     1       8.550  14.897  99.677  0.00  0.00    +0.000 C 
ATOM      7  C   UNL     1      10.874  17.883 101.117  0.00  0.00    +0.000 C 
ATOM      8  C   UNL     1       9.623  18.273 100.404  0.00  0.00    +0.000 C 
ATOM      9  C   UNL     1      10.352  15.826  98.239  0.00  0.00    +0.000 C 
ATOM     10  C   UNL     1       7.046  14.838  99.574  0.00  0.00    +0.000 C 
ATOM     11  C   UNL     1       6.451  17.316  99.480  0.00  0.00    +0.000 C 
ATOM     12  C   UNL     1      11.762  16.352 102.836  0.00  0.00    +0.000 C 
ATOM     13  C   UNL     1       6.040  15.815  99.412  0.00  0.00    +0.000 C 
ATOM     14  C   UNL     1       6.291  17.804 100.951  0.00  0.00    +0.000 C 
ATOM     15  C   UNL     1       5.471  18.103  98.562  0.00  0.00    +0.000 C 
ENDROOT
BRANCH   4  16
ATOM     16  O   UNL     1      12.815  16.631 100.757  0.00  0.00    +0.000 OA
ATOM     17  H   UNL     1      12.598  16.500  99.817  0.00  0.00    +0.000 HD
ENDBRANCH   4  16
BRANCH  13  18
ATOM     18  O   UNL     1       4.731  15.403  99.185  0.00  0.00    +0.000 OA
ATOM     19  H   UNL     1       4.086  16.031  99.573  0.00  0.00    +0.000 HD
ENDBRANCH  13  18
BRANCH   3  20
ATOM     20  C   UNL     1      11.042  14.131 100.962  0.00  0.00    +0.000 C 
ATOM     21  C   UNL     1      11.389  12.662 101.222  0.00  0.00    +0.000 C 
BRANCH  21  25
ATOM     22  C   UNL     1      13.865  10.169 100.466  0.00  0.00    +0.000 C 
ATOM     23  C   UNL     1      13.155  10.795 101.697  0.00  0.00    +0.000 C 
ATOM     24  C   UNL     1      13.381   8.970  99.703  0.00  0.00    +0.000 C 
ATOM     25  C   UNL     1      11.705  11.284 101.464  0.00  0.00    +0.000 C 
ATOM     26  C   UNL     1      14.461   8.347  98.826  0.00  0.00    +0.000 C 
ATOM     27  C   UNL     1      15.232  10.336 100.093  0.00  0.00    +0.000 C 
ATOM     28  C   UNL     1      15.576   9.240  99.122  0.00  0.00    +0.000 C 
ATOM     29  C   UNL     1      12.030   8.612  99.858  0.00  0.00    +0.000 C 
ATOM     30  C   UNL     1      10.627  10.304 101.327  0.00  0.00    +0.000 C 
ATOM     31  C   UNL     1      14.020  12.021 102.175  0.00  0.00    +0.000 C 
ATOM     32  C   UNL     1      13.186   9.750 102.864  0.00  0.00    +0.000 C 
ATOM     33  C   UNL     1      10.897   9.261 100.608  0.00  0.00    +0.000 C 
ATOM     34  C   UNL     1      14.053   8.276  97.362  0.00  0.00    +0.000 C 
ATOM     35  C   UNL     1       9.173  10.619 101.558  0.00  0.00    +0.000 C 
BRANCH  26  36
ATOM     36  O   UNL     1      14.737   7.036  99.247  0.00  0.00    +0.000 OA
ATOM     37  H   UNL     1      14.925   6.605  98.395  0.00  0.00    +0.000 HD
ENDBRANCH  26  36
ENDBRANCH  21  25
ENDBRANCH   3  20
TORSDOF 5
ENDMDL
MODEL 2
REMARK VINA RESULT:      -5.7     10.632     14.790
REMARK  Name = 342374_SipholenolA.pdbqt.pdb
REMARK  5 active torsions:
REMARK  status: ('A' for Active; 'I' for Inactive)
REMARK    1  A    between atoms: C_3  and  C_20
REMARK    2  A    between atoms: C_4  and  O_16
REMARK    3  A    between atoms: C_13  and  O_18
REMARK    4  A    between atoms: C_21  and  C_25
REMARK    5  A    between atoms: C_26  and  O_36
REMARK                            x       y       z     vdW  Elec       q    Type
REMARK                         _______ _______ _______ _____ _____    ______ ____
ROOT
ATOM      1  O   UNL     1      21.670  11.751 101.141  0.00  0.00    +0.000 OA
ATOM      2  C   UNL     1      23.025  13.899 100.530  0.00  0.00    +0.000 C 
ATOM      3  C   UNL     1      24.253  14.410  99.772  0.00  0.00    +0.000 C 
ATOM      4  C   UNL     1      25.566  13.651  99.862  0.00  0.00    +0.000 C 
ATOM      5  C   UNL     1      22.852  12.321 100.654  0.00  0.00    +0.000 C 
ATOM      6  C   UNL     1      21.794  14.269  99.815  0.00  0.00    +0.000 C 
ATOM      7  C   UNL     1      25.295  12.296 100.299  0.00  0.00    +0.000 C 
ATOM      8  C   UNL     1      24.047  11.576 100.681  0.00  0.00    +0.000 C 
ATOM      9  C   UNL     1      23.019  14.491 101.966  0.00  0.00    +0.000 C 
ATOM     10  C   UNL     1      20.446  13.716  99.423  0.00  0.00    +0.000 C 
ATOM     11  C   UNL     1      20.655  11.293 100.190  0.00  0.00    +0.000 C 
ATOM     12  C   UNL     1      26.306  13.670  98.515  0.00  0.00    +0.000 C 
ATOM     13  C   UNL     1      19.815  12.465  99.599  0.00  0.00    +0.000 C 
ATOM     14  C   UNL     1      21.281  10.492  99.009  0.00  0.00    +0.000 C 
ATOM     15  C   UNL     1      19.672  10.376 100.976  0.00  0.00    +0.000 C 
ENDROOT
BRANCH   4  16
ATOM     16  O   UNL     1      26.424  14.287 100.776  0.00  0.00    +0.000 OA
ATOM     17  H   UNL     1      26.320  15.220 100.517  0.00  0.00    +0.000 HD
ENDBRANCH   4  16
BRANCH  13  18
ATOM     18  O   UNL     1      18.474  12.331  99.253  0.00  0.00    +0.000 OA
ATOM     19  H   UNL     1      18.235  11.392  99.107  0.00  0.00    +0.000 HD
ENDBRANCH  13  18
BRANCH   3  20
ATOM     20  C   UNL     1      24.228  15.721  99.176  0.00  0.00    +0.000 C 
ATOM     21  C   UNL     1      24.215  17.111  98.534  0.00  0.00    +0.000 C 
BRANCH  21  25
ATOM     22  C   UNL     1      22.056  19.397  96.792  0.00  0.00    +0.000 C 
ATOM     23  C   UNL     1      22.999  19.368  98.027  0.00  0.00    +0.000 C 
ATOM     24  C   UNL     1      22.469  19.758  95.395  0.00  0.00    +0.000 C 
ATOM     25  C   UNL     1      24.211  18.412  97.928  0.00  0.00    +0.000 C 
ATOM     26  C   UNL     1      21.286  20.094  94.493  0.00  0.00    +0.000 C 
ATOM     27  C   UNL     1      20.632  19.486  96.808  0.00  0.00    +0.000 C 
ATOM     28  C   UNL     1      20.188  19.909  95.434  0.00  0.00    +0.000 C 
ATOM     29  C   UNL     1      23.842  19.702  95.095  0.00  0.00    +0.000 C 
ATOM     30  C   UNL     1      25.338  18.763  97.063  0.00  0.00    +0.000 C 
ATOM     31  C   UNL     1      22.136  18.948  99.276  0.00  0.00    +0.000 C 
ATOM     32  C   UNL     1      23.491  20.831  98.300  0.00  0.00    +0.000 C 
ATOM     33  C   UNL     1      25.031  19.260  95.906  0.00  0.00    +0.000 C 
ATOM     34  C   UNL     1      21.235  19.217  93.250  0.00  0.00    +0.000 C 
ATOM     35  C   UNL     1      26.724  18.195  97.218  0.00  0.00    +0.000 C 
BRANCH  26  36
ATOM     36  O   UNL     1      21.364  21.427  94.061  0.00  0.00    +0.000 OA
ATOM     37  H   UNL     1      22.302  21.484  93.807  0.00  0.00    +0.000 HD
ENDBRANCH  26  36
ENDBRANCH  21  25
ENDBRANCH   3  20
TORSDOF 5
ENDMDL
MODEL 3
REMARK VINA RESULT:      -5.7     18.567     21.738
REMARK  Name = 342374_SipholenolA.pdbqt.pdb
REMARK  5 active torsions:
REMARK  status: ('A' for Active; 'I' for Inactive)
REMARK    1  A    between atoms: C_3  and  C_20
REMARK    2  A    between atoms: C_4  and  O_16
REMARK    3  A    between atoms: C_13  and  O_18
REMARK    4  A    between atoms: C_21  and  C_25
REMARK    5  A    between atoms: C_26  and  O_36
REMARK                            x       y       z     vdW  Elec       q    Type
REMARK                         _______ _______ _______ _____ _____    ______ ____
ROOT
ATOM      1  O   UNL     1      22.744   7.816  86.945  0.00  0.00    +0.000 OA
ATOM      2  C   UNL     1      24.484   9.736  87.273  0.00  0.00    +0.000 C 
ATOM      3  C   UNL     1      25.919  10.168  86.961  0.00  0.00    +0.000 C 
ATOM      4  C   UNL     1      27.055   9.167  87.087  0.00  0.00    +0.000 C 
ATOM      5  C   UNL     1      24.076   8.244  86.893  0.00  0.00    +0.000 C 
ATOM      6  C   UNL     1      23.530  10.511  86.465  0.00  0.00    +0.000 C 
ATOM      7  C   UNL     1      26.504   7.827  87.046  0.00  0.00    +0.000 C 
ATOM      8  C   UNL     1      25.115   7.295  86.942  0.00  0.00    +0.000 C 
ATOM      9  C   UNL     1      24.202   9.934  88.788  0.00  0.00    +0.000 C 
ATOM     10  C   UNL     1      22.260  10.353  85.666  0.00  0.00    +0.000 C 
ATOM     11  C   UNL     1      21.945   7.823  85.718  0.00  0.00    +0.000 C 
ATOM     12  C   UNL     1      28.101   9.378  85.982  0.00  0.00    +0.000 C 
ATOM     13  C   UNL     1      21.444   9.249  85.339  0.00  0.00    +0.000 C 
ATOM     14  C   UNL     1      22.730   7.240  84.507  0.00  0.00    +0.000 C 
ATOM     15  C   UNL     1      20.684   6.950  85.988  0.00  0.00    +0.000 C 
ENDROOT
BRANCH   4  16
ATOM     16  O   UNL     1      27.736   9.368  88.300  0.00  0.00    +0.000 OA
ATOM     17  H   UNL     1      28.203   8.519  88.399  0.00  0.00    +0.000 HD
ENDBRANCH   4  16
BRANCH  13  18
ATOM     18  O   UNL     1      20.225   9.475  84.707  0.00  0.00    +0.000 OA
ATOM     19  H   UNL     1      19.472   9.238  85.288  0.00  0.00    +0.000 HD
ENDBRANCH  13  18
BRANCH   3  20
ATOM     20  C   UNL     1      26.220  11.565  86.781  0.00  0.00    +0.000 C 
ATOM     21  C   UNL     1      26.523  13.054  86.584  0.00  0.00    +0.000 C 
BRANCH  21  25
ATOM     22  C   UNL     1      29.160  15.472  86.928  0.00  0.00    +0.000 C 
ATOM     23  C   UNL     1      28.158  14.959  85.858  0.00  0.00    +0.000 C 
ATOM     24  C   UNL     1      28.903  16.595  87.890  0.00  0.00    +0.000 C 
ATOM     25  C   UNL     1      26.799  14.449  86.395  0.00  0.00    +0.000 C 
ATOM     26  C   UNL     1      30.177  17.136  88.528  0.00  0.00    +0.000 C 
ATOM     27  C   UNL     1      30.573  15.273  86.938  0.00  0.00    +0.000 C 
ATOM     28  C   UNL     1      31.166  16.276  87.889  0.00  0.00    +0.000 C 
ATOM     29  C   UNL     1      27.562  16.963  88.104  0.00  0.00    +0.000 C 
ATOM     30  C   UNL     1      25.808  15.410  86.878  0.00  0.00    +0.000 C 
ATOM     31  C   UNL     1      28.855  13.783  85.075  0.00  0.00    +0.000 C 
ATOM     32  C   UNL     1      27.925  16.107  84.817  0.00  0.00    +0.000 C 
ATOM     33  C   UNL     1      26.267  16.384  87.600  0.00  0.00    +0.000 C 
ATOM     34  C   UNL     1      30.140  17.072  90.048  0.00  0.00    +0.000 C 
ATOM     35  C   UNL     1      24.335  15.115  86.984  0.00  0.00    +0.000 C 
BRANCH  26  36
ATOM     36  O   UNL     1      30.369  18.480  88.171  0.00  0.00    +0.000 OA
ATOM     37  H   UNL     1      30.585  18.391  87.226  0.00  0.00    +0.000 HD
ENDBRANCH  26  36
ENDBRANCH  21  25
ENDBRANCH   3  20
TORSDOF 5
ENDMDL
MODEL 4
REMARK VINA RESULT:      -5.5     11.939     14.284
REMARK  Name = 342374_SipholenolA.pdbqt.pdb
REMARK  5 active torsions:
REMARK  status: ('A' for Active; 'I' for Inactive)
REMARK    1  A    between atoms: C_3  and  C_20
REMARK    2  A    between atoms: C_4  and  O_16
REMARK    3  A    between atoms: C_13  and  O_18
REMARK    4  A    between atoms: C_21  and  C_25
REMARK    5  A    between atoms: C_26  and  O_36
REMARK                            x       y       z     vdW  Elec       q    Type
REMARK                         _______ _______ _______ _____ _____    ______ ____
ROOT
ATOM      1  O   UNL     1      21.498  18.988  90.285  0.00  0.00    +0.000 OA
ATOM      2  C   UNL     1      21.553  19.854  92.748  0.00  0.00    +0.000 C 
ATOM      3  C   UNL     1      20.675  20.330  93.910  0.00  0.00    +0.000 C 
ATOM      4  C   UNL     1      19.513  21.271  93.643  0.00  0.00    +0.000 C 
ATOM      5  C   UNL     1      20.836  19.614  91.347  0.00  0.00    +0.000 C 
ATOM      6  C   UNL     1      22.091  18.514  93.031  0.00  0.00    +0.000 C 
ATOM      7  C   UNL     1      19.159  21.192  92.239  0.00  0.00    +0.000 C 
ATOM      8  C   UNL     1      19.717  20.429  91.086  0.00  0.00    +0.000 C 
ATOM      9  C   UNL     1      22.708  20.868  92.523  0.00  0.00    +0.000 C 
ATOM     10  C   UNL     1      22.360  17.188  92.365  0.00  0.00    +0.000 C 
ATOM     11  C   UNL     1      21.305  17.551  90.073  0.00  0.00    +0.000 C 
ATOM     12  C   UNL     1      18.315  20.937  94.543  0.00  0.00    +0.000 C 
ATOM     13  C   UNL     1      22.132  16.682  91.067  0.00  0.00    +0.000 C 
ATOM     14  C   UNL     1      19.807  17.141  90.189  0.00  0.00    +0.000 C 
ATOM     15  C   UNL     1      21.822  17.227  88.640  0.00  0.00    +0.000 C 
ENDROOT
BRANCH   4  16
ATOM     16  O   UNL     1      19.880  22.588  93.970  0.00  0.00    +0.000 OA
ATOM     17  H   UNL     1      19.095  22.888  94.462  0.00  0.00    +0.000 HD
ENDBRANCH   4  16
BRANCH  13  18
ATOM     18  O   UNL     1      22.661  15.442  90.724  0.00  0.00    +0.000 OA
ATOM     19  H   UNL     1      23.460  15.236  91.252  0.00  0.00    +0.000 HD
ENDBRANCH  13  18
BRANCH   3  20
ATOM     20  C   UNL     1      21.091  20.080  95.266  0.00  0.00    +0.000 C 
ATOM     21  C   UNL     1      21.519  19.804  96.710  0.00  0.00    +0.000 C 
BRANCH  21  25
ATOM     22  C   UNL     1      23.672  17.682  98.655  0.00  0.00    +0.000 C 
ATOM     23  C   UNL     1      23.369  19.192  98.452  0.00  0.00    +0.000 C 
ATOM     24  C   UNL     1      22.991  16.786  99.649  0.00  0.00    +0.000 C 
ATOM     25  C   UNL     1      21.912  19.542  98.065  0.00  0.00    +0.000 C 
ATOM     26  C   UNL     1      23.755  15.493  99.906  0.00  0.00    +0.000 C 
ATOM     27  C   UNL     1      24.855  16.989  98.260  0.00  0.00    +0.000 C 
ATOM     28  C   UNL     1      24.896  15.690  99.018  0.00  0.00    +0.000 C 
ATOM     29  C   UNL     1      21.758  17.222 100.167  0.00  0.00    +0.000 C 
ATOM     30  C   UNL     1      20.856  19.454  99.075  0.00  0.00    +0.000 C 
ATOM     31  C   UNL     1      24.324  19.722  97.318  0.00  0.00    +0.000 C 
ATOM     32  C   UNL     1      23.772  19.951  99.762  0.00  0.00    +0.000 C 
ATOM     33  C   UNL     1      20.904  18.422  99.857  0.00  0.00    +0.000 C 
ATOM     34  C   UNL     1      22.915  14.255  99.624  0.00  0.00    +0.000 C 
ATOM     35  C   UNL     1      19.540  20.180  98.978  0.00  0.00    +0.000 C 
BRANCH  26  36
ATOM     36  O   UNL     1      24.164  15.424 101.247  0.00  0.00    +0.000 OA
ATOM     37  H   UNL     1      24.903  16.057 101.247  0.00  0.00    +0.000 HD
ENDBRANCH  26  36
ENDBRANCH  21  25
ENDBRANCH   3  20
TORSDOF 5
ENDMDL
MODEL 5
REMARK VINA RESULT:      -5.5     18.702     21.198
REMARK  Name = 342374_SipholenolA.pdbqt.pdb
REMARK  5 active torsions:
REMARK  status: ('A' for Active; 'I' for Inactive)
REMARK    1  A    between atoms: C_3  and  C_20
REMARK    2  A    between atoms: C_4  and  O_16
REMARK    3  A    between atoms: C_13  and  O_18
REMARK    4  A    between atoms: C_21  and  C_25
REMARK    5  A    between atoms: C_26  and  O_36
REMARK                            x       y       z     vdW  Elec       q    Type
REMARK                         _______ _______ _______ _____ _____    ______ ____
ROOT
ATOM      1  O   UNL     1      20.228   6.478  83.381  0.00  0.00    +0.000 OA
ATOM      2  C   UNL     1      21.916   6.723  85.359  0.00  0.00    +0.000 C 
ATOM      3  C   UNL     1      23.115   6.066  86.048  0.00  0.00    +0.000 C 
ATOM      4  C   UNL     1      23.129   4.564  86.271  0.00  0.00    +0.000 C 
ATOM      5  C   UNL     1      21.194   5.893  84.208  0.00  0.00    +0.000 C 
ATOM      6  C   UNL     1      22.344   7.924  84.624  0.00  0.00    +0.000 C 
ATOM      7  C   UNL     1      22.179   3.947  85.366  0.00  0.00    +0.000 C 
ATOM      8  C   UNL     1      21.235   4.492  84.348  0.00  0.00    +0.000 C 
ATOM      9  C   UNL     1      20.844   7.090  86.423  0.00  0.00    +0.000 C 
ATOM     10  C   UNL     1      22.122   8.649  83.320  0.00  0.00    +0.000 C 
ATOM     11  C   UNL     1      20.631   6.999  82.073  0.00  0.00    +0.000 C 
ATOM     12  C   UNL     1      24.541   3.991  86.079  0.00  0.00    +0.000 C 
ATOM     13  C   UNL     1      21.344   8.381  82.174  0.00  0.00    +0.000 C 
ATOM     14  C   UNL     1      21.572   6.015  81.317  0.00  0.00    +0.000 C 
ATOM     15  C   UNL     1      19.330   7.214  81.245  0.00  0.00    +0.000 C 
ENDROOT
BRANCH   4  16
ATOM     16  O   UNL     1      22.778   4.275  87.601  0.00  0.00    +0.000 OA
ATOM     17  H   UNL     1      22.024   4.878  87.735  0.00  0.00    +0.000 HD
ENDBRANCH   4  16
BRANCH  13  18
ATOM     18  O   UNL     1      21.232   9.359  81.190  0.00  0.00    +0.000 OA
ATOM     19  H   UNL     1      21.438  10.249  81.546  0.00  0.00    +0.000 HD
ENDBRANCH  13  18
BRANCH   3  20
ATOM     20  C   UNL     1      24.108   6.890  86.689  0.00  0.00    +0.000 C 
ATOM     21  C   UNL     1      25.172   7.751  87.375  0.00  0.00    +0.000 C 
BRANCH  21  25
ATOM     22  C   UNL     1      28.371   7.489  88.992  0.00  0.00    +0.000 C 
ATOM     23  C   UNL     1      27.687   8.283  87.846  0.00  0.00    +0.000 C 
ATOM     24  C   UNL     1      28.419   7.912  90.432  0.00  0.00    +0.000 C 
ATOM     25  C   UNL     1      26.174   8.551  88.020  0.00  0.00    +0.000 C 
ATOM     26  C   UNL     1      29.480   7.169  91.236  0.00  0.00    +0.000 C 
ATOM     27  C   UNL     1      29.375   6.484  88.854  0.00  0.00    +0.000 C 
ATOM     28  C   UNL     1      30.032   6.309  90.195  0.00  0.00    +0.000 C 
ATOM     29  C   UNL     1      27.483   8.876  90.849  0.00  0.00    +0.000 C 
ATOM     30  C   UNL     1      25.725   9.549  88.992  0.00  0.00    +0.000 C 
ATOM     31  C   UNL     1      27.897   7.471  86.512  0.00  0.00    +0.000 C 
ATOM     32  C   UNL     1      28.454   9.637  87.664  0.00  0.00    +0.000 C 
ATOM     33  C   UNL     1      26.340   9.545  90.133  0.00  0.00    +0.000 C 
ATOM     34  C   UNL     1      28.896   6.445  92.441  0.00  0.00    +0.000 C 
ATOM     35  C   UNL     1      24.381  10.224  88.942  0.00  0.00    +0.000 C 
BRANCH  26  36
ATOM     36  O   UNL     1      30.446   8.067  91.716  0.00  0.00    +0.000 OA
ATOM     37  H   UNL     1      30.269   8.845  91.157  0.00  0.00    +0.000 HD
ENDBRANCH  26  36
ENDBRANCH  21  25
ENDBRANCH   3  20
TORSDOF 5
ENDMDL
MODEL 6
REMARK VINA RESULT:      -5.4     20.042     22.698
REMARK  Name = 342374_SipholenolA.pdbqt.pdb
REMARK  5 active torsions:
REMARK  status: ('A' for Active; 'I' for Inactive)
REMARK    1  A    between atoms: C_3  and  C_20
REMARK    2  A    between atoms: C_4  and  O_16
REMARK    3  A    between atoms: C_13  and  O_18
REMARK    4  A    between atoms: C_21  and  C_25
REMARK    5  A    between atoms: C_26  and  O_36
REMARK                            x       y       z     vdW  Elec       q    Type
REMARK                         _______ _______ _______ _____ _____    ______ ____
ROOT
ATOM      1  O   UNL     1      31.303  27.101  91.406  0.00  0.00    +0.000 OA
ATOM      2  C   UNL     1      28.737  27.031  90.928  0.00  0.00    +0.000 C 
ATOM      3  C   UNL     1      27.686  26.674  89.873  0.00  0.00    +0.000 C 
ATOM      4  C   UNL     1      27.909  27.067  88.422  0.00  0.00    +0.000 C 
ATOM      5  C   UNL     1      30.263  26.995  90.476  0.00  0.00    +0.000 C 
ATOM      6  C   UNL     1      28.732  26.034  92.010  0.00  0.00    +0.000 C 
ATOM      7  C   UNL     1      29.321  27.321  88.217  0.00  0.00    +0.000 C 
ATOM      8  C   UNL     1      30.506  27.297  89.122  0.00  0.00    +0.000 C 
ATOM      9  C   UNL     1      28.442  28.448  91.494  0.00  0.00    +0.000 C 
ATOM     10  C   UNL     1      29.670  25.252  92.897  0.00  0.00    +0.000 C 
ATOM     11  C   UNL     1      31.936  25.879  91.910  0.00  0.00    +0.000 C 
ATOM     12  C   UNL     1      27.390  25.978  87.471  0.00  0.00    +0.000 C 
ATOM     13  C   UNL     1      31.075  25.163  92.994  0.00  0.00    +0.000 C 
ATOM     14  C   UNL     1      32.235  24.864  90.769  0.00  0.00    +0.000 C 
ATOM     15  C   UNL     1      33.271  26.303  92.591  0.00  0.00    +0.000 C 
ENDROOT
BRANCH   4  16
ATOM     16  O   UNL     1      27.167  28.222  88.121  0.00  0.00    +0.000 OA
ATOM     17  H   UNL     1      27.806  28.726  87.587  0.00  0.00    +0.000 HD
ENDBRANCH   4  16
BRANCH  13  18
ATOM     18  O   UNL     1      31.635  24.456  94.053  0.00  0.00    +0.000 OA
ATOM     19  H   UNL     1      31.614  24.978  94.883  0.00  0.00    +0.000 HD
ENDBRANCH  13  18
BRANCH   3  20
ATOM     20  C   UNL     1      26.397  26.185  90.288  0.00  0.00    +0.000 C 
ATOM     21  C   UNL     1      25.020  25.680  90.728  0.00  0.00    +0.000 C 
BRANCH  21  25
ATOM     22  C   UNL     1      23.433  23.588  93.183  0.00  0.00    +0.000 C 
ATOM     23  C   UNL     1      23.347  25.037  92.631  0.00  0.00    +0.000 C 
ATOM     24  C   UNL     1      22.669  22.410  92.651  0.00  0.00    +0.000 C 
ATOM     25  C   UNL     1      23.726  25.216  91.141  0.00  0.00    +0.000 C 
ATOM     26  C   UNL     1      22.638  21.234  93.620  0.00  0.00    +0.000 C 
ATOM     27  C   UNL     1      23.901  23.192  94.472  0.00  0.00    +0.000 C 
ATOM     28  C   UNL     1      23.413  21.792  94.722  0.00  0.00    +0.000 C 
ATOM     29  C   UNL     1      22.135  22.524  91.354  0.00  0.00    +0.000 C 
ATOM     30  C   UNL     1      22.805  24.754  90.102  0.00  0.00    +0.000 C 
ATOM     31  C   UNL     1      24.307  25.936  93.498  0.00  0.00    +0.000 C 
ATOM     32  C   UNL     1      21.895  25.570  92.881  0.00  0.00    +0.000 C 
ATOM     33  C   UNL     1      22.242  23.606  90.314  0.00  0.00    +0.000 C 
ATOM     34  C   UNL     1      23.199  19.959  93.006  0.00  0.00    +0.000 C 
ATOM     35  C   UNL     1      22.819  25.259  88.683  0.00  0.00    +0.000 C 
BRANCH  26  36
ATOM     36  O   UNL     1      21.318  20.963  94.015  0.00  0.00    +0.000 OA
ATOM     37  H   UNL     1      21.129  21.739  94.572  0.00  0.00    +0.000 HD
ENDBRANCH  26  36
ENDBRANCH  21  25
ENDBRANCH   3  20
TORSDOF 5
ENDMDL
MODEL 7
REMARK VINA RESULT:      -5.4     34.153     37.339
REMARK  Name = 342374_SipholenolA.pdbqt.pdb
REMARK  5 active torsions:
REMARK  status: ('A' for Active; 'I' for Inactive)
REMARK    1  A    between atoms: C_3  and  C_20
REMARK    2  A    between atoms: C_4  and  O_16
REMARK    3  A    between atoms: C_13  and  O_18
REMARK    4  A    between atoms: C_21  and  C_25
REMARK    5  A    between atoms: C_26  and  O_36
REMARK                            x       y       z     vdW  Elec       q    Type
REMARK                         _______ _______ _______ _____ _____    ______ ____
ROOT
ATOM      1  O   UNL     1      38.346  20.651  84.723  0.00  0.00    +0.000 OA
ATOM      2  C   UNL     1      40.541  21.757  83.839  0.00  0.00    +0.000 C 
ATOM      3  C   UNL     1      41.096  22.760  82.824  0.00  0.00    +0.000 C 
ATOM      4  C   UNL     1      40.561  22.772  81.403  0.00  0.00    +0.000 C 
ATOM      5  C   UNL     1      38.996  21.391  83.728  0.00  0.00    +0.000 C 
ATOM      6  C   UNL     1      40.608  22.316  85.198  0.00  0.00    +0.000 C 
ATOM      7  C   UNL     1      39.269  22.114  81.383  0.00  0.00    +0.000 C 
ATOM      8  C   UNL     1      38.446  21.446  82.432  0.00  0.00    +0.000 C 
ATOM      9  C   UNL     1      41.350  20.433  83.755  0.00  0.00    +0.000 C 
ATOM     10  C   UNL     1      39.808  22.413  86.474  0.00  0.00    +0.000 C 
ATOM     11  C   UNL     1      37.597  21.360  85.764  0.00  0.00    +0.000 C 
ATOM     12  C   UNL     1      40.469  24.206  80.860  0.00  0.00    +0.000 C 
ATOM     13  C   UNL     1      38.525  21.970  86.858  0.00  0.00    +0.000 C 
ATOM     14  C   UNL     1      36.717  22.501  85.174  0.00  0.00    +0.000 C 
ATOM     15  C   UNL     1      36.686  20.312  86.467  0.00  0.00    +0.000 C 
ENDROOT
BRANCH   4  16
ATOM     16  O   UNL     1      41.454  22.099  80.551  0.00  0.00    +0.000 OA
ATOM     17  H   UNL     1      41.411  22.655  79.752  0.00  0.00    +0.000 HD
ENDBRANCH   4  16
BRANCH  13  18
ATOM     18  O   UNL     1      38.143  22.081  88.191  0.00  0.00    +0.000 OA
ATOM     19  H   UNL     1      37.251  22.479  88.276  0.00  0.00    +0.000 HD
ENDBRANCH  13  18
BRANCH   3  20
ATOM     20  C   UNL     1      42.276  23.521  83.146  0.00  0.00    +0.000 C 
ATOM     21  C   UNL     1      43.522  24.337  83.501  0.00  0.00    +0.000 C 
BRANCH  21  25
ATOM     22  C   UNL     1      46.472  24.227  85.552  0.00  0.00    +0.000 C 
ATOM     23  C   UNL     1      46.071  24.459  84.070  0.00  0.00    +0.000 C 
ATOM     24  C   UNL     1      46.589  25.298  86.597  0.00  0.00    +0.000 C 
ATOM     25  C   UNL     1      44.685  25.108  83.839  0.00  0.00    +0.000 C 
ATOM     26  C   UNL     1      47.378  24.852  87.822  0.00  0.00    +0.000 C 
ATOM     27  C   UNL     1      47.163  23.096  86.082  0.00  0.00    +0.000 C 
ATOM     28  C   UNL     1      47.704  23.485  87.430  0.00  0.00    +0.000 C 
ATOM     29  C   UNL     1      45.943  26.521  86.338  0.00  0.00    +0.000 C 
ATOM     30  C   UNL     1      44.499  26.531  84.123  0.00  0.00    +0.000 C 
ATOM     31  C   UNL     1      46.090  23.060  83.345  0.00  0.00    +0.000 C 
ATOM     32  C   UNL     1      47.187  25.324  83.390  0.00  0.00    +0.000 C 
ATOM     33  C   UNL     1      45.053  26.969  85.210  0.00  0.00    +0.000 C 
ATOM     34  C   UNL     1      46.579  24.989  89.110  0.00  0.00    +0.000 C 
ATOM     35  C   UNL     1      43.395  27.368  83.532  0.00  0.00    +0.000 C 
BRANCH  26  36
ATOM     36  O   UNL     1      48.539  25.628  87.965  0.00  0.00    +0.000 OA
ATOM     37  H   UNL     1      48.987  25.157  88.690  0.00  0.00    +0.000 HD
ENDBRANCH  26  36
ENDBRANCH  21  25
ENDBRANCH   3  20
TORSDOF 5
ENDMDL
MODEL 8
REMARK VINA RESULT:      -5.3     16.381     20.377
REMARK  Name = 342374_SipholenolA.pdbqt.pdb
REMARK  5 active torsions:
REMARK  status: ('A' for Active; 'I' for Inactive)
REMARK    1  A    between atoms: C_3  and  C_20
REMARK    2  A    between atoms: C_4  and  O_16
REMARK    3  A    between atoms: C_13  and  O_18
REMARK    4  A    between atoms: C_21  and  C_25
REMARK    5  A    between atoms: C_26  and  O_36
REMARK                            x       y       z     vdW  Elec       q    Type
REMARK                         _______ _______ _______ _____ _____    ______ ____
ROOT
ATOM      1  O   UNL     1       8.608   2.519  84.881  0.00  0.00    +0.000 OA
ATOM      2  C   UNL     1       7.003   4.365  83.966  0.00  0.00    +0.000 C 
ATOM      3  C   UNL     1       5.579   4.627  83.468  0.00  0.00    +0.000 C 
ATOM      4  C   UNL     1       4.910   3.633  82.534  0.00  0.00    +0.000 C 
ATOM      5  C   UNL     1       7.411   2.849  84.235  0.00  0.00    +0.000 C 
ATOM      6  C   UNL     1       7.194   4.956  85.299  0.00  0.00    +0.000 C 
ATOM      7  C   UNL     1       5.591   2.358  82.641  0.00  0.00    +0.000 C 
ATOM      8  C   UNL     1       6.769   1.891  83.427  0.00  0.00    +0.000 C 
ATOM      9  C   UNL     1       8.022   4.959  82.956  0.00  0.00    +0.000 C 
ATOM     10  C   UNL     1       7.825   4.665  86.639  0.00  0.00    +0.000 C 
ATOM     11  C   UNL     1       8.589   2.253  86.322  0.00  0.00    +0.000 C 
ATOM     12  C   UNL     1       3.413   3.499  82.852  0.00  0.00    +0.000 C 
ATOM     13  C   UNL     1       8.522   3.559  87.170  0.00  0.00    +0.000 C 
ATOM     14  C   UNL     1       7.397   1.338  86.731  0.00  0.00    +0.000 C 
ATOM     15  C   UNL     1       9.931   1.546  86.674  0.00  0.00    +0.000 C 
ENDROOT
BRANCH   4  16
ATOM     16  O   UNL     1       4.978   4.103  81.211  0.00  0.00    +0.000 OA
ATOM     17  H   UNL     1       5.670   3.527  80.839  0.00  0.00    +0.000 HD
ENDBRANCH   4  16
BRANCH  13  18
ATOM     18  O   UNL     1       9.129   3.679  88.416  0.00  0.00    +0.000 OA
ATOM     19  H   UNL     1       9.867   4.324  88.393  0.00  0.00    +0.000 HD
ENDBRANCH  13  18
BRANCH   3  20
ATOM     20  C   UNL     1       4.971   5.914  83.691  0.00  0.00    +0.000 C 
ATOM     21  C   UNL     1       4.320   7.282  83.913  0.00  0.00    +0.000 C 
BRANCH  21  25
ATOM     22  C   UNL     1       4.075  10.545  82.426  0.00  0.00    +0.000 C 
ATOM     23  C   UNL     1       3.151   9.407  82.940  0.00  0.00    +0.000 C 
ATOM     24  C   UNL     1       4.588  11.687  83.254  0.00  0.00    +0.000 C 
ATOM     25  C   UNL     1       3.707   8.564  84.112  0.00  0.00    +0.000 C 
ATOM     26  C   UNL     1       5.119  12.841  82.412  0.00  0.00    +0.000 C 
ATOM     27  C   UNL     1       4.272  10.936  81.068  0.00  0.00    +0.000 C 
ATOM     28  C   UNL     1       4.887  12.309  81.075  0.00  0.00    +0.000 C 
ATOM     29  C   UNL     1       4.552  11.533  84.652  0.00  0.00    +0.000 C 
ATOM     30  C   UNL     1       3.760   9.142  85.455  0.00  0.00    +0.000 C 
ATOM     31  C   UNL     1       2.862   8.443  81.728  0.00  0.00    +0.000 C 
ATOM     32  C   UNL     1       1.774  10.040  83.340  0.00  0.00    +0.000 C 
ATOM     33  C   UNL     1       4.158  10.373  85.526  0.00  0.00    +0.000 C 
ATOM     34  C   UNL     1       6.567  13.181  82.738  0.00  0.00    +0.000 C 
ATOM     35  C   UNL     1       3.830   8.326  86.718  0.00  0.00    +0.000 C 
BRANCH  26  36
ATOM     36  O   UNL     1       4.357  13.999  82.636  0.00  0.00    +0.000 OA
ATOM     37  H   UNL     1       3.472  13.616  82.764  0.00  0.00    +0.000 HD
ENDBRANCH  26  36
ENDBRANCH  21  25
ENDBRANCH   3  20
TORSDOF 5
ENDMDL
MODEL 9
REMARK VINA RESULT:      -5.3      2.558      8.586
REMARK  Name = 342374_SipholenolA.pdbqt.pdb
REMARK  5 active torsions:
REMARK  status: ('A' for Active; 'I' for Inactive)
REMARK    1  A    between atoms: C_3  and  C_20
REMARK    2  A    between atoms: C_4  and  O_16
REMARK    3  A    between atoms: C_13  and  O_18
REMARK    4  A    between atoms: C_21  and  C_25
REMARK    5  A    between atoms: C_26  and  O_36
REMARK                            x       y       z     vdW  Elec       q    Type
REMARK                         _______ _______ _______ _____ _____    ______ ____
ROOT
ATOM      1  O   UNL     1      11.212   8.559 103.206  0.00  0.00    +0.000 OA
ATOM      2  C   UNL     1      10.309  10.971 102.772  0.00  0.00    +0.000 C 
ATOM      3  C   UNL     1      10.719  12.442 102.665  0.00  0.00    +0.000 C 
ATOM      4  C   UNL     1      11.699  13.029 103.667  0.00  0.00    +0.000 C 
ATOM      5  C   UNL     1      11.418   9.942 103.269  0.00  0.00    +0.000 C 
ATOM      6  C   UNL     1       9.991  10.432 101.441  0.00  0.00    +0.000 C 
ATOM      7  C   UNL     1      12.435  11.947 104.291  0.00  0.00    +0.000 C 
ATOM      8  C   UNL     1      12.380  10.463 104.156  0.00  0.00    +0.000 C 
ATOM      9  C   UNL     1       9.083  10.842 103.718  0.00  0.00    +0.000 C 
ATOM     10  C   UNL     1      10.185   9.200 100.590  0.00  0.00    +0.000 C 
ATOM     11  C   UNL     1      11.738   7.812 102.061  0.00  0.00    +0.000 C 
ATOM     12  C   UNL     1      12.644  14.033 102.990  0.00  0.00    +0.000 C 
ATOM     13  C   UNL     1      10.858   7.975 100.785  0.00  0.00    +0.000 C 
ATOM     14  C   UNL     1      13.196   8.233 101.710  0.00  0.00    +0.000 C 
ATOM     15  C   UNL     1      11.711   6.304 102.447  0.00  0.00    +0.000 C 
ENDROOT
BRANCH   4  16
ATOM     16  O   UNL     1      11.002  13.760 104.644  0.00  0.00    +0.000 OA
ATOM     17  H   UNL     1      11.357  14.655 104.502  0.00  0.00    +0.000 HD
ENDBRANCH   4  16
BRANCH  13  18
ATOM     18  O   UNL     1      10.702   6.963  99.844  0.00  0.00    +0.000 OA
ATOM     19  H   UNL     1      11.424   6.302  99.906  0.00  0.00    +0.000 HD
ENDBRANCH  13  18
BRANCH   3  20
ATOM     20  C   UNL     1      10.004  13.318 101.773  0.00  0.00    +0.000 C 
ATOM     21  C   UNL     1       9.230  14.250 100.835  0.00  0.00    +0.000 C 
BRANCH  21  25
ATOM     22  C   UNL     1       6.080  14.522  99.125  0.00  0.00    +0.000 C 
ATOM     23  C   UNL     1       6.972  15.340 100.098  0.00  0.00    +0.000 C 
ATOM     24  C   UNL     1       6.148  14.585  97.626  0.00  0.00    +0.000 C 
ATOM     25  C   UNL     1       8.498  15.122  99.962  0.00  0.00    +0.000 C 
ATOM     26  C   UNL     1       4.912  14.003  96.950  0.00  0.00    +0.000 C 
ATOM     27  C   UNL     1       4.831  13.904  99.428  0.00  0.00    +0.000 C 
ATOM     28  C   UNL     1       4.142  13.607  98.124  0.00  0.00    +0.000 C 
ATOM     29  C   UNL     1       7.319  15.118  97.058  0.00  0.00    +0.000 C 
ATOM     30  C   UNL     1       9.209  15.691  98.816  0.00  0.00    +0.000 C 
ATOM     31  C   UNL     1       6.546  14.963 101.567  0.00  0.00    +0.000 C 
ATOM     32  C   UNL     1       6.630  16.859  99.915  0.00  0.00    +0.000 C 
ATOM     33  C   UNL     1       8.610  15.589  97.671  0.00  0.00    +0.000 C 
ATOM     34  C   UNL     1       5.254  12.878  95.983  0.00  0.00    +0.000 C 
ATOM     35  C   UNL     1      10.691  15.952  98.794  0.00  0.00    +0.000 C 
BRANCH  26  36
ATOM     36  O   UNL     1       4.243  14.995  96.217  0.00  0.00    +0.000 OA
ATOM     37  H   UNL     1       4.907  15.707  96.221  0.00  0.00    +0.000 HD
ENDBRANCH  26  36
ENDBRANCH  21  25
ENDBRANCH   3  20
TORSDOF 5
ENDMDL
