MODEL 1
REMARK VINA RESULT:      -4.3      0.000      0.000
REMARK  Name = 43806_Diaminocyclohexane.pdbqt.pdb
REMARK  2 active torsions:
REMARK  status: ('A' for Active; 'I' for Inactive)
REMARK    1  A    between atoms: C_1  and  N_7
REMARK    2  A    between atoms: C_2  and  N_10
REMARK                            x       y       z     vdW  Elec       q    Type
REMARK                         _______ _______ _______ _____ _____    ______ ____
ROOT
ATOM      1  C   UNL     1      56.720  35.581  81.395  0.00  0.00    +0.000 A 
ATOM      2  C   UNL     1      57.785  35.440  82.412  0.00  0.00    +0.000 A 
ATOM      3  C   UNL     1      56.635  34.509  80.448  0.00  0.00    +0.000 A 
ATOM      4  C   UNL     1      58.555  34.234  82.324  0.00  0.00    +0.000 A 
ATOM      5  C   UNL     1      57.427  33.202  80.286  0.00  0.00    +0.000 A 
ATOM      6  C   UNL     1      58.514  33.045  81.352  0.00  0.00    +0.000 A 
ENDROOT
BRANCH   1   7
ATOM      7  N   UNL     1      55.799  36.655  81.397  0.00  0.00    +0.000 N 
ATOM      8  H   UNL     1      54.867  36.389  81.095  0.00  0.00    +0.000 HD
ATOM      9  H   UNL     1      56.130  37.496  80.934  0.00  0.00    +0.000 HD
ENDBRANCH   1   7
BRANCH   2  10
ATOM     10  N   UNL     1      58.079  36.451  83.357  0.00  0.00    +0.000 N 
ATOM     11  H   UNL     1      57.679  37.354  83.122  0.00  0.00    +0.000 HD
ATOM     12  H   UNL     1      59.059  36.518  83.610  0.00  0.00    +0.000 HD
ENDBRANCH   2  10
TORSDOF 2
ENDMDL
MODEL 2
REMARK VINA RESULT:      -4.3      1.044      2.538
REMARK  Name = 43806_Diaminocyclohexane.pdbqt.pdb
REMARK  2 active torsions:
REMARK  status: ('A' for Active; 'I' for Inactive)
REMARK    1  A    between atoms: C_1  and  N_7
REMARK    2  A    between atoms: C_2  and  N_10
REMARK                            x       y       z     vdW  Elec       q    Type
REMARK                         _______ _______ _______ _____ _____    ______ ____
ROOT
ATOM      1  C   UNL     1      56.629  35.485  81.399  0.00  0.00    +0.000 A 
ATOM      2  C   UNL     1      56.447  34.620  80.213  0.00  0.00    +0.000 A 
ATOM      3  C   UNL     1      57.668  35.078  82.298  0.00  0.00    +0.000 A 
ATOM      4  C   UNL     1      57.359  33.518  80.117  0.00  0.00    +0.000 A 
ATOM      5  C   UNL     1      58.670  33.912  82.266  0.00  0.00    +0.000 A 
ATOM      6  C   UNL     1      58.496  33.030  81.029  0.00  0.00    +0.000 A 
ENDROOT
BRANCH   1   7
ATOM      7  N   UNL     1      55.889  36.675  81.599  0.00  0.00    +0.000 N 
ATOM      8  H   UNL     1      54.917  36.599  81.315  0.00  0.00    +0.000 HD
ATOM      9  H   UNL     1      56.333  37.513  81.237  0.00  0.00    +0.000 HD
ENDBRANCH   1   7
BRANCH   2  10
ATOM     10  N   UNL     1      55.402  34.813  79.279  0.00  0.00    +0.000 N 
ATOM     11  H   UNL     1      55.528  34.291  78.417  0.00  0.00    +0.000 HD
ATOM     12  H   UNL     1      55.161  35.784  79.111  0.00  0.00    +0.000 HD
ENDBRANCH   2  10
TORSDOF 2
ENDMDL
MODEL 3
REMARK VINA RESULT:      -4.1      2.067      2.564
REMARK  Name = 43806_Diaminocyclohexane.pdbqt.pdb
REMARK  2 active torsions:
REMARK  status: ('A' for Active; 'I' for Inactive)
REMARK    1  A    between atoms: C_1  and  N_7
REMARK    2  A    between atoms: C_2  and  N_10
REMARK                            x       y       z     vdW  Elec       q    Type
REMARK                         _______ _______ _______ _____ _____    ______ ____
ROOT
ATOM      1  C   UNL     1      56.312  35.334  79.293  0.00  0.00    +0.000 A 
ATOM      2  C   UNL     1      56.666  35.773  80.661  0.00  0.00    +0.000 A 
ATOM      3  C   UNL     1      57.423  35.012  78.449  0.00  0.00    +0.000 A 
ATOM      4  C   UNL     1      58.069  35.782  80.954  0.00  0.00    +0.000 A 
ATOM      5  C   UNL     1      58.942  35.008  78.688  0.00  0.00    +0.000 A 
ATOM      6  C   UNL     1      59.307  35.442  80.109  0.00  0.00    +0.000 A 
ENDROOT
BRANCH   1   7
ATOM      7  N   UNL     1      54.973  35.165  78.868  0.00  0.00    +0.000 N 
ATOM      8  H   UNL     1      54.301  35.184  79.628  0.00  0.00    +0.000 HD
ATOM      9  H   UNL     1      54.826  34.379  78.241  0.00  0.00    +0.000 HD
ENDBRANCH   1   7
BRANCH   2  10
ATOM     10  N   UNL     1      55.703  36.229  81.591  0.00  0.00    +0.000 N 
ATOM     11  H   UNL     1      54.953  36.767  81.168  0.00  0.00    +0.000 HD
ATOM     12  H   UNL     1      56.091  36.685  82.410  0.00  0.00    +0.000 HD
ENDBRANCH   2  10
TORSDOF 2
ENDMDL
MODEL 4
REMARK VINA RESULT:      -4.0      2.632      3.236
REMARK  Name = 43806_Diaminocyclohexane.pdbqt.pdb
REMARK  2 active torsions:
REMARK  status: ('A' for Active; 'I' for Inactive)
REMARK    1  A    between atoms: C_1  and  N_7
REMARK    2  A    between atoms: C_2  and  N_10
REMARK                            x       y       z     vdW  Elec       q    Type
REMARK                         _______ _______ _______ _____ _____    ______ ____
ROOT
ATOM      1  C   UNL     1      57.842  36.852  78.984  0.00  0.00    +0.000 A 
ATOM      2  C   UNL     1      57.905  35.924  80.135  0.00  0.00    +0.000 A 
ATOM      3  C   UNL     1      56.777  36.604  78.058  0.00  0.00    +0.000 A 
ATOM      4  C   UNL     1      56.871  34.933  80.175  0.00  0.00    +0.000 A 
ATOM      5  C   UNL     1      55.647  35.561  78.030  0.00  0.00    +0.000 A 
ATOM      6  C   UNL     1      55.700  34.616  79.232  0.00  0.00    +0.000 A 
ENDROOT
BRANCH   1   7
ATOM      7  N   UNL     1      58.718  37.954  78.842  0.00  0.00    +0.000 N 
ATOM      8  H   UNL     1      59.646  37.784  79.216  0.00  0.00    +0.000 HD
ATOM      9  H   UNL     1      58.332  38.841  79.151  0.00  0.00    +0.000 HD
ENDBRANCH   1   7
BRANCH   2  10
ATOM     10  N   UNL     1      58.950  35.957  81.087  0.00  0.00    +0.000 N 
ATOM     11  H   UNL     1      58.629  36.117  82.036  0.00  0.00    +0.000 HD
ATOM     12  H   UNL     1      59.729  36.557  80.837  0.00  0.00    +0.000 HD
ENDBRANCH   2  10
TORSDOF 2
ENDMDL
MODEL 5
REMARK VINA RESULT:      -4.0      2.655      3.719
REMARK  Name = 43806_Diaminocyclohexane.pdbqt.pdb
REMARK  2 active torsions:
REMARK  status: ('A' for Active; 'I' for Inactive)
REMARK    1  A    between atoms: C_1  and  N_7
REMARK    2  A    between atoms: C_2  and  N_10
REMARK                            x       y       z     vdW  Elec       q    Type
REMARK                         _______ _______ _______ _____ _____    ______ ____
ROOT
ATOM      1  C   UNL     1      57.960  35.928  80.095  0.00  0.00    +0.000 A 
ATOM      2  C   UNL     1      57.853  36.865  78.955  0.00  0.00    +0.000 A 
ATOM      3  C   UNL     1      56.939  34.925  80.158  0.00  0.00    +0.000 A 
ATOM      4  C   UNL     1      56.762  36.613  78.060  0.00  0.00    +0.000 A 
ATOM      5  C   UNL     1      55.742  34.603  79.248  0.00  0.00    +0.000 A 
ATOM      6  C   UNL     1      55.644  35.559  78.057  0.00  0.00    +0.000 A 
ENDROOT
BRANCH   1   7
ATOM      7  N   UNL     1      59.034  35.964  81.015  0.00  0.00    +0.000 N 
ATOM      8  H   UNL     1      59.246  35.060  81.425  0.00  0.00    +0.000 HD
ATOM      9  H   UNL     1      58.966  36.699  81.713  0.00  0.00    +0.000 HD
ENDBRANCH   1   7
BRANCH   2  10
ATOM     10  N   UNL     1      58.711  37.978  78.797  0.00  0.00    +0.000 N 
ATOM     11  H   UNL     1      58.447  38.589  78.030  0.00  0.00    +0.000 HD
ATOM     12  H   UNL     1      59.700  37.749  78.784  0.00  0.00    +0.000 HD
ENDBRANCH   2  10
TORSDOF 2
ENDMDL
MODEL 6
REMARK VINA RESULT:      -4.0      1.644      1.912
REMARK  Name = 43806_Diaminocyclohexane.pdbqt.pdb
REMARK  2 active torsions:
REMARK  status: ('A' for Active; 'I' for Inactive)
REMARK    1  A    between atoms: C_1  and  N_7
REMARK    2  A    between atoms: C_2  and  N_10
REMARK                            x       y       z     vdW  Elec       q    Type
REMARK                         _______ _______ _______ _____ _____    ______ ____
ROOT
ATOM      1  C   UNL     1      56.694  35.954  81.062  0.00  0.00    +0.000 A 
ATOM      2  C   UNL     1      57.605  34.888  81.533  0.00  0.00    +0.000 A 
ATOM      3  C   UNL     1      56.762  36.239  79.659  0.00  0.00    +0.000 A 
ATOM      4  C   UNL     1      58.400  34.271  80.513  0.00  0.00    +0.000 A 
ATOM      5  C   UNL     1      57.591  35.631  78.516  0.00  0.00    +0.000 A 
ATOM      6  C   UNL     1      58.518  34.514  79.001  0.00  0.00    +0.000 A 
ENDROOT
BRANCH   1   7
ATOM      7  N   UNL     1      55.763  36.596  81.913  0.00  0.00    +0.000 N 
ATOM      8  H   UNL     1      55.836  36.308  82.883  0.00  0.00    +0.000 HD
ATOM      9  H   UNL     1      54.806  36.583  81.576  0.00  0.00    +0.000 HD
ENDBRANCH   1   7
BRANCH   2  10
ATOM     10  N   UNL     1      57.745  34.551  82.900  0.00  0.00    +0.000 N 
ATOM     11  H   UNL     1      56.867  34.313  83.351  0.00  0.00    +0.000 HD
ATOM     12  H   UNL     1      58.290  35.212  83.443  0.00  0.00    +0.000 HD
ENDBRANCH   2  10
TORSDOF 2
ENDMDL
MODEL 7
REMARK VINA RESULT:      -3.8      3.080      3.831
REMARK  Name = 43806_Diaminocyclohexane.pdbqt.pdb
REMARK  2 active torsions:
REMARK  status: ('A' for Active; 'I' for Inactive)
REMARK    1  A    between atoms: C_1  and  N_7
REMARK    2  A    between atoms: C_2  and  N_10
REMARK                            x       y       z     vdW  Elec       q    Type
REMARK                         _______ _______ _______ _____ _____    ______ ____
ROOT
ATOM      1  C   UNL     1      56.559  36.213  79.971  0.00  0.00    +0.000 A 
ATOM      2  C   UNL     1      58.000  36.512  79.820  0.00  0.00    +0.000 A 
ATOM      3  C   UNL     1      55.713  36.753  78.948  0.00  0.00    +0.000 A 
ATOM      4  C   UNL     1      58.346  37.270  78.654  0.00  0.00    +0.000 A 
ATOM      5  C   UNL     1      56.010  37.577  77.685  0.00  0.00    +0.000 A 
ATOM      6  C   UNL     1      57.502  37.868  77.517  0.00  0.00    +0.000 A 
ENDROOT
BRANCH   1   7
ATOM      7  N   UNL     1      56.053  35.389  81.004  0.00  0.00    +0.000 N 
ATOM      8  H   UNL     1      56.012  34.406  80.754  0.00  0.00    +0.000 HD
ATOM      9  H   UNL     1      55.188  35.718  81.420  0.00  0.00    +0.000 HD
ENDBRANCH   1   7
BRANCH   2  10
ATOM     10  N   UNL     1      58.962  36.148  80.791  0.00  0.00    +0.000 N 
ATOM     11  H   UNL     1      59.573  35.394  80.494  0.00  0.00    +0.000 HD
ATOM     12  H   UNL     1      58.585  35.995  81.721  0.00  0.00    +0.000 HD
ENDBRANCH   2  10
TORSDOF 2
ENDMDL
MODEL 8
REMARK VINA RESULT:      -3.7      4.318      5.691
REMARK  Name = 43806_Diaminocyclohexane.pdbqt.pdb
REMARK  2 active torsions:
REMARK  status: ('A' for Active; 'I' for Inactive)
REMARK    1  A    between atoms: C_1  and  N_7
REMARK    2  A    between atoms: C_2  and  N_10
REMARK                            x       y       z     vdW  Elec       q    Type
REMARK                         _______ _______ _______ _____ _____    ______ ____
ROOT
ATOM      1  C   UNL     1      55.924  35.826  77.624  0.00  0.00    +0.000 A 
ATOM      2  C   UNL     1      55.587  36.966  76.742  0.00  0.00    +0.000 A 
ATOM      3  C   UNL     1      57.101  35.999  78.422  0.00  0.00    +0.000 A 
ATOM      4  C   UNL     1      56.468  38.092  76.839  0.00  0.00    +0.000 A 
ATOM      5  C   UNL     1      58.093  37.165  78.569  0.00  0.00    +0.000 A 
ATOM      6  C   UNL     1      57.733  38.351  77.673  0.00  0.00    +0.000 A 
ENDROOT
BRANCH   1   7
ATOM      7  N   UNL     1      55.104  34.678  77.735  0.00  0.00    +0.000 N 
ATOM      8  H   UNL     1      55.149  34.068  76.924  0.00  0.00    +0.000 HD
ATOM      9  H   UNL     1      54.150  34.868  78.024  0.00  0.00    +0.000 HD
ENDBRANCH   1   7
BRANCH   2  10
ATOM     10  N   UNL     1      54.522  36.924  75.812  0.00  0.00    +0.000 N 
ATOM     11  H   UNL     1      53.894  37.718  75.879  0.00  0.00    +0.000 HD
ATOM     12  H   UNL     1      54.025  36.040  75.780  0.00  0.00    +0.000 HD
ENDBRANCH   2  10
TORSDOF 2
ENDMDL
MODEL 9
REMARK VINA RESULT:      -3.7      3.000      3.560
REMARK  Name = 43806_Diaminocyclohexane.pdbqt.pdb
REMARK  2 active torsions:
REMARK  status: ('A' for Active; 'I' for Inactive)
REMARK    1  A    between atoms: C_1  and  N_7
REMARK    2  A    between atoms: C_2  and  N_10
REMARK                            x       y       z     vdW  Elec       q    Type
REMARK                         _______ _______ _______ _____ _____    ______ ____
ROOT
ATOM      1  C   UNL     1      58.212  36.633  79.158  0.00  0.00    +0.000 A 
ATOM      2  C   UNL     1      58.764  35.365  78.633  0.00  0.00    +0.000 A 
ATOM      3  C   UNL     1      57.157  36.490  80.116  0.00  0.00    +0.000 A 
ATOM      4  C   UNL     1      58.186  34.175  79.185  0.00  0.00    +0.000 A 
ATOM      5  C   UNL     1      56.483  35.257  80.741  0.00  0.00    +0.000 A 
ATOM      6  C   UNL     1      57.069  33.945  80.215  0.00  0.00    +0.000 A 
ENDROOT
BRANCH   1   7
ATOM      7  N   UNL     1      58.736  37.899  78.803  0.00  0.00    +0.000 N 
ATOM      8  H   UNL     1      59.737  37.891  78.638  0.00  0.00    +0.000 HD
ATOM      9  H   UNL     1      58.450  38.659  79.413  0.00  0.00    +0.000 HD
ENDBRANCH   1   7
BRANCH   2  10
ATOM     10  N   UNL     1      59.735  35.320  77.606  0.00  0.00    +0.000 N 
ATOM     11  H   UNL     1      60.654  35.035  77.928  0.00  0.00    +0.000 HD
ATOM     12  H   UNL     1      59.771  36.151  77.024  0.00  0.00    +0.000 HD
ENDBRANCH   2  10
TORSDOF 2
ENDMDL
