MODEL 1
REMARK VINA RESULT:      -6.0      0.000      0.000
REMARK  Name = 44234954_SipholenolL.pdbqt.pdb
REMARK  5 active torsions:
REMARK  status: ('A' for Active; 'I' for Inactive)
REMARK    1  A    between atoms: C_3  and  C_20
REMARK    2  A    between atoms: C_4  and  O_16
REMARK    3  A    between atoms: C_13  and  O_18
REMARK    4  A    between atoms: C_21  and  C_25
REMARK    5  A    between atoms: C_26  and  O_36
REMARK                            x       y       z     vdW  Elec       q    Type
REMARK                         _______ _______ _______ _____ _____    ______ ____
ROOT
ATOM      1  O   UNL     1      -0.556   6.926  96.728  0.00  0.00    +0.000 OA
ATOM      2  C   UNL     1      -0.358   9.467  96.184  0.00  0.00    +0.000 C 
ATOM      3  C   UNL     1      -0.164  10.461  95.037  0.00  0.00    +0.000 C 
ATOM      4  C   UNL     1      -0.985  10.309  93.769  0.00  0.00    +0.000 C 
ATOM      5  C   UNL     1      -0.576   7.945  95.771  0.00  0.00    +0.000 C 
ATOM      6  C   UNL     1       0.859   9.362  97.004  0.00  0.00    +0.000 C 
ATOM      7  C   UNL     1      -1.388   8.921  93.643  0.00  0.00    +0.000 C 
ATOM      8  C   UNL     1      -1.225   7.736  94.537  0.00  0.00    +0.000 C 
ATOM      9  C   UNL     1      -1.554   9.910  97.066  0.00  0.00    +0.000 C 
ATOM     10  C   UNL     1       1.732   8.336  97.681  0.00  0.00    +0.000 C 
ATOM     11  C   UNL     1       0.671   6.136  96.927  0.00  0.00    +0.000 C 
ATOM     12  C   UNL     1      -2.141  11.304  93.713  0.00  0.00    +0.000 C 
ATOM     13  C   UNL     1       1.746   6.923  97.748  0.00  0.00    +0.000 C 
ATOM     14  C   UNL     1       0.235   4.885  97.737  0.00  0.00    +0.000 C 
ATOM     15  C   UNL     1       1.294   5.715  95.560  0.00  0.00    +0.000 C 
ENDROOT
BRANCH   4  16
ATOM     16  O   UNL     1      -0.172  10.632  92.660  0.00  0.00    +0.000 OA
ATOM     17  H   UNL     1       0.198   9.756  92.444  0.00  0.00    +0.000 HD
ENDBRANCH   4  16
BRANCH  13  18
ATOM     18  O   UNL     1       2.828   6.287  98.344  0.00  0.00    +0.000 OA
ATOM     19  H   UNL     1       3.651   6.398  97.836  0.00  0.00    +0.000 HD
ENDBRANCH  13  18
BRANCH   3  20
ATOM     20  C   UNL     1       0.739  11.571  95.168  0.00  0.00    +0.000 C 
ATOM     21  C   UNL     1       1.699  12.752  95.344  0.00  0.00    +0.000 C 
BRANCH  21  25
ATOM     22  C   UNL     1       3.758  13.709  96.574  0.00  0.00    +0.000 A 
ATOM     23  C   UNL     1       4.759  14.913  96.766  0.00  0.00    +0.000 A 
ATOM     24  C   UNL     1       3.889  12.373  97.417  0.00  0.00    +0.000 C 
ATOM     25  C   UNL     1       2.604  13.838  95.556  0.00  0.00    +0.000 A 
ATOM     26  C   UNL     1       5.987  14.992  97.702  0.00  0.00    +0.000 C 
ATOM     27  C   UNL     1       5.043  12.591  98.294  0.00  0.00    +0.000 C 
ATOM     28  C   UNL     1       5.993  13.749  98.447  0.00  0.00    +0.000 C 
ATOM     29  C   UNL     1       4.369  16.022  95.958  0.00  0.00    +0.000 A 
ATOM     30  C   UNL     1       2.360  15.076  94.764  0.00  0.00    +0.000 A 
ATOM     31  C   UNL     1       4.184  11.186  96.469  0.00  0.00    +0.000 C 
ATOM     32  C   UNL     1       2.627  12.168  98.281  0.00  0.00    +0.000 C 
ATOM     33  C   UNL     1       3.203  16.026  95.014  0.00  0.00    +0.000 A 
ATOM     34  C   UNL     1       7.268  15.234  96.916  0.00  0.00    +0.000 C 
ATOM     35  C   UNL     1       1.353  15.239  93.663  0.00  0.00    +0.000 C 
BRANCH  26  36
ATOM     36  O   UNL     1       5.836  16.073  98.586  0.00  0.00    +0.000 OA
ATOM     37  H   UNL     1       6.563  15.902  99.213  0.00  0.00    +0.000 HD
ENDBRANCH  26  36
ENDBRANCH  21  25
ENDBRANCH   3  20
TORSDOF 5
ENDMDL
MODEL 2
REMARK VINA RESULT:      -5.8     38.156     43.538
REMARK  Name = 44234954_SipholenolL.pdbqt.pdb
REMARK  5 active torsions:
REMARK  status: ('A' for Active; 'I' for Inactive)
REMARK    1  A    between atoms: C_3  and  C_20
REMARK    2  A    between atoms: C_4  and  O_16
REMARK    3  A    between atoms: C_13  and  O_18
REMARK    4  A    between atoms: C_21  and  C_25
REMARK    5  A    between atoms: C_26  and  O_36
REMARK                            x       y       z     vdW  Elec       q    Type
REMARK                         _______ _______ _______ _____ _____    ______ ____
ROOT
ATOM      1  O   UNL     1      37.540  20.342  83.073  0.00  0.00    +0.000 OA
ATOM      2  C   UNL     1      40.077  20.827  82.728  0.00  0.00    +0.000 C 
ATOM      3  C   UNL     1      41.473  20.453  83.230  0.00  0.00    +0.000 C 
ATOM      4  C   UNL     1      41.834  18.991  83.419  0.00  0.00    +0.000 C 
ATOM      5  C   UNL     1      38.867  19.964  83.298  0.00  0.00    +0.000 C 
ATOM      6  C   UNL     1      39.696  22.174  83.179  0.00  0.00    +0.000 C 
ATOM      7  C   UNL     1      40.613  18.239  83.639  0.00  0.00    +0.000 C 
ATOM      8  C   UNL     1      39.170  18.623  83.612  0.00  0.00    +0.000 C 
ATOM      9  C   UNL     1      40.040  20.757  81.179  0.00  0.00    +0.000 C 
ATOM     10  C   UNL     1      38.525  22.931  83.754  0.00  0.00    +0.000 C 
ATOM     11  C   UNL     1      36.805  21.075  84.118  0.00  0.00    +0.000 C 
ATOM     12  C   UNL     1      42.698  18.462  82.277  0.00  0.00    +0.000 C 
ATOM     13  C   UNL     1      37.222  22.583  84.178  0.00  0.00    +0.000 C 
ATOM     14  C   UNL     1      35.307  20.983  83.717  0.00  0.00    +0.000 C 
ATOM     15  C   UNL     1      37.038  20.436  85.522  0.00  0.00    +0.000 C 
ENDROOT
BRANCH   4  16
ATOM     16  O   UNL     1      42.640  18.867  84.573  0.00  0.00    +0.000 OA
ATOM     17  H   UNL     1      42.329  18.011  84.921  0.00  0.00    +0.000 HD
ENDBRANCH   4  16
BRANCH  13  18
ATOM     18  O   UNL     1      36.448  23.535  84.831  0.00  0.00    +0.000 OA
ATOM     19  H   UNL     1      36.044  23.190  85.647  0.00  0.00    +0.000 HD
ENDBRANCH  13  18
BRANCH   3  20
ATOM     20  C   UNL     1      42.467  21.465  83.466  0.00  0.00    +0.000 C 
ATOM     21  C   UNL     1      43.539  22.537  83.685  0.00  0.00    +0.000 C 
BRANCH  21  25
ATOM     22  C   UNL     1      44.154  24.997  84.170  0.00  0.00    +0.000 A 
ATOM     23  C   UNL     1      45.287  26.078  84.363  0.00  0.00    +0.000 A 
ATOM     24  C   UNL     1      42.618  25.371  84.283  0.00  0.00    +0.000 C 
ATOM     25  C   UNL     1      44.545  23.541  83.839  0.00  0.00    +0.000 A 
ATOM     26  C   UNL     1      45.128  27.574  84.720  0.00  0.00    +0.000 C 
ATOM     27  C   UNL     1      42.598  26.809  84.567  0.00  0.00    +0.000 C 
ATOM     28  C   UNL     1      43.699  27.817  84.761  0.00  0.00    +0.000 C 
ATOM     29  C   UNL     1      46.571  25.506  84.122  0.00  0.00    +0.000 A 
ATOM     30  C   UNL     1      45.957  23.106  83.650  0.00  0.00    +0.000 A 
ATOM     31  C   UNL     1      41.982  24.607  85.470  0.00  0.00    +0.000 C 
ATOM     32  C   UNL     1      41.910  25.110  82.937  0.00  0.00    +0.000 C 
ATOM     33  C   UNL     1      46.817  24.064  83.786  0.00  0.00    +0.000 A 
ATOM     34  C   UNL     1      45.838  27.913  86.023  0.00  0.00    +0.000 C 
ATOM     35  C   UNL     1      46.433  21.695  83.462  0.00  0.00    +0.000 C 
BRANCH  26  36
ATOM     36  O   UNL     1      45.712  28.362  83.714  0.00  0.00    +0.000 OA
ATOM     37  H   UNL     1      45.108  28.189  82.969  0.00  0.00    +0.000 HD
ENDBRANCH  26  36
ENDBRANCH  21  25
ENDBRANCH   3  20
TORSDOF 5
ENDMDL
MODEL 3
REMARK VINA RESULT:      -5.4     22.958     27.357
REMARK  Name = 44234954_SipholenolL.pdbqt.pdb
REMARK  5 active torsions:
REMARK  status: ('A' for Active; 'I' for Inactive)
REMARK    1  A    between atoms: C_3  and  C_20
REMARK    2  A    between atoms: C_4  and  O_16
REMARK    3  A    between atoms: C_13  and  O_18
REMARK    4  A    between atoms: C_21  and  C_25
REMARK    5  A    between atoms: C_26  and  O_36
REMARK                            x       y       z     vdW  Elec       q    Type
REMARK                         _______ _______ _______ _____ _____    ______ ____
ROOT
ATOM      1  O   UNL     1      29.761  12.075  88.082  0.00  0.00    +0.000 OA
ATOM      2  C   UNL     1      28.336   9.940  88.532  0.00  0.00    +0.000 C 
ATOM      3  C   UNL     1      28.309   8.423  88.333  0.00  0.00    +0.000 C 
ATOM      4  C   UNL     1      29.542   7.603  88.663  0.00  0.00    +0.000 C 
ATOM      5  C   UNL     1      29.689  10.680  88.139  0.00  0.00    +0.000 C 
ATOM      6  C   UNL     1      27.381  10.609  87.635  0.00  0.00    +0.000 C 
ATOM      7  C   UNL     1      30.708   8.461  88.561  0.00  0.00    +0.000 C 
ATOM      8  C   UNL     1      30.867   9.923  88.305  0.00  0.00    +0.000 C 
ATOM      9  C   UNL     1      28.004  10.281  90.008  0.00  0.00    +0.000 C 
ATOM     10  C   UNL     1      27.269  11.804  86.722  0.00  0.00    +0.000 C 
ATOM     11  C   UNL     1      29.639  12.759  86.784  0.00  0.00    +0.000 C 
ATOM     12  C   UNL     1      29.410   6.882  90.001  0.00  0.00    +0.000 C 
ATOM     13  C   UNL     1      28.154  12.818  86.291  0.00  0.00    +0.000 C 
ATOM     14  C   UNL     1      30.147  14.207  87.025  0.00  0.00    +0.000 C 
ATOM     15  C   UNL     1      30.500  12.050  85.693  0.00  0.00    +0.000 C 
ENDROOT
BRANCH   4  16
ATOM     16  O   UNL     1      29.672   6.572  87.706  0.00  0.00    +0.000 OA
ATOM     17  H   UNL     1      29.614   5.784  88.278  0.00  0.00    +0.000 HD
ENDBRANCH   4  16
BRANCH  13  18
ATOM     18  O   UNL     1      27.746  13.687  85.286  0.00  0.00    +0.000 OA
ATOM     19  H   UNL     1      27.952  14.616  85.492  0.00  0.00    +0.000 HD
ENDBRANCH  13  18
BRANCH   3  20
ATOM     20  C   UNL     1      27.111   7.759  87.897  0.00  0.00    +0.000 C 
ATOM     21  C   UNL     1      25.816   7.068  87.457  0.00  0.00    +0.000 C 
BRANCH  21  25
ATOM     22  C   UNL     1      23.418   7.324  86.535  0.00  0.00    +0.000 A 
ATOM     23  C   UNL     1      22.077   6.624  86.088  0.00  0.00    +0.000 A 
ATOM     24  C   UNL     1      23.597   8.898  86.474  0.00  0.00    +0.000 C 
ATOM     25  C   UNL     1      24.582   6.460  87.069  0.00  0.00    +0.000 A 
ATOM     26  C   UNL     1      20.805   7.282  85.505  0.00  0.00    +0.000 C 
ATOM     27  C   UNL     1      22.320   9.404  85.963  0.00  0.00    +0.000 C 
ATOM     28  C   UNL     1      21.058   8.710  85.528  0.00  0.00    +0.000 C 
ATOM     29  C   UNL     1      22.142   5.219  86.325  0.00  0.00    +0.000 A 
ATOM     30  C   UNL     1      24.486   4.982  87.224  0.00  0.00    +0.000 A 
ATOM     31  C   UNL     1      24.726   9.255  85.477  0.00  0.00    +0.000 C 
ATOM     32  C   UNL     1      23.834   9.457  87.893  0.00  0.00    +0.000 C 
ATOM     33  C   UNL     1      23.338   4.497  86.872  0.00  0.00    +0.000 A 
ATOM     34  C   UNL     1      20.489   6.746  84.116  0.00  0.00    +0.000 C 
ATOM     35  C   UNL     1      25.605   4.057  87.604  0.00  0.00    +0.000 C 
BRANCH  26  36
ATOM     36  O   UNL     1      19.704   6.984  86.324  0.00  0.00    +0.000 OA
ATOM     37  H   UNL     1      19.919   6.074  86.600  0.00  0.00    +0.000 HD
ENDBRANCH  26  36
ENDBRANCH  21  25
ENDBRANCH   3  20
TORSDOF 5
ENDMDL
MODEL 4
REMARK VINA RESULT:      -5.4     51.465     56.054
REMARK  Name = 44234954_SipholenolL.pdbqt.pdb
REMARK  5 active torsions:
REMARK  status: ('A' for Active; 'I' for Inactive)
REMARK    1  A    between atoms: C_3  and  C_20
REMARK    2  A    between atoms: C_4  and  O_16
REMARK    3  A    between atoms: C_13  and  O_18
REMARK    4  A    between atoms: C_21  and  C_25
REMARK    5  A    between atoms: C_26  and  O_36
REMARK                            x       y       z     vdW  Elec       q    Type
REMARK                         _______ _______ _______ _____ _____    ______ ____
ROOT
ATOM      1  O   UNL     1      44.536  28.144  68.954  0.00  0.00    +0.000 OA
ATOM      2  C   UNL     1      45.644  25.816  68.572  0.00  0.00    +0.000 C 
ATOM      3  C   UNL     1      46.071  24.533  69.288  0.00  0.00    +0.000 C 
ATOM      4  C   UNL     1      45.111  23.857  70.250  0.00  0.00    +0.000 C 
ATOM      5  C   UNL     1      44.802  26.857  69.433  0.00  0.00    +0.000 C 
ATOM      6  C   UNL     1      46.812  26.634  68.210  0.00  0.00    +0.000 C 
ATOM      7  C   UNL     1      44.187  24.855  70.756  0.00  0.00    +0.000 C 
ATOM      8  C   UNL     1      43.980  26.298  70.433  0.00  0.00    +0.000 C 
ATOM      9  C   UNL     1      44.830  25.461  67.301  0.00  0.00    +0.000 C 
ATOM     10  C   UNL     1      47.289  28.064  68.214  0.00  0.00    +0.000 C 
ATOM     11  C   UNL     1      45.372  29.273  69.395  0.00  0.00    +0.000 C 
ATOM     12  C   UNL     1      44.438  22.639  69.627  0.00  0.00    +0.000 C 
ATOM     13  C   UNL     1      46.759  29.293  68.670  0.00  0.00    +0.000 C 
ATOM     14  C   UNL     1      44.583  30.553  69.008  0.00  0.00    +0.000 C 
ATOM     15  C   UNL     1      45.613  29.223  70.936  0.00  0.00    +0.000 C 
ENDROOT
BRANCH   4  16
ATOM     16  O   UNL     1      45.847  23.347  71.343  0.00  0.00    +0.000 OA
ATOM     17  H   UNL     1      46.448  22.730  70.886  0.00  0.00    +0.000 HD
ENDBRANCH   4  16
BRANCH  13  18
ATOM     18  O   UNL     1      47.569  30.422  68.663  0.00  0.00    +0.000 OA
ATOM     19  H   UNL     1      47.261  31.097  68.033  0.00  0.00    +0.000 HD
ENDBRANCH  13  18
BRANCH   3  20
ATOM     20  C   UNL     1      47.345  23.926  69.014  0.00  0.00    +0.000 C 
ATOM     21  C   UNL     1      48.693  23.273  68.688  0.00  0.00    +0.000 C 
BRANCH  21  25
ATOM     22  C   UNL     1      50.293  22.414  66.854  0.00  0.00    +0.000 A 
ATOM     23  C   UNL     1      51.690  21.777  66.491  0.00  0.00    +0.000 A 
ATOM     24  C   UNL     1      49.227  22.775  65.738  0.00  0.00    +0.000 C 
ATOM     25  C   UNL     1      49.941  22.673  68.335  0.00  0.00    +0.000 A 
ATOM     26  C   UNL     1      52.257  21.456  65.088  0.00  0.00    +0.000 C 
ATOM     27  C   UNL     1      49.853  22.379  64.473  0.00  0.00    +0.000 C 
ATOM     28  C   UNL     1      51.198  21.785  64.153  0.00  0.00    +0.000 C 
ATOM     29  C   UNL     1      52.422  21.467  67.675  0.00  0.00    +0.000 A 
ATOM     30  C   UNL     1      50.850  22.310  69.457  0.00  0.00    +0.000 A 
ATOM     31  C   UNL     1      48.978  24.303  65.730  0.00  0.00    +0.000 C 
ATOM     32  C   UNL     1      47.941  21.946  65.949  0.00  0.00    +0.000 C 
ATOM     33  C   UNL     1      51.955  21.756  69.071  0.00  0.00    +0.000 A 
ATOM     34  C   UNL     1      53.552  22.213  64.827  0.00  0.00    +0.000 C 
ATOM     35  C   UNL     1      50.648  22.647  70.906  0.00  0.00    +0.000 C 
BRANCH  26  36
ATOM     36  O   UNL     1      52.555  20.086  65.003  0.00  0.00    +0.000 OA
ATOM     37  H   UNL     1      51.684  19.722  64.760  0.00  0.00    +0.000 HD
ENDBRANCH  26  36
ENDBRANCH  21  25
ENDBRANCH   3  20
TORSDOF 5
ENDMDL
MODEL 5
REMARK VINA RESULT:      -5.3     45.233     48.087
REMARK  Name = 44234954_SipholenolL.pdbqt.pdb
REMARK  5 active torsions:
REMARK  status: ('A' for Active; 'I' for Inactive)
REMARK    1  A    between atoms: C_3  and  C_20
REMARK    2  A    between atoms: C_4  and  O_16
REMARK    3  A    between atoms: C_13  and  O_18
REMARK    4  A    between atoms: C_21  and  C_25
REMARK    5  A    between atoms: C_26  and  O_36
REMARK                            x       y       z     vdW  Elec       q    Type
REMARK                         _______ _______ _______ _____ _____    ______ ____
ROOT
ATOM      1  O   UNL     1      48.462  18.236  83.790  0.00  0.00    +0.000 OA
ATOM      2  C   UNL     1      48.774  20.733  84.463  0.00  0.00    +0.000 C 
ATOM      3  C   UNL     1      48.957  21.662  85.666  0.00  0.00    +0.000 C 
ATOM      4  C   UNL     1      49.964  21.302  86.743  0.00  0.00    +0.000 C 
ATOM      5  C   UNL     1      48.820  19.171  84.765  0.00  0.00    +0.000 C 
ATOM      6  C   UNL     1      47.426  20.868  83.891  0.00  0.00    +0.000 C 
ATOM      7  C   UNL     1      50.156  19.864  86.733  0.00  0.00    +0.000 C 
ATOM      8  C   UNL     1      49.644  18.782  85.841  0.00  0.00    +0.000 C 
ATOM      9  C   UNL     1      49.842  21.054  83.385  0.00  0.00    +0.000 C 
ATOM     10  C   UNL     1      46.291  20.033  83.355  0.00  0.00    +0.000 C 
ATOM     11  C   UNL     1      47.109  17.653  83.800  0.00  0.00    +0.000 C 
ATOM     12  C   UNL     1      51.253  22.108  86.615  0.00  0.00    +0.000 C 
ATOM     13  C   UNL     1      46.040  18.647  83.235  0.00  0.00    +0.000 C 
ATOM     14  C   UNL     1      47.182  16.411  82.871  0.00  0.00    +0.000 C 
ATOM     15  C   UNL     1      46.690  17.234  85.244  0.00  0.00    +0.000 C 
ENDROOT
BRANCH   4  16
ATOM     16  O   UNL     1      49.432  21.665  88.001  0.00  0.00    +0.000 OA
ATOM     17  H   UNL     1      49.014  22.519  87.783  0.00  0.00    +0.000 HD
ENDBRANCH   4  16
BRANCH  13  18
ATOM     18  O   UNL     1      44.779  18.222  82.835  0.00  0.00    +0.000 OA
ATOM     19  H   UNL     1      44.345  18.856  82.237  0.00  0.00    +0.000 HD
ENDBRANCH  13  18
BRANCH   3  20
ATOM     20  C   UNL     1      48.234  22.901  85.756  0.00  0.00    +0.000 C 
ATOM     21  C   UNL     1      47.464  24.225  85.817  0.00  0.00    +0.000 C 
BRANCH  21  25
ATOM     22  C   UNL     1      45.498  25.636  84.919  0.00  0.00    +0.000 A 
ATOM     23  C   UNL     1      44.695  26.993  84.969  0.00  0.00    +0.000 A 
ATOM     24  C   UNL     1      45.083  24.458  83.943  0.00  0.00    +0.000 C 
ATOM     25  C   UNL     1      46.735  25.454  85.825  0.00  0.00    +0.000 A 
ATOM     26  C   UNL     1      43.425  27.380  84.176  0.00  0.00    +0.000 C 
ATOM     27  C   UNL     1      43.914  24.962  83.217  0.00  0.00    +0.000 C 
ATOM     28  C   UNL     1      43.157  26.260  83.295  0.00  0.00    +0.000 C 
ATOM     29  C   UNL     1      45.323  27.914  85.858  0.00  0.00    +0.000 A 
ATOM     30  C   UNL     1      47.240  26.526  86.728  0.00  0.00    +0.000 A 
ATOM     31  C   UNL     1      44.675  23.215  84.771  0.00  0.00    +0.000 C 
ATOM     32  C   UNL     1      46.222  24.178  82.939  0.00  0.00    +0.000 C 
ATOM     33  C   UNL     1      46.546  27.617  86.675  0.00  0.00    +0.000 A 
ATOM     34  C   UNL     1      42.267  27.708  85.109  0.00  0.00    +0.000 C 
ATOM     35  C   UNL     1      48.345  26.389  87.734  0.00  0.00    +0.000 C 
BRANCH  26  36
ATOM     36  O   UNL     1      43.679  28.531  83.413  0.00  0.00    +0.000 OA
ATOM     37  H   UNL     1      43.090  29.175  83.846  0.00  0.00    +0.000 HD
ENDBRANCH  26  36
ENDBRANCH  21  25
ENDBRANCH   3  20
TORSDOF 5
ENDMDL
MODEL 6
REMARK VINA RESULT:      -5.2     18.627     23.678
REMARK  Name = 44234954_SipholenolL.pdbqt.pdb
REMARK  5 active torsions:
REMARK  status: ('A' for Active; 'I' for Inactive)
REMARK    1  A    between atoms: C_3  and  C_20
REMARK    2  A    between atoms: C_4  and  O_16
REMARK    3  A    between atoms: C_13  and  O_18
REMARK    4  A    between atoms: C_21  and  C_25
REMARK    5  A    between atoms: C_26  and  O_36
REMARK                            x       y       z     vdW  Elec       q    Type
REMARK                         _______ _______ _______ _____ _____    ______ ____
ROOT
ATOM      1  O   UNL     1      20.923  13.380 101.187  0.00  0.00    +0.000 OA
ATOM      2  C   UNL     1      23.357  12.609 100.664  0.00  0.00    +0.000 C 
ATOM      3  C   UNL     1      24.521  12.809  99.690  0.00  0.00    +0.000 C 
ATOM      4  C   UNL     1      24.942  14.216  99.307  0.00  0.00    +0.000 C 
ATOM      5  C   UNL     1      22.121  13.598 100.498  0.00  0.00    +0.000 C 
ATOM      6  C   UNL     1      22.705  11.308 100.448  0.00  0.00    +0.000 C 
ATOM      7  C   UNL     1      23.805  15.101  99.479  0.00  0.00    +0.000 C 
ATOM      8  C   UNL     1      22.432  14.888 100.023  0.00  0.00    +0.000 C 
ATOM      9  C   UNL     1      23.870  12.709 102.124  0.00  0.00    +0.000 C 
ATOM     10  C   UNL     1      21.336  10.684 100.355  0.00  0.00    +0.000 C 
ATOM     11  C   UNL     1      19.798  12.720 100.503  0.00  0.00    +0.000 C 
ATOM     12  C   UNL     1      26.200  14.660 100.049  0.00  0.00    +0.000 C 
ATOM     13  C   UNL     1      20.010  11.174 100.388  0.00  0.00    +0.000 C 
ATOM     14  C   UNL     1      18.553  12.994 101.389  0.00  0.00    +0.000 C 
ATOM     15  C   UNL     1      19.592  13.305  99.070  0.00  0.00    +0.000 C 
ENDROOT
BRANCH   4  16
ATOM     16  O   UNL     1      25.304  14.226  97.941  0.00  0.00    +0.000 OA
ATOM     17  H   UNL     1      24.443  14.035  97.524  0.00  0.00    +0.000 HD
ENDBRANCH   4  16
BRANCH  13  18
ATOM     18  O   UNL     1      18.963  10.307 100.095  0.00  0.00    +0.000 OA
ATOM     19  H   UNL     1      19.162   9.726  99.340  0.00  0.00    +0.000 HD
ENDBRANCH  13  18
BRANCH   3  20
ATOM     20  C   UNL     1      25.259  11.685  99.184  0.00  0.00    +0.000 C 
ATOM     21  C   UNL     1      26.065  10.486  98.674  0.00  0.00    +0.000 C 
BRANCH  21  25
ATOM     22  C   UNL     1      26.241   7.932  98.335  0.00  0.00    +0.000 A 
ATOM     23  C   UNL     1      27.098   6.707  97.829  0.00  0.00    +0.000 A 
ATOM     24  C   UNL     1      24.796   7.739  98.955  0.00  0.00    +0.000 C 
ATOM     25  C   UNL     1      26.831   9.357  98.247  0.00  0.00    +0.000 A 
ATOM     26  C   UNL     1      26.701   5.213  97.799  0.00  0.00    +0.000 C 
ATOM     27  C   UNL     1      24.560   6.292  98.922  0.00  0.00    +0.000 C 
ATOM     28  C   UNL     1      25.391   5.143  98.418  0.00  0.00    +0.000 C 
ATOM     29  C   UNL     1      28.387   7.141  97.402  0.00  0.00    +0.000 A 
ATOM     30  C   UNL     1      28.203   9.633  97.739  0.00  0.00    +0.000 A 
ATOM     31  C   UNL     1      23.747   8.449  98.065  0.00  0.00    +0.000 C 
ATOM     32  C   UNL     1      24.782   8.221 100.422  0.00  0.00    +0.000 C 
ATOM     33  C   UNL     1      28.849   8.568  97.384  0.00  0.00    +0.000 A 
ATOM     34  C   UNL     1      26.731   4.659  96.381  0.00  0.00    +0.000 C 
ATOM     35  C   UNL     1      28.802  10.988  97.494  0.00  0.00    +0.000 C 
BRANCH  26  36
ATOM     36  O   UNL     1      27.621   4.467  98.554  0.00  0.00    +0.000 OA
ATOM     37  H   UNL     1      27.728   3.680  97.989  0.00  0.00    +0.000 HD
ENDBRANCH  26  36
ENDBRANCH  21  25
ENDBRANCH   3  20
TORSDOF 5
ENDMDL
MODEL 7
REMARK VINA RESULT:      -5.1     12.429     15.563
REMARK  Name = 44234954_SipholenolL.pdbqt.pdb
REMARK  5 active torsions:
REMARK  status: ('A' for Active; 'I' for Inactive)
REMARK    1  A    between atoms: C_3  and  C_20
REMARK    2  A    between atoms: C_4  and  O_16
REMARK    3  A    between atoms: C_13  and  O_18
REMARK    4  A    between atoms: C_21  and  C_25
REMARK    5  A    between atoms: C_26  and  O_36
REMARK                            x       y       z     vdW  Elec       q    Type
REMARK                         _______ _______ _______ _____ _____    ______ ____
ROOT
ATOM      1  O   UNL     1       6.466  13.909  79.822  0.00  0.00    +0.000 OA
ATOM      2  C   UNL     1       5.965  14.738  82.241  0.00  0.00    +0.000 C 
ATOM      3  C   UNL     1       4.865  15.323  83.131  0.00  0.00    +0.000 C 
ATOM      4  C   UNL     1       3.481  14.701  83.116  0.00  0.00    +0.000 C 
ATOM      5  C   UNL     1       5.519  14.264  80.788  0.00  0.00    +0.000 C 
ATOM      6  C   UNL     1       6.971  15.757  81.906  0.00  0.00    +0.000 C 
ATOM      7  C   UNL     1       3.290  14.031  81.842  0.00  0.00    +0.000 C 
ATOM      8  C   UNL     1       4.196  13.789  80.682  0.00  0.00    +0.000 C 
ATOM      9  C   UNL     1       6.641  13.542  82.960  0.00  0.00    +0.000 C 
ATOM     10  C   UNL     1       7.780  16.267  80.740  0.00  0.00    +0.000 C 
ATOM     11  C   UNL     1       6.861  14.888  78.795  0.00  0.00    +0.000 C 
ATOM     12  C   UNL     1       3.239  13.813  84.333  0.00  0.00    +0.000 C 
ATOM     13  C   UNL     1       7.846  15.964  79.361  0.00  0.00    +0.000 C 
ATOM     14  C   UNL     1       7.588  14.068  77.695  0.00  0.00    +0.000 C 
ATOM     15  C   UNL     1       5.613  15.614  78.203  0.00  0.00    +0.000 C 
ENDROOT
BRANCH   4  16
ATOM     16  O   UNL     1       2.519  15.731  83.219  0.00  0.00    +0.000 OA
ATOM     17  H   UNL     1       1.841  15.292  83.766  0.00  0.00    +0.000 HD
ENDBRANCH   4  16
BRANCH  13  18
ATOM     18  O   UNL     1       8.610  16.773  78.528  0.00  0.00    +0.000 OA
ATOM     19  H   UNL     1       8.460  16.582  77.585  0.00  0.00    +0.000 HD
ENDBRANCH  13  18
BRANCH   3  20
ATOM     20  C   UNL     1       5.143  16.413  84.025  0.00  0.00    +0.000 C 
ATOM     21  C   UNL     1       5.407  17.588  84.973  0.00  0.00    +0.000 C 
BRANCH  21  25
ATOM     22  C   UNL     1       6.602  19.813  85.508  0.00  0.00    +0.000 A 
ATOM     23  C   UNL     1       6.777  21.032  86.494  0.00  0.00    +0.000 A 
ATOM     24  C   UNL     1       7.443  19.696  84.170  0.00  0.00    +0.000 C 
ATOM     25  C   UNL     1       5.603  18.690  85.862  0.00  0.00    +0.000 A 
ATOM     26  C   UNL     1       7.692  22.268  86.330  0.00  0.00    +0.000 C 
ATOM     27  C   UNL     1       8.301  20.885  84.157  0.00  0.00    +0.000 C 
ATOM     28  C   UNL     1       8.438  22.044  85.107  0.00  0.00    +0.000 C 
ATOM     29  C   UNL     1       5.975  20.852  87.659  0.00  0.00    +0.000 A 
ATOM     30  C   UNL     1       4.815  18.678  87.126  0.00  0.00    +0.000 A 
ATOM     31  C   UNL     1       6.491  19.738  82.950  0.00  0.00    +0.000 C 
ATOM     32  C   UNL     1       8.329  18.432  84.212  0.00  0.00    +0.000 C 
ATOM     33  C   UNL     1       5.051  19.694  87.893  0.00  0.00    +0.000 A 
ATOM     34  C   UNL     1       6.884  23.558  86.320  0.00  0.00    +0.000 C 
ATOM     35  C   UNL     1       3.731  17.704  87.485  0.00  0.00    +0.000 C 
BRANCH  26  36
ATOM     36  O   UNL     1       8.579  22.344  87.417  0.00  0.00    +0.000 OA
ATOM     37  H   UNL     1       9.380  22.683  86.978  0.00  0.00    +0.000 HD
ENDBRANCH  26  36
ENDBRANCH  21  25
ENDBRANCH   3  20
TORSDOF 5
ENDMDL
MODEL 8
REMARK VINA RESULT:      -5.1     37.653     42.265
REMARK  Name = 44234954_SipholenolL.pdbqt.pdb
REMARK  5 active torsions:
REMARK  status: ('A' for Active; 'I' for Inactive)
REMARK    1  A    between atoms: C_3  and  C_20
REMARK    2  A    between atoms: C_4  and  O_16
REMARK    3  A    between atoms: C_13  and  O_18
REMARK    4  A    between atoms: C_21  and  C_25
REMARK    5  A    between atoms: C_26  and  O_36
REMARK                            x       y       z     vdW  Elec       q    Type
REMARK                         _______ _______ _______ _____ _____    ______ ____
ROOT
ATOM      1  O   UNL     1      37.744  22.158  83.590  0.00  0.00    +0.000 OA
ATOM      2  C   UNL     1      38.289  22.231  81.042  0.00  0.00    +0.000 C 
ATOM      3  C   UNL     1      38.926  23.095  79.952  0.00  0.00    +0.000 C 
ATOM      4  C   UNL     1      40.274  23.744  80.204  0.00  0.00    +0.000 C 
ATOM      5  C   UNL     1      38.453  22.748  82.539  0.00  0.00    +0.000 C 
ATOM      6  C   UNL     1      36.824  22.210  80.913  0.00  0.00    +0.000 C 
ATOM      7  C   UNL     1      40.451  23.901  81.636  0.00  0.00    +0.000 C 
ATOM      8  C   UNL     1      39.633  23.470  82.808  0.00  0.00    +0.000 C 
ATOM      9  C   UNL     1      38.849  20.787  80.961  0.00  0.00    +0.000 C 
ATOM     10  C   UNL     1      35.571  22.301  81.747  0.00  0.00    +0.000 C 
ATOM     11  C   UNL     1      36.504  22.787  84.077  0.00  0.00    +0.000 C 
ATOM     12  C   UNL     1      41.409  22.996  79.511  0.00  0.00    +0.000 C 
ATOM     13  C   UNL     1      35.297  22.521  83.117  0.00  0.00    +0.000 C 
ATOM     14  C   UNL     1      36.211  22.123  85.450  0.00  0.00    +0.000 C 
ATOM     15  C   UNL     1      36.685  24.328  84.240  0.00  0.00    +0.000 C 
ENDROOT
BRANCH   4  16
ATOM     16  O   UNL     1      40.276  25.030  79.619  0.00  0.00    +0.000 OA
ATOM     17  H   UNL     1      40.945  24.911  78.918  0.00  0.00    +0.000 HD
ENDBRANCH   4  16
BRANCH  13  18
ATOM     18  O   UNL     1      33.981  22.716  83.518  0.00  0.00    +0.000 OA
ATOM     19  H   UNL     1      33.855  22.553  84.469  0.00  0.00    +0.000 HD
ENDBRANCH  13  18
BRANCH   3  20
ATOM     20  C   UNL     1      38.292  23.250  78.671  0.00  0.00    +0.000 C 
ATOM     21  C   UNL     1      37.593  23.391  77.315  0.00  0.00    +0.000 C 
BRANCH  21  25
ATOM     22  C   UNL     1      37.405  24.466  74.976  0.00  0.00    +0.000 A 
ATOM     23  C   UNL     1      36.635  24.548  73.601  0.00  0.00    +0.000 A 
ATOM     24  C   UNL     1      38.675  25.365  75.274  0.00  0.00    +0.000 C 
ATOM     25  C   UNL     1      36.898  23.502  76.071  0.00  0.00    +0.000 A 
ATOM     26  C   UNL     1      36.976  25.414  72.366  0.00  0.00    +0.000 C 
ATOM     27  C   UNL     1      38.862  26.171  74.064  0.00  0.00    +0.000 C 
ATOM     28  C   UNL     1      38.118  26.218  72.756  0.00  0.00    +0.000 C 
ATOM     29  C   UNL     1      35.483  23.707  73.621  0.00  0.00    +0.000 A 
ATOM     30  C   UNL     1      35.678  22.664  75.909  0.00  0.00    +0.000 A 
ATOM     31  C   UNL     1      39.915  24.463  75.485  0.00  0.00    +0.000 C 
ATOM     32  C   UNL     1      38.389  26.302  76.468  0.00  0.00    +0.000 C 
ATOM     33  C   UNL     1      35.087  22.824  74.768  0.00  0.00    +0.000 A 
ATOM     34  C   UNL     1      37.232  24.553  71.137  0.00  0.00    +0.000 C 
ATOM     35  C   UNL     1      35.194  21.609  76.860  0.00  0.00    +0.000 C 
BRANCH  26  36
ATOM     36  O   UNL     1      35.890  26.252  72.065  0.00  0.00    +0.000 OA
ATOM     37  H   UNL     1      35.364  26.174  72.882  0.00  0.00    +0.000 HD
ENDBRANCH  26  36
ENDBRANCH  21  25
ENDBRANCH   3  20
TORSDOF 5
ENDMDL
MODEL 9
REMARK VINA RESULT:      -5.1     32.085     37.143
REMARK  Name = 44234954_SipholenolL.pdbqt.pdb
REMARK  5 active torsions:
REMARK  status: ('A' for Active; 'I' for Inactive)
REMARK    1  A    between atoms: C_3  and  C_20
REMARK    2  A    between atoms: C_4  and  O_16
REMARK    3  A    between atoms: C_13  and  O_18
REMARK    4  A    between atoms: C_21  and  C_25
REMARK    5  A    between atoms: C_26  and  O_36
REMARK                            x       y       z     vdW  Elec       q    Type
REMARK                         _______ _______ _______ _____ _____    ______ ____
ROOT
ATOM      1  O   UNL     1      29.444  21.789  81.322  0.00  0.00    +0.000 OA
ATOM      2  C   UNL     1      31.882  22.531  80.776  0.00  0.00    +0.000 C 
ATOM      3  C   UNL     1      33.101  22.188  79.918  0.00  0.00    +0.000 C 
ATOM      4  C   UNL     1      32.918  21.895  78.440  0.00  0.00    +0.000 C 
ATOM      5  C   UNL     1      30.552  21.711  80.472  0.00  0.00    +0.000 C 
ATOM      6  C   UNL     1      32.111  22.178  82.186  0.00  0.00    +0.000 C 
ATOM      7  C   UNL     1      31.560  21.430  78.227  0.00  0.00    +0.000 C 
ATOM      8  C   UNL     1      30.382  21.299  79.135  0.00  0.00    +0.000 C 
ATOM      9  C   UNL     1      31.562  24.043  80.653  0.00  0.00    +0.000 C 
ATOM     10  C   UNL     1      31.421  21.531  83.360  0.00  0.00    +0.000 C 
ATOM     11  C   UNL     1      29.221  20.738  82.329  0.00  0.00    +0.000 C 
ATOM     12  C   UNL     1      33.317  23.082  77.567  0.00  0.00    +0.000 C 
ATOM     13  C   UNL     1      30.173  20.898  83.561  0.00  0.00    +0.000 C 
ATOM     14  C   UNL     1      27.753  20.917  82.801  0.00  0.00    +0.000 C 
ATOM     15  C   UNL     1      29.432  19.319  81.714  0.00  0.00    +0.000 C 
ENDROOT
BRANCH   4  16
ATOM     16  O   UNL     1      33.801  20.857  78.069  0.00  0.00    +0.000 OA
ATOM     17  H   UNL     1      34.273  21.276  77.325  0.00  0.00    +0.000 HD
ENDBRANCH   4  16
BRANCH  13  18
ATOM     18  O   UNL     1      29.932  20.250  84.766  0.00  0.00    +0.000 OA
ATOM     19  H   UNL     1      30.690  19.713  85.058  0.00  0.00    +0.000 HD
ENDBRANCH  13  18
BRANCH   3  20
ATOM     20  C   UNL     1      34.425  22.200  80.479  0.00  0.00    +0.000 C 
ATOM     21  C   UNL     1      35.822  22.231  81.106  0.00  0.00    +0.000 C 
BRANCH  21  25
ATOM     22  C   UNL     1      37.219  22.386  83.272  0.00  0.00    +0.000 A 
ATOM     23  C   UNL     1      38.646  22.394  83.944  0.00  0.00    +0.000 A 
ATOM     24  C   UNL     1      35.893  22.522  84.131  0.00  0.00    +0.000 C 
ATOM     25  C   UNL     1      37.105  22.266  81.737  0.00  0.00    +0.000 A 
ATOM     26  C   UNL     1      38.992  22.479  85.449  0.00  0.00    +0.000 C 
ATOM     27  C   UNL     1      36.351  22.648  85.518  0.00  0.00    +0.000 C 
ATOM     28  C   UNL     1      37.724  22.637  86.134  0.00  0.00    +0.000 C 
ATOM     29  C   UNL     1      39.667  22.350  82.950  0.00  0.00    +0.000 A 
ATOM     30  C   UNL     1      38.292  22.199  80.841  0.00  0.00    +0.000 A 
ATOM     31  C   UNL     1      35.045  21.235  83.987  0.00  0.00    +0.000 C 
ATOM     32  C   UNL     1      35.133  23.804  83.729  0.00  0.00    +0.000 C 
ATOM     33  C   UNL     1      39.421  22.252  81.473  0.00  0.00    +0.000 A 
ATOM     34  C   UNL     1      39.780  21.259  85.906  0.00  0.00    +0.000 C 
ATOM     35  C   UNL     1      38.274  21.947  79.362  0.00  0.00    +0.000 C 
BRANCH  26  36
ATOM     36  O   UNL     1      39.800  23.604  85.683  0.00  0.00    +0.000 OA
ATOM     37  H   UNL     1      40.354  23.604  84.881  0.00  0.00    +0.000 HD
ENDBRANCH  26  36
ENDBRANCH  21  25
ENDBRANCH   3  20
TORSDOF 5
ENDMDL
