MODEL 1
REMARK VINA RESULT:      -5.8      0.000      0.000
REMARK  Name = 442793_6gingerol.pdbqt.pdb
REMARK  7 active torsions:
REMARK  status: ('A' for Active; 'I' for Inactive)
REMARK    1  A    between atoms: C_1  and  C_3
REMARK    2  A    between atoms: C_5  and  O_6
REMARK    3  A    between atoms: C_5  and  C_8
REMARK    4  A    between atoms: C_9  and  C_10
REMARK    5  A    between atoms: C_13  and  C_14
REMARK    6  A    between atoms: C_17  and  O_20
REMARK    7  A    between atoms: C_19  and  O_22
REMARK                            x       y       z     vdW  Elec       q    Type
REMARK                         _______ _______ _______ _____ _____    ______ ____
ROOT
ATOM      1  C   UNL     1      59.266  35.258  74.485  0.00  0.00    +0.000 C 
ATOM      2  C   UNL     1      58.972  35.545  75.962  0.00  0.00    +0.000 C 
ENDROOT
BRANCH   2   3
ATOM      3  C   UNL     1      58.698  35.809  77.335  0.00  0.00    +0.000 A 
ATOM      4  C   UNL     1      59.271  35.010  78.322  0.00  0.00    +0.000 A 
ATOM      5  C   UNL     1      57.859  36.863  77.685  0.00  0.00    +0.000 A 
ATOM      6  C   UNL     1      59.011  35.256  79.673  0.00  0.00    +0.000 A 
ATOM      7  C   UNL     1      57.592  37.120  79.027  0.00  0.00    +0.000 A 
ATOM      8  C   UNL     1      58.167  36.317  80.012  0.00  0.00    +0.000 A 
BRANCH   6   9
ATOM      9  O   UNL     1      59.532  34.518  80.709  0.00  0.00    +0.000 OA
ATOM     10  C   UNL     1      58.781  33.397  81.092  0.00  0.00    +0.000 C 
ENDBRANCH   6   9
BRANCH   8  11
ATOM     11  O   UNL     1      57.900  36.575  81.329  0.00  0.00    +0.000 OA
ATOM     12  H   UNL     1      57.279  37.325  81.381  0.00  0.00    +0.000 HD
ENDBRANCH   8  11
ENDBRANCH   2   3
BRANCH   1  14
ATOM     13  O   UNL     1      59.681  35.904  72.303  0.00  0.00    +0.000 OA
ATOM     14  C   UNL     1      59.542  34.985  73.097  0.00  0.00    +0.000 C 
ATOM     15  C   UNL     1      59.651  33.624  72.652  0.00  0.00    +0.000 C 
ATOM     16  C   UNL     1      59.757  32.287  72.210  0.00  0.00    +0.000 C 
BRANCH  16  17
ATOM     17  O   UNL     1      59.855  31.310  73.170  0.00  0.00    +0.000 OA
ATOM     18  H   UNL     1      60.017  30.434  72.779  0.00  0.00    +0.000 HD
ENDBRANCH  16  17
BRANCH  16  19
ATOM     19  C   UNL     1      59.764  31.911  70.844  0.00  0.00    +0.000 C 
ATOM     20  C   UNL     1      59.769  31.495  69.369  0.00  0.00    +0.000 C 
BRANCH  20  21
ATOM     21  C   UNL     1      59.773  31.073  67.897  0.00  0.00    +0.000 C 
ATOM     22  C   UNL     1      59.779  30.650  66.424  0.00  0.00    +0.000 C 
ATOM     23  C   UNL     1      59.793  30.226  64.952  0.00  0.00    +0.000 C 
ENDBRANCH  20  21
ENDBRANCH  16  19
ENDBRANCH   1  14
TORSDOF 7
ENDMDL
MODEL 2
REMARK VINA RESULT:      -5.7      2.634      2.691
REMARK  Name = 442793_6gingerol.pdbqt.pdb
REMARK  7 active torsions:
REMARK  status: ('A' for Active; 'I' for Inactive)
REMARK    1  A    between atoms: C_1  and  C_3
REMARK    2  A    between atoms: C_5  and  O_6
REMARK    3  A    between atoms: C_5  and  C_8
REMARK    4  A    between atoms: C_9  and  C_10
REMARK    5  A    between atoms: C_13  and  C_14
REMARK    6  A    between atoms: C_17  and  O_20
REMARK    7  A    between atoms: C_19  and  O_22
REMARK                            x       y       z     vdW  Elec       q    Type
REMARK                         _______ _______ _______ _____ _____    ______ ____
ROOT
ATOM      1  C   UNL     1      60.266  34.897  76.270  0.00  0.00    +0.000 C 
ATOM      2  C   UNL     1      59.269  35.188  77.399  0.00  0.00    +0.000 C 
ENDROOT
BRANCH   2   3
ATOM      3  C   UNL     1      58.342  35.457  78.446  0.00  0.00    +0.000 A 
ATOM      4  C   UNL     1      58.392  34.715  79.625  0.00  0.00    +0.000 A 
ATOM      5  C   UNL     1      57.390  36.460  78.289  0.00  0.00    +0.000 A 
ATOM      6  C   UNL     1      57.488  34.967  80.661  0.00  0.00    +0.000 A 
ATOM      7  C   UNL     1      56.483  36.722  79.313  0.00  0.00    +0.000 A 
ATOM      8  C   UNL     1      56.536  35.976  80.490  0.00  0.00    +0.000 A 
BRANCH   6   9
ATOM      9  O   UNL     1      57.466  34.284  81.853  0.00  0.00    +0.000 OA
ATOM     10  C   UNL     1      58.043  33.005  81.829  0.00  0.00    +0.000 C 
ENDBRANCH   6   9
BRANCH   8  11
ATOM     11  O   UNL     1      55.643  36.239  81.492  0.00  0.00    +0.000 OA
ATOM     12  H   UNL     1      55.124  35.432  81.667  0.00  0.00    +0.000 HD
ENDBRANCH   8  11
ENDBRANCH   2   3
BRANCH   1  14
ATOM     13  O   UNL     1      62.044  35.449  74.898  0.00  0.00    +0.000 OA
ATOM     14  C   UNL     1      61.200  34.621  75.208  0.00  0.00    +0.000 C 
ATOM     15  C   UNL     1      61.130  33.366  74.513  0.00  0.00    +0.000 C 
ATOM     16  C   UNL     1      61.063  32.135  73.825  0.00  0.00    +0.000 C 
BRANCH  16  17
ATOM     17  O   UNL     1      60.284  31.146  74.373  0.00  0.00    +0.000 OA
ATOM     18  H   UNL     1      59.336  31.306  74.222  0.00  0.00    +0.000 HD
ENDBRANCH  16  17
BRANCH  16  19
ATOM     19  C   UNL     1      61.750  31.875  72.614  0.00  0.00    +0.000 C 
ATOM     20  C   UNL     1      62.500  31.588  71.308  0.00  0.00    +0.000 C 
BRANCH  20  21
ATOM     21  C   UNL     1      63.253  31.299  70.007  0.00  0.00    +0.000 C 
ATOM     22  C   UNL     1      64.009  31.008  68.706  0.00  0.00    +0.000 C 
ATOM     23  C   UNL     1      64.767  30.711  67.408  0.00  0.00    +0.000 C 
ENDBRANCH  20  21
ENDBRANCH  16  19
ENDBRANCH   1  14
TORSDOF 7
ENDMDL
MODEL 3
REMARK VINA RESULT:      -5.5      5.340      6.034
REMARK  Name = 442793_6gingerol.pdbqt.pdb
REMARK  7 active torsions:
REMARK  status: ('A' for Active; 'I' for Inactive)
REMARK    1  A    between atoms: C_1  and  C_3
REMARK    2  A    between atoms: C_5  and  O_6
REMARK    3  A    between atoms: C_5  and  C_8
REMARK    4  A    between atoms: C_9  and  C_10
REMARK    5  A    between atoms: C_13  and  C_14
REMARK    6  A    between atoms: C_17  and  O_20
REMARK    7  A    between atoms: C_19  and  O_22
REMARK                            x       y       z     vdW  Elec       q    Type
REMARK                         _______ _______ _______ _____ _____    ______ ____
ROOT
ATOM      1  C   UNL     1      58.661  36.646  76.900  0.00  0.00    +0.000 C 
ATOM      2  C   UNL     1      58.451  36.124  78.327  0.00  0.00    +0.000 C 
ENDROOT
BRANCH   2   3
ATOM      3  C   UNL     1      58.253  35.640  79.652  0.00  0.00    +0.000 A 
ATOM      4  C   UNL     1      57.374  36.301  80.508  0.00  0.00    +0.000 A 
ATOM      5  C   UNL     1      58.938  34.509  80.087  0.00  0.00    +0.000 A 
ATOM      6  C   UNL     1      57.170  35.838  81.811  0.00  0.00    +0.000 A 
ATOM      7  C   UNL     1      58.744  34.037  81.382  0.00  0.00    +0.000 A 
ATOM      8  C   UNL     1      57.864  34.701  82.236  0.00  0.00    +0.000 A 
BRANCH   6   9
ATOM      9  O   UNL     1      56.324  36.428  82.719  0.00  0.00    +0.000 OA
ATOM     10  C   UNL     1      56.912  37.381  83.564  0.00  0.00    +0.000 C 
ENDBRANCH   6   9
BRANCH   8  11
ATOM     11  O   UNL     1      57.678  34.232  83.507  0.00  0.00    +0.000 OA
ATOM     12  H   UNL     1      58.528  33.890  83.841  0.00  0.00    +0.000 HD
ENDBRANCH   8  11
ENDBRANCH   2   3
BRANCH   1  14
ATOM     13  O   UNL     1      59.983  37.259  75.105  0.00  0.00    +0.000 OA
ATOM     14  C   UNL     1      58.855  37.136  75.559  0.00  0.00    +0.000 C 
ATOM     15  C   UNL     1      57.712  37.482  74.761  0.00  0.00    +0.000 C 
ATOM     16  C   UNL     1      56.592  37.825  73.972  0.00  0.00    +0.000 C 
BRANCH  16  17
ATOM     17  O   UNL     1      55.357  37.427  74.422  0.00  0.00    +0.000 OA
ATOM     18  H   UNL     1      54.807  38.185  74.688  0.00  0.00    +0.000 HD
ENDBRANCH  16  17
BRANCH  16  19
ATOM     19  C   UNL     1      56.680  38.551  72.759  0.00  0.00    +0.000 C 
ATOM     20  C   UNL     1      56.779  39.329  71.442  0.00  0.00    +0.000 C 
BRANCH  20  21
ATOM     21  C   UNL     1      56.883  40.102  70.125  0.00  0.00    +0.000 C 
ATOM     22  C   UNL     1      56.989  40.877  68.807  0.00  0.00    +0.000 C 
ATOM     23  C   UNL     1      57.102  41.652  67.491  0.00  0.00    +0.000 C 
ENDBRANCH  20  21
ENDBRANCH  16  19
ENDBRANCH   1  14
TORSDOF 7
ENDMDL
MODEL 4
REMARK VINA RESULT:      -5.4      6.949     10.944
REMARK  Name = 442793_6gingerol.pdbqt.pdb
REMARK  7 active torsions:
REMARK  status: ('A' for Active; 'I' for Inactive)
REMARK    1  A    between atoms: C_1  and  C_3
REMARK    2  A    between atoms: C_5  and  O_6
REMARK    3  A    between atoms: C_5  and  C_8
REMARK    4  A    between atoms: C_9  and  C_10
REMARK    5  A    between atoms: C_13  and  C_14
REMARK    6  A    between atoms: C_17  and  O_20
REMARK    7  A    between atoms: C_19  and  O_22
REMARK                            x       y       z     vdW  Elec       q    Type
REMARK                         _______ _______ _______ _____ _____    ______ ____
ROOT
ATOM      1  C   UNL     1      55.988  39.575  73.577  0.00  0.00    +0.000 C 
ATOM      2  C   UNL     1      55.844  40.859  72.750  0.00  0.00    +0.000 C 
ENDROOT
BRANCH   2   3
ATOM      3  C   UNL     1      55.709  42.052  71.984  0.00  0.00    +0.000 A 
ATOM      4  C   UNL     1      55.915  43.291  72.588  0.00  0.00    +0.000 A 
ATOM      5  C   UNL     1      55.370  41.976  70.636  0.00  0.00    +0.000 A 
ATOM      6  C   UNL     1      55.785  44.471  71.849  0.00  0.00    +0.000 A 
ATOM      7  C   UNL     1      55.237  43.144  69.888  0.00  0.00    +0.000 A 
ATOM      8  C   UNL     1      55.444  44.381  70.496  0.00  0.00    +0.000 A 
BRANCH   6   9
ATOM      9  O   UNL     1      55.969  45.731  72.363  0.00  0.00    +0.000 OA
ATOM     10  C   UNL     1      54.882  46.260  73.075  0.00  0.00    +0.000 C 
ENDBRANCH   6   9
BRANCH   8  11
ATOM     11  O   UNL     1      55.312  45.524  69.756  0.00  0.00    +0.000 OA
ATOM     12  H   UNL     1      54.375  45.624  69.501  0.00  0.00    +0.000 HD
ENDBRANCH   8  11
ENDBRANCH   2   3
BRANCH   1  14
ATOM     13  O   UNL     1      55.386  37.416  74.145  0.00  0.00    +0.000 OA
ATOM     14  C   UNL     1      56.121  38.370  74.355  0.00  0.00    +0.000 C 
ATOM     15  C   UNL     1      57.122  38.298  75.382  0.00  0.00    +0.000 C 
ATOM     16  C   UNL     1      58.103  38.223  76.395  0.00  0.00    +0.000 C 
BRANCH  16  17
ATOM     17  O   UNL     1      59.064  39.205  76.417  0.00  0.00    +0.000 OA
ATOM     18  H   UNL     1      59.179  39.618  75.543  0.00  0.00    +0.000 HD
ENDBRANCH  16  17
BRANCH  16  19
ATOM     19  C   UNL     1      58.143  37.202  77.375  0.00  0.00    +0.000 C 
ATOM     20  C   UNL     1      58.191  36.103  78.442  0.00  0.00    +0.000 C 
BRANCH  20  21
ATOM     21  C   UNL     1      58.244  35.008  79.512  0.00  0.00    +0.000 C 
ATOM     22  C   UNL     1      58.298  33.914  80.582  0.00  0.00    +0.000 C 
ATOM     23  C   UNL     1      58.356  32.824  81.657  0.00  0.00    +0.000 C 
ENDBRANCH  20  21
ENDBRANCH  16  19
ENDBRANCH   1  14
TORSDOF 7
ENDMDL
MODEL 5
REMARK VINA RESULT:      -5.4      5.669      7.119
REMARK  Name = 442793_6gingerol.pdbqt.pdb
REMARK  7 active torsions:
REMARK  status: ('A' for Active; 'I' for Inactive)
REMARK    1  A    between atoms: C_1  and  C_3
REMARK    2  A    between atoms: C_5  and  O_6
REMARK    3  A    between atoms: C_5  and  C_8
REMARK    4  A    between atoms: C_9  and  C_10
REMARK    5  A    between atoms: C_13  and  C_14
REMARK    6  A    between atoms: C_17  and  O_20
REMARK    7  A    between atoms: C_19  and  O_22
REMARK                            x       y       z     vdW  Elec       q    Type
REMARK                         _______ _______ _______ _____ _____    ______ ____
ROOT
ATOM      1  C   UNL     1      56.863  37.759  74.494  0.00  0.00    +0.000 C 
ATOM      2  C   UNL     1      57.542  37.045  75.670  0.00  0.00    +0.000 C 
ENDROOT
BRANCH   2   3
ATOM      3  C   UNL     1      58.173  36.380  76.759  0.00  0.00    +0.000 A 
ATOM      4  C   UNL     1      57.418  35.983  77.862  0.00  0.00    +0.000 A 
ATOM      5  C   UNL     1      59.542  36.130  76.720  0.00  0.00    +0.000 A 
ATOM      6  C   UNL     1      58.024  35.331  78.939  0.00  0.00    +0.000 A 
ATOM      7  C   UNL     1      60.158  35.480  77.787  0.00  0.00    +0.000 A 
ATOM      8  C   UNL     1      59.399  35.085  78.888  0.00  0.00    +0.000 A 
BRANCH   6   9
ATOM      9  O   UNL     1      57.356  34.907  80.063  0.00  0.00    +0.000 OA
ATOM     10  C   UNL     1      56.793  33.625  79.985  0.00  0.00    +0.000 C 
ENDBRANCH   6   9
BRANCH   8  11
ATOM     11  O   UNL     1      60.011  34.448  79.932  0.00  0.00    +0.000 OA
ATOM     12  H   UNL     1      59.722  33.516  79.941  0.00  0.00    +0.000 HD
ENDBRANCH   8  11
ENDBRANCH   2   3
BRANCH   1  14
ATOM     13  O   UNL     1      55.163  38.022  72.949  0.00  0.00    +0.000 OA
ATOM     14  C   UNL     1      56.228  38.429  73.388  0.00  0.00    +0.000 C 
ATOM     15  C   UNL     1      56.858  39.580  72.802  0.00  0.00    +0.000 C 
ATOM     16  C   UNL     1      57.474  40.709  72.222  0.00  0.00    +0.000 C 
BRANCH  16  17
ATOM     17  O   UNL     1      58.520  41.280  72.906  0.00  0.00    +0.000 OA
ATOM     18  H   UNL     1      58.255  42.103  73.351  0.00  0.00    +0.000 HD
ENDBRANCH  16  17
BRANCH  16  19
ATOM     19  C   UNL     1      57.074  41.273  70.985  0.00  0.00    +0.000 C 
ATOM     20  C   UNL     1      56.649  41.889  69.648  0.00  0.00    +0.000 C 
BRANCH  20  21
ATOM     21  C   UNL     1      56.229  42.509  68.312  0.00  0.00    +0.000 C 
ATOM     22  C   UNL     1      55.806  43.130  66.977  0.00  0.00    +0.000 C 
ATOM     23  C   UNL     1      55.380  43.756  65.645  0.00  0.00    +0.000 C 
ENDBRANCH  20  21
ENDBRANCH  16  19
ENDBRANCH   1  14
TORSDOF 7
ENDMDL
MODEL 6
REMARK VINA RESULT:      -5.3      3.899      4.521
REMARK  Name = 442793_6gingerol.pdbqt.pdb
REMARK  7 active torsions:
REMARK  status: ('A' for Active; 'I' for Inactive)
REMARK    1  A    between atoms: C_1  and  C_3
REMARK    2  A    between atoms: C_5  and  O_6
REMARK    3  A    between atoms: C_5  and  C_8
REMARK    4  A    between atoms: C_9  and  C_10
REMARK    5  A    between atoms: C_13  and  C_14
REMARK    6  A    between atoms: C_17  and  O_20
REMARK    7  A    between atoms: C_19  and  O_22
REMARK                            x       y       z     vdW  Elec       q    Type
REMARK                         _______ _______ _______ _____ _____    ______ ____
ROOT
ATOM      1  C   UNL     1      60.295  34.904  74.364  0.00  0.00    +0.000 C 
ATOM      2  C   UNL     1      59.007  35.608  74.810  0.00  0.00    +0.000 C 
ENDROOT
BRANCH   2   3
ATOM      3  C   UNL     1      57.810  36.260  75.223  0.00  0.00    +0.000 A 
ATOM      4  C   UNL     1      57.027  35.698  76.229  0.00  0.00    +0.000 A 
ATOM      5  C   UNL     1      57.427  37.455  74.620  0.00  0.00    +0.000 A 
ATOM      6  C   UNL     1      55.848  36.325  76.645  0.00  0.00    +0.000 A 
ATOM      7  C   UNL     1      56.256  38.090  75.025  0.00  0.00    +0.000 A 
ATOM      8  C   UNL     1      55.474  37.524  76.031  0.00  0.00    +0.000 A 
BRANCH   6   9
ATOM      9  O   UNL     1      55.018  35.841  77.626  0.00  0.00    +0.000 OA
ATOM     10  C   UNL     1      55.642  35.076  78.624  0.00  0.00    +0.000 C 
ENDBRANCH   6   9
BRANCH   8  11
ATOM     11  O   UNL     1      54.325  38.153  76.424  0.00  0.00    +0.000 OA
ATOM     12  H   UNL     1      53.858  38.474  75.630  0.00  0.00    +0.000 HD
ENDBRANCH   8  11
ENDBRANCH   2   3
BRANCH   1  14
ATOM     13  O   UNL     1      62.543  34.871  73.821  0.00  0.00    +0.000 OA
ATOM     14  C   UNL     1      61.503  34.240  73.944  0.00  0.00    +0.000 C 
ATOM     15  C   UNL     1      61.476  32.831  73.670  0.00  0.00    +0.000 C 
ATOM     16  C   UNL     1      61.454  31.445  73.398  0.00  0.00    +0.000 C 
BRANCH  16  17
ATOM     17  O   UNL     1      60.346  30.740  73.799  0.00  0.00    +0.000 OA
ATOM     18  H   UNL     1      60.587  29.955  74.322  0.00  0.00    +0.000 HD
ENDBRANCH  16  17
BRANCH  16  19
ATOM     19  C   UNL     1      62.503  30.759  72.738  0.00  0.00    +0.000 C 
ATOM     20  C   UNL     1      63.645  30.020  72.031  0.00  0.00    +0.000 C 
BRANCH  20  21
ATOM     21  C   UNL     1      64.790  29.285  71.327  0.00  0.00    +0.000 C 
ATOM     22  C   UNL     1      65.936  28.552  70.624  0.00  0.00    +0.000 C 
ATOM     23  C   UNL     1      67.088  27.822  69.926  0.00  0.00    +0.000 C 
ENDBRANCH  20  21
ENDBRANCH  16  19
ENDBRANCH   1  14
TORSDOF 7
ENDMDL
MODEL 7
REMARK VINA RESULT:      -5.1      6.434     10.877
REMARK  Name = 442793_6gingerol.pdbqt.pdb
REMARK  7 active torsions:
REMARK  status: ('A' for Active; 'I' for Inactive)
REMARK    1  A    between atoms: C_1  and  C_3
REMARK    2  A    between atoms: C_5  and  O_6
REMARK    3  A    between atoms: C_5  and  C_8
REMARK    4  A    between atoms: C_9  and  C_10
REMARK    5  A    between atoms: C_13  and  C_14
REMARK    6  A    between atoms: C_17  and  O_20
REMARK    7  A    between atoms: C_19  and  O_22
REMARK                            x       y       z     vdW  Elec       q    Type
REMARK                         _______ _______ _______ _____ _____    ______ ____
ROOT
ATOM      1  C   UNL     1      56.209  39.273  73.520  0.00  0.00    +0.000 C 
ATOM      2  C   UNL     1      56.176  40.501  72.602  0.00  0.00    +0.000 C 
ENDROOT
BRANCH   2   3
ATOM      3  C   UNL     1      56.149  41.643  71.752  0.00  0.00    +0.000 A 
ATOM      4  C   UNL     1      56.467  41.510  70.402  0.00  0.00    +0.000 A 
ATOM      5  C   UNL     1      55.804  42.888  72.272  0.00  0.00    +0.000 A 
ATOM      6  C   UNL     1      56.445  42.622  69.554  0.00  0.00    +0.000 A 
ATOM      7  C   UNL     1      55.778  44.003  71.439  0.00  0.00    +0.000 A 
ATOM      8  C   UNL     1      56.098  43.866  70.089  0.00  0.00    +0.000 A 
BRANCH   6   9
ATOM      9  O   UNL     1      56.745  42.580  68.215  0.00  0.00    +0.000 OA
ATOM     10  C   UNL     1      55.878  41.811  67.423  0.00  0.00    +0.000 C 
ENDBRANCH   6   9
BRANCH   8  11
ATOM     11  O   UNL     1      56.070  44.966  69.276  0.00  0.00    +0.000 OA
ATOM     12  H   UNL     1      55.751  45.728  69.794  0.00  0.00    +0.000 HD
ENDBRANCH   8  11
ENDBRANCH   2   3
BRANCH   1  14
ATOM     13  O   UNL     1      55.338  37.297  74.350  0.00  0.00    +0.000 OA
ATOM     14  C   UNL     1      56.242  38.119  74.383  0.00  0.00    +0.000 C 
ATOM     15  C   UNL     1      57.345  37.943  75.286  0.00  0.00    +0.000 C 
ATOM     16  C   UNL     1      58.426  37.767  76.177  0.00  0.00    +0.000 C 
BRANCH  16  17
ATOM     17  O   UNL     1      59.531  38.564  75.995  0.00  0.00    +0.000 OA
ATOM     18  H   UNL     1      59.416  39.440  76.402  0.00  0.00    +0.000 HD
ENDBRANCH  16  17
BRANCH  16  19
ATOM     19  C   UNL     1      58.426  36.825  77.234  0.00  0.00    +0.000 C 
ATOM     20  C   UNL     1      58.419  35.811  78.384  0.00  0.00    +0.000 C 
BRANCH  20  21
ATOM     21  C   UNL     1      58.410  34.802  79.536  0.00  0.00    +0.000 C 
ATOM     22  C   UNL     1      58.401  33.791  80.687  0.00  0.00    +0.000 C 
ATOM     23  C   UNL     1      58.396  32.776  81.834  0.00  0.00    +0.000 C 
ENDBRANCH  20  21
ENDBRANCH  16  19
ENDBRANCH   1  14
TORSDOF 7
ENDMDL
MODEL 8
REMARK VINA RESULT:      -4.8      4.713      8.207
REMARK  Name = 442793_6gingerol.pdbqt.pdb
REMARK  7 active torsions:
REMARK  status: ('A' for Active; 'I' for Inactive)
REMARK    1  A    between atoms: C_1  and  C_3
REMARK    2  A    between atoms: C_5  and  O_6
REMARK    3  A    between atoms: C_5  and  C_8
REMARK    4  A    between atoms: C_9  and  C_10
REMARK    5  A    between atoms: C_13  and  C_14
REMARK    6  A    between atoms: C_17  and  O_20
REMARK    7  A    between atoms: C_19  and  O_22
REMARK                            x       y       z     vdW  Elec       q    Type
REMARK                         _______ _______ _______ _____ _____    ______ ____
ROOT
ATOM      1  C   UNL     1      59.568  30.527  67.939  0.00  0.00    +0.000 C 
ATOM      2  C   UNL     1      59.818  30.854  69.417  0.00  0.00    +0.000 C 
ENDROOT
BRANCH   2   3
ATOM      3  C   UNL     1      60.053  31.156  70.788  0.00  0.00    +0.000 A 
ATOM      4  C   UNL     1      59.545  32.333  71.336  0.00  0.00    +0.000 A 
ATOM      5  C   UNL     1      60.788  30.276  71.577  0.00  0.00    +0.000 A 
ATOM      6  C   UNL     1      59.767  32.644  72.680  0.00  0.00    +0.000 A 
ATOM      7  C   UNL     1      61.017  30.573  72.918  0.00  0.00    +0.000 A 
ATOM      8  C   UNL     1      60.508  31.752  73.462  0.00  0.00    +0.000 A 
BRANCH   6   9
ATOM      9  O   UNL     1      59.305  33.780  73.299  0.00  0.00    +0.000 OA
ATOM     10  C   UNL     1      58.581  34.662  72.483  0.00  0.00    +0.000 C 
ENDBRANCH   6   9
BRANCH   8  11
ATOM     11  O   UNL     1      60.736  32.038  74.779  0.00  0.00    +0.000 OA
ATOM     12  H   UNL     1      61.562  32.552  74.849  0.00  0.00    +0.000 HD
ENDBRANCH   8  11
ENDBRANCH   2   3
BRANCH   1  14
ATOM     13  O   UNL     1      60.079  30.663  65.688  0.00  0.00    +0.000 OA
ATOM     14  C   UNL     1      59.337  30.219  66.550  0.00  0.00    +0.000 C 
ATOM     15  C   UNL     1      58.223  29.388  66.187  0.00  0.00    +0.000 C 
ATOM     16  C   UNL     1      57.128  28.573  65.824  0.00  0.00    +0.000 C 
BRANCH  16  17
ATOM     17  O   UNL     1      56.487  27.892  66.830  0.00  0.00    +0.000 OA
ATOM     18  H   UNL     1      55.522  27.891  66.708  0.00  0.00    +0.000 HD
ENDBRANCH  16  17
BRANCH  16  19
ATOM     19  C   UNL     1      56.665  28.428  64.494  0.00  0.00    +0.000 C 
ATOM     20  C   UNL     1      56.166  28.281  63.052  0.00  0.00    +0.000 C 
BRANCH  20  21
ATOM     21  C   UNL     1      55.667  28.140  61.611  0.00  0.00    +0.000 C 
ATOM     22  C   UNL     1      55.167  28.001  60.170  0.00  0.00    +0.000 C 
ATOM     23  C   UNL     1      54.664  27.869  58.729  0.00  0.00    +0.000 C 
ENDBRANCH  20  21
ENDBRANCH  16  19
ENDBRANCH   1  14
TORSDOF 7
ENDMDL
MODEL 9
REMARK VINA RESULT:      -4.8      5.182      9.741
REMARK  Name = 442793_6gingerol.pdbqt.pdb
REMARK  7 active torsions:
REMARK  status: ('A' for Active; 'I' for Inactive)
REMARK    1  A    between atoms: C_1  and  C_3
REMARK    2  A    between atoms: C_5  and  O_6
REMARK    3  A    between atoms: C_5  and  C_8
REMARK    4  A    between atoms: C_9  and  C_10
REMARK    5  A    between atoms: C_13  and  C_14
REMARK    6  A    between atoms: C_17  and  O_20
REMARK    7  A    between atoms: C_19  and  O_22
REMARK                            x       y       z     vdW  Elec       q    Type
REMARK                         _______ _______ _______ _____ _____    ______ ____
ROOT
ATOM      1  C   UNL     1      58.702  37.505  73.038  0.00  0.00    +0.000 C 
ATOM      2  C   UNL     1      58.975  36.001  72.908  0.00  0.00    +0.000 C 
ENDROOT
BRANCH   2   3
ATOM      3  C   UNL     1      59.227  34.605  72.790  0.00  0.00    +0.000 A 
ATOM      4  C   UNL     1      59.993  33.954  73.756  0.00  0.00    +0.000 A 
ATOM      5  C   UNL     1      58.707  33.894  71.712  0.00  0.00    +0.000 A 
ATOM      6  C   UNL     1      60.250  32.584  73.653  0.00  0.00    +0.000 A 
ATOM      7  C   UNL     1      58.954  32.529  71.598  0.00  0.00    +0.000 A 
ATOM      8  C   UNL     1      59.723  31.882  72.565  0.00  0.00    +0.000 A 
BRANCH   6   9
ATOM      9  O   UNL     1      60.995  31.866  74.557  0.00  0.00    +0.000 OA
ATOM     10  C   UNL     1      62.297  32.339  74.781  0.00  0.00    +0.000 C 
ENDBRANCH   6   9
BRANCH   8  11
ATOM     11  O   UNL     1      59.962  30.541  72.447  0.00  0.00    +0.000 OA
ATOM     12  H   UNL     1      59.570  30.226  71.611  0.00  0.00    +0.000 HD
ENDBRANCH   8  11
ENDBRANCH   2   3
BRANCH   1  14
ATOM     13  O   UNL     1      59.356  39.693  73.405  0.00  0.00    +0.000 OA
ATOM     14  C   UNL     1      58.443  38.918  73.161  0.00  0.00    +0.000 C 
ATOM     15  C   UNL     1      57.103  39.407  72.998  0.00  0.00    +0.000 C 
ATOM     16  C   UNL     1      55.787  39.893  72.840  0.00  0.00    +0.000 C 
BRANCH  16  17
ATOM     17  O   UNL     1      54.854  39.033  72.314  0.00  0.00    +0.000 OA
ATOM     18  H   UNL     1      54.179  38.787  72.970  0.00  0.00    +0.000 HD
ENDBRANCH  16  17
BRANCH  16  19
ATOM     19  C   UNL     1      55.387  41.205  73.195  0.00  0.00    +0.000 C 
ATOM     20  C   UNL     1      54.964  42.627  73.580  0.00  0.00    +0.000 C 
BRANCH  20  21
ATOM     21  C   UNL     1      54.548  44.049  73.966  0.00  0.00    +0.000 C 
ATOM     22  C   UNL     1      54.131  45.472  74.355  0.00  0.00    +0.000 C 
ATOM     23  C   UNL     1      53.717  46.892  74.750  0.00  0.00    +0.000 C 
ENDBRANCH  20  21
ENDBRANCH  16  19
ENDBRANCH   1  14
TORSDOF 7
ENDMDL
