MODEL 1
REMARK VINA RESULT:      -5.9      0.000      0.000
REMARK  Name = 44423609_SipholenoneA.pdbqt.pdb
REMARK  4 active torsions:
REMARK  status: ('A' for Active; 'I' for Inactive)
REMARK    1  A    between atoms: C_3  and  C_19
REMARK    2  A    between atoms: C_5  and  O_17
REMARK    3  A    between atoms: C_20  and  C_24
REMARK    4  A    between atoms: C_25  and  O_35
REMARK                            x       y       z     vdW  Elec       q    Type
REMARK                         _______ _______ _______ _____ _____    ______ ____
ROOT
ATOM      1  O   UNL     1      53.061  19.306  77.159  0.00  0.00    +0.000 OA
ATOM      2  O   UNL     1      50.274  19.902  79.520  0.00  0.00    +0.000 OA
ATOM      3  C   UNL     1      51.939  16.237  74.937  0.00  0.00    +0.000 C 
ATOM      4  C   UNL     1      51.926  17.660  75.494  0.00  0.00    +0.000 C 
ATOM      5  C   UNL     1      53.260  15.530  74.683  0.00  0.00    +0.000 C 
ATOM      6  C   UNL     1      53.102  18.091  76.466  0.00  0.00    +0.000 C 
ATOM      7  C   UNL     1      54.315  16.238  75.382  0.00  0.00    +0.000 C 
ATOM      8  C   UNL     1      54.337  17.446  76.257  0.00  0.00    +0.000 C 
ATOM      9  C   UNL     1      50.756  17.866  76.364  0.00  0.00    +0.000 C 
ATOM     10  C   UNL     1      51.883  18.676  74.319  0.00  0.00    +0.000 C 
ATOM     11  C   UNL     1      53.186  14.061  75.114  0.00  0.00    +0.000 C 
ATOM     12  C   UNL     1      50.360  18.578  77.640  0.00  0.00    +0.000 C 
ATOM     13  C   UNL     1      52.586  19.341  78.547  0.00  0.00    +0.000 C 
ATOM     14  C   UNL     1      50.984  19.366  78.677  0.00  0.00    +0.000 C 
ATOM     15  C   UNL     1      53.192  20.654  79.142  0.00  0.00    +0.000 C 
ATOM     16  C   UNL     1      53.148  18.111  79.352  0.00  0.00    +0.000 C 
ENDROOT
BRANCH   5  17
ATOM     17  O   UNL     1      53.531  15.514  73.304  0.00  0.00    +0.000 OA
ATOM     18  H   UNL     1      54.075  16.316  73.210  0.00  0.00    +0.000 HD
ENDBRANCH   5  17
BRANCH   3  19
ATOM     19  C   UNL     1      50.720  15.675  74.415  0.00  0.00    +0.000 C 
ATOM     20  C   UNL     1      49.425  15.068  73.870  0.00  0.00    +0.000 C 
BRANCH  20  24
ATOM     21  C   UNL     1      45.926  14.473  74.633  0.00  0.00    +0.000 C 
ATOM     22  C   UNL     1      47.224  13.715  74.258  0.00  0.00    +0.000 C 
ATOM     23  C   UNL     1      44.852  14.907  73.669  0.00  0.00    +0.000 C 
ATOM     24  C   UNL     1      48.216  14.490  73.357  0.00  0.00    +0.000 C 
ATOM     25  C   UNL     1      43.687  15.593  74.385  0.00  0.00    +0.000 C 
ATOM     26  C   UNL     1      45.476  14.838  75.934  0.00  0.00    +0.000 C 
ATOM     27  C   UNL     1      44.135  15.496  75.769  0.00  0.00    +0.000 C 
ATOM     28  C   UNL     1      45.289  15.114  72.344  0.00  0.00    +0.000 C 
ATOM     29  C   UNL     1      47.883  14.733  71.952  0.00  0.00    +0.000 C 
ATOM     30  C   UNL     1      47.957  13.319  75.597  0.00  0.00    +0.000 C 
ATOM     31  C   UNL     1      46.827  12.365  73.570  0.00  0.00    +0.000 C 
ATOM     32  C   UNL     1      46.641  15.000  71.692  0.00  0.00    +0.000 C 
ATOM     33  C   UNL     1      42.354  14.940  74.064  0.00  0.00    +0.000 C 
ATOM     34  C   UNL     1      48.895  15.112  70.902  0.00  0.00    +0.000 C 
BRANCH  25  35
ATOM     35  O   UNL     1      43.594  16.941  73.993  0.00  0.00    +0.000 OA
ATOM     36  H   UNL     1      42.918  17.263  74.614  0.00  0.00    +0.000 HD
ENDBRANCH  25  35
ENDBRANCH  20  24
ENDBRANCH   3  19
TORSDOF 4
ENDMDL
MODEL 2
REMARK VINA RESULT:      -5.9     29.415     32.647
REMARK  Name = 44423609_SipholenoneA.pdbqt.pdb
REMARK  4 active torsions:
REMARK  status: ('A' for Active; 'I' for Inactive)
REMARK    1  A    between atoms: C_3  and  C_19
REMARK    2  A    between atoms: C_5  and  O_17
REMARK    3  A    between atoms: C_20  and  C_24
REMARK    4  A    between atoms: C_25  and  O_35
REMARK                            x       y       z     vdW  Elec       q    Type
REMARK                         _______ _______ _______ _____ _____    ______ ____
ROOT
ATOM      1  O   UNL     1      16.984  18.326  82.408  0.00  0.00    +0.000 OA
ATOM      2  O   UNL     1      17.113  17.774  78.751  0.00  0.00    +0.000 OA
ATOM      3  C   UNL     1      17.749  14.812  84.044  0.00  0.00    +0.000 C 
ATOM      4  C   UNL     1      18.016  16.094  83.259  0.00  0.00    +0.000 C 
ATOM      5  C   UNL     1      16.885  14.848  85.294  0.00  0.00    +0.000 C 
ATOM      6  C   UNL     1      16.892  17.212  83.250  0.00  0.00    +0.000 C 
ATOM      7  C   UNL     1      16.144  16.095  85.317  0.00  0.00    +0.000 C 
ATOM      8  C   UNL     1      16.072  17.265  84.394  0.00  0.00    +0.000 C 
ATOM      9  C   UNL     1      18.135  15.807  81.820  0.00  0.00    +0.000 C 
ATOM     10  C   UNL     1      19.332  16.748  83.767  0.00  0.00    +0.000 C 
ATOM     11  C   UNL     1      15.949  13.636  85.349  0.00  0.00    +0.000 C 
ATOM     12  C   UNL     1      17.780  16.406  80.476  0.00  0.00    +0.000 C 
ATOM     13  C   UNL     1      16.282  18.330  81.119  0.00  0.00    +0.000 C 
ATOM     14  C   UNL     1      17.074  17.553  79.955  0.00  0.00    +0.000 C 
ATOM     15  C   UNL     1      16.137  19.843  80.750  0.00  0.00    +0.000 C 
ATOM     16  C   UNL     1      14.847  17.703  81.272  0.00  0.00    +0.000 C 
ENDROOT
BRANCH   5  17
ATOM     17  O   UNL     1      17.700  14.758  86.436  0.00  0.00    +0.000 OA
ATOM     18  H   UNL     1      17.730  13.793  86.570  0.00  0.00    +0.000 HD
ENDBRANCH   5  17
BRANCH   3  19
ATOM     19  C   UNL     1      18.520  13.632  83.749  0.00  0.00    +0.000 C 
ATOM     20  C   UNL     1      19.331  12.371  83.440  0.00  0.00    +0.000 C 
BRANCH  20  24
ATOM     21  C   UNL     1      21.467   9.855  84.951  0.00  0.00    +0.000 C 
ATOM     22  C   UNL     1      21.466  10.913  83.820  0.00  0.00    +0.000 C 
ATOM     23  C   UNL     1      21.154   8.390  84.785  0.00  0.00    +0.000 C 
ATOM     24  C   UNL     1      20.092  11.186  83.161  0.00  0.00    +0.000 C 
ATOM     25  C   UNL     1      21.293   7.624  86.102  0.00  0.00    +0.000 C 
ATOM     26  C   UNL     1      21.821  10.042  86.318  0.00  0.00    +0.000 C 
ATOM     27  C   UNL     1      21.722   8.700  86.988  0.00  0.00    +0.000 C 
ATOM     28  C   UNL     1      20.314   8.081  83.695  0.00  0.00    +0.000 C 
ATOM     29  C   UNL     1      19.489  10.173  82.293  0.00  0.00    +0.000 C 
ATOM     30  C   UNL     1      22.020  12.263  84.420  0.00  0.00    +0.000 C 
ATOM     31  C   UNL     1      22.499  10.472  82.728  0.00  0.00    +0.000 C 
ATOM     32  C   UNL     1      19.644   8.939  82.654  0.00  0.00    +0.000 C 
ATOM     33  C   UNL     1      22.237   6.441  85.978  0.00  0.00    +0.000 C 
ATOM     34  C   UNL     1      18.385  10.460  81.308  0.00  0.00    +0.000 C 
BRANCH  25  35
ATOM     35  O   UNL     1      20.046   7.119  86.512  0.00  0.00    +0.000 OA
ATOM     36  H   UNL     1      19.863   7.689  87.279  0.00  0.00    +0.000 HD
ENDBRANCH  25  35
ENDBRANCH  20  24
ENDBRANCH   3  19
TORSDOF 4
ENDMDL
MODEL 3
REMARK VINA RESULT:      -5.9     11.284     15.994
REMARK  Name = 44423609_SipholenoneA.pdbqt.pdb
REMARK  4 active torsions:
REMARK  status: ('A' for Active; 'I' for Inactive)
REMARK    1  A    between atoms: C_3  and  C_19
REMARK    2  A    between atoms: C_5  and  O_17
REMARK    3  A    between atoms: C_20  and  C_24
REMARK    4  A    between atoms: C_25  and  O_35
REMARK                            x       y       z     vdW  Elec       q    Type
REMARK                         _______ _______ _______ _____ _____    ______ ____
ROOT
ATOM      1  O   UNL     1      38.719  22.500  80.006  0.00  0.00    +0.000 OA
ATOM      2  O   UNL     1      39.839  24.557  77.141  0.00  0.00    +0.000 OA
ATOM      3  C   UNL     1      41.557  22.836  82.734  0.00  0.00    +0.000 C 
ATOM      4  C   UNL     1      40.406  23.273  81.830  0.00  0.00    +0.000 C 
ATOM      5  C   UNL     1      41.540  21.462  83.381  0.00  0.00    +0.000 C 
ATOM      6  C   UNL     1      39.653  22.159  80.990  0.00  0.00    +0.000 C 
ATOM      7  C   UNL     1      40.555  20.637  82.707  0.00  0.00    +0.000 C 
ATOM      8  C   UNL     1      39.627  20.873  81.564  0.00  0.00    +0.000 C 
ATOM      9  C   UNL     1      40.895  24.151  80.753  0.00  0.00    +0.000 C 
ATOM     10  C   UNL     1      39.343  24.032  82.674  0.00  0.00    +0.000 C 
ATOM     11  C   UNL     1      42.932  20.821  83.344  0.00  0.00    +0.000 C 
ATOM     12  C   UNL     1      40.656  24.446  79.288  0.00  0.00    +0.000 C 
ATOM     13  C   UNL     1      39.127  22.563  78.598  0.00  0.00    +0.000 C 
ATOM     14  C   UNL     1      39.851  23.943  78.200  0.00  0.00    +0.000 C 
ATOM     15  C   UNL     1      37.798  22.403  77.790  0.00  0.00    +0.000 C 
ATOM     16  C   UNL     1      40.083  21.362  78.249  0.00  0.00    +0.000 C 
ENDROOT
BRANCH   5  17
ATOM     17  O   UNL     1      41.208  21.583  84.742  0.00  0.00    +0.000 OA
ATOM     18  H   UNL     1      41.083  20.649  84.989  0.00  0.00    +0.000 HD
ENDBRANCH   5  17
BRANCH   3  19
ATOM     19  C   UNL     1      42.518  23.816  83.174  0.00  0.00    +0.000 C 
ATOM     20  C   UNL     1      43.546  24.848  83.642  0.00  0.00    +0.000 C 
BRANCH  20  24
ATOM     21  C   UNL     1      44.325  27.163  86.327  0.00  0.00    +0.000 C 
ATOM     22  C   UNL     1      44.101  27.126  84.794  0.00  0.00    +0.000 C 
ATOM     23  C   UNL     1      45.661  27.102  87.021  0.00  0.00    +0.000 C 
ATOM     24  C   UNL     1      44.512  25.810  84.090  0.00  0.00    +0.000 C 
ATOM     25  C   UNL     1      45.519  27.208  88.541  0.00  0.00    +0.000 C 
ATOM     26  C   UNL     1      43.345  27.325  87.347  0.00  0.00    +0.000 C 
ATOM     27  C   UNL     1      44.075  27.361  88.660  0.00  0.00    +0.000 C 
ATOM     28  C   UNL     1      46.680  26.451  86.296  0.00  0.00    +0.000 C 
ATOM     29  C   UNL     1      45.930  25.475  83.948  0.00  0.00    +0.000 C 
ATOM     30  C   UNL     1      42.570  27.391  84.523  0.00  0.00    +0.000 C 
ATOM     31  C   UNL     1      44.866  28.333  84.153  0.00  0.00    +0.000 C 
ATOM     32  C   UNL     1      46.696  25.779  84.949  0.00  0.00    +0.000 C 
ATOM     33  C   UNL     1      46.362  28.333  89.117  0.00  0.00    +0.000 C 
ATOM     34  C   UNL     1      46.460  24.460  82.969  0.00  0.00    +0.000 C 
BRANCH  25  35
ATOM     35  O   UNL     1      45.940  26.016  89.158  0.00  0.00    +0.000 OA
ATOM     36  H   UNL     1      46.389  25.576  88.416  0.00  0.00    +0.000 HD
ENDBRANCH  25  35
ENDBRANCH  20  24
ENDBRANCH   3  19
TORSDOF 4
ENDMDL
MODEL 4
REMARK VINA RESULT:      -5.9     11.071     15.285
REMARK  Name = 44423609_SipholenoneA.pdbqt.pdb
REMARK  4 active torsions:
REMARK  status: ('A' for Active; 'I' for Inactive)
REMARK    1  A    between atoms: C_3  and  C_19
REMARK    2  A    between atoms: C_5  and  O_17
REMARK    3  A    between atoms: C_20  and  C_24
REMARK    4  A    between atoms: C_25  and  O_35
REMARK                            x       y       z     vdW  Elec       q    Type
REMARK                         _______ _______ _______ _____ _____    ______ ____
ROOT
ATOM      1  O   UNL     1      38.334  22.444  79.538  0.00  0.00    +0.000 OA
ATOM      2  O   UNL     1      39.615  25.422  77.753  0.00  0.00    +0.000 OA
ATOM      3  C   UNL     1      40.819  21.857  82.553  0.00  0.00    +0.000 C 
ATOM      4  C   UNL     1      39.747  22.557  81.720  0.00  0.00    +0.000 C 
ATOM      5  C   UNL     1      40.828  20.342  82.666  0.00  0.00    +0.000 C 
ATOM      6  C   UNL     1      39.174  21.798  80.451  0.00  0.00    +0.000 C 
ATOM      7  C   UNL     1      39.987  19.787  81.623  0.00  0.00    +0.000 C 
ATOM      8  C   UNL     1      39.177  20.392  80.525  0.00  0.00    +0.000 C 
ATOM      9  C   UNL     1      40.288  23.776  81.095  0.00  0.00    +0.000 C 
ATOM     10  C   UNL     1      38.545  22.933  82.631  0.00  0.00    +0.000 C 
ATOM     11  C   UNL     1      42.258  19.795  82.586  0.00  0.00    +0.000 C 
ATOM     12  C   UNL     1      40.194  24.571  79.810  0.00  0.00    +0.000 C 
ATOM     13  C   UNL     1      38.891  23.019  78.308  0.00  0.00    +0.000 C 
ATOM     14  C   UNL     1      39.553  24.469  78.520  0.00  0.00    +0.000 C 
ATOM     15  C   UNL     1      37.675  23.123  77.330  0.00  0.00    +0.000 C 
ATOM     16  C   UNL     1      39.964  22.050  77.685  0.00  0.00    +0.000 C 
ENDROOT
BRANCH   5  17
ATOM     17  O   UNL     1      40.339  19.958  83.926  0.00  0.00    +0.000 OA
ATOM     18  H   UNL     1      40.255  18.994  83.810  0.00  0.00    +0.000 HD
ENDBRANCH   5  17
BRANCH   3  19
ATOM     19  C   UNL     1      41.651  22.640  83.430  0.00  0.00    +0.000 C 
ATOM     20  C   UNL     1      42.544  23.463  84.362  0.00  0.00    +0.000 C 
BRANCH  20  24
ATOM     21  C   UNL     1      45.964  23.869  85.506  0.00  0.00    +0.000 C 
ATOM     22  C   UNL     1      44.540  23.584  86.043  0.00  0.00    +0.000 C 
ATOM     23  C   UNL     1      46.630  25.220  85.452  0.00  0.00    +0.000 C 
ATOM     24  C   UNL     1      43.382  24.227  85.241  0.00  0.00    +0.000 C 
ATOM     25  C   UNL     1      48.056  25.132  84.904  0.00  0.00    +0.000 C 
ATOM     26  C   UNL     1      46.922  22.926  85.033  0.00  0.00    +0.000 C 
ATOM     27  C   UNL     1      48.167  23.694  84.689  0.00  0.00    +0.000 C 
ATOM     28  C   UNL     1      45.747  26.316  85.378  0.00  0.00    +0.000 C 
ATOM     29  C   UNL     1      43.176  25.675  85.297  0.00  0.00    +0.000 C 
ATOM     30  C   UNL     1      44.335  22.020  86.067  0.00  0.00    +0.000 C 
ATOM     31  C   UNL     1      44.472  24.049  87.537  0.00  0.00    +0.000 C 
ATOM     32  C   UNL     1      44.245  26.408  85.326  0.00  0.00    +0.000 C 
ATOM     33  C   UNL     1      49.071  25.748  85.851  0.00  0.00    +0.000 C 
ATOM     34  C   UNL     1      41.893  26.358  84.899  0.00  0.00    +0.000 C 
BRANCH  25  35
ATOM     35  O   UNL     1      48.157  25.820  83.682  0.00  0.00    +0.000 OA
ATOM     36  H   UNL     1      47.967  26.730  83.971  0.00  0.00    +0.000 HD
ENDBRANCH  25  35
ENDBRANCH  20  24
ENDBRANCH   3  19
TORSDOF 4
ENDMDL
MODEL 5
REMARK VINA RESULT:      -5.8     11.122     15.328
REMARK  Name = 44423609_SipholenoneA.pdbqt.pdb
REMARK  4 active torsions:
REMARK  status: ('A' for Active; 'I' for Inactive)
REMARK    1  A    between atoms: C_3  and  C_19
REMARK    2  A    between atoms: C_5  and  O_17
REMARK    3  A    between atoms: C_20  and  C_24
REMARK    4  A    between atoms: C_25  and  O_35
REMARK                            x       y       z     vdW  Elec       q    Type
REMARK                         _______ _______ _______ _____ _____    ______ ____
ROOT
ATOM      1  O   UNL     1      38.611  22.415  79.550  0.00  0.00    +0.000 OA
ATOM      2  O   UNL     1      39.844  25.665  78.281  0.00  0.00    +0.000 OA
ATOM      3  C   UNL     1      41.209  21.291  82.307  0.00  0.00    +0.000 C 
ATOM      4  C   UNL     1      40.111  22.131  81.657  0.00  0.00    +0.000 C 
ATOM      5  C   UNL     1      41.211  19.780  82.144  0.00  0.00    +0.000 C 
ATOM      6  C   UNL     1      39.482  21.614  80.297  0.00  0.00    +0.000 C 
ATOM      7  C   UNL     1      40.324  19.423  81.053  0.00  0.00    +0.000 C 
ATOM      8  C   UNL     1      39.476  20.217  80.117  0.00  0.00    +0.000 C 
ATOM      9  C   UNL     1      40.637  23.441  81.241  0.00  0.00    +0.000 C 
ATOM     10  C   UNL     1      38.949  22.337  82.670  0.00  0.00    +0.000 C 
ATOM     11  C   UNL     1      42.632  19.256  81.909  0.00  0.00    +0.000 C 
ATOM     12  C   UNL     1      40.497  24.455  80.126  0.00  0.00    +0.000 C 
ATOM     13  C   UNL     1      39.123  23.201  78.423  0.00  0.00    +0.000 C 
ATOM     14  C   UNL     1      39.805  24.589  78.865  0.00  0.00    +0.000 C 
ATOM     15  C   UNL     1      37.870  23.482  77.530  0.00  0.00    +0.000 C 
ATOM     16  C   UNL     1      40.163  22.360  77.592  0.00  0.00    +0.000 C 
ENDROOT
BRANCH   5  17
ATOM     17  O   UNL     1      40.769  19.175  83.333  0.00  0.00    +0.000 OA
ATOM     18  H   UNL     1      40.673  18.248  83.049  0.00  0.00    +0.000 HD
ENDBRANCH   5  17
BRANCH   3  19
ATOM     19  C   UNL     1      42.082  21.902  83.277  0.00  0.00    +0.000 C 
ATOM     20  C   UNL     1      43.012  22.560  84.299  0.00  0.00    +0.000 C 
BRANCH  20  24
ATOM     21  C   UNL     1      44.901  25.581  84.992  0.00  0.00    +0.000 C 
ATOM     22  C   UNL     1      45.091  24.053  84.818  0.00  0.00    +0.000 C 
ATOM     23  C   UNL     1      44.730  26.302  86.304  0.00  0.00    +0.000 C 
ATOM     24  C   UNL     1      43.891  23.176  85.250  0.00  0.00    +0.000 C 
ATOM     25  C   UNL     1      44.611  27.815  86.112  0.00  0.00    +0.000 C 
ATOM     26  C   UNL     1      44.917  26.582  83.978  0.00  0.00    +0.000 C 
ATOM     27  C   UNL     1      44.754  27.909  84.665  0.00  0.00    +0.000 C 
ATOM     28  C   UNL     1      44.186  25.521  87.345  0.00  0.00    +0.000 C 
ATOM     29  C   UNL     1      43.572  23.033  86.672  0.00  0.00    +0.000 C 
ATOM     30  C   UNL     1      45.403  23.775  83.297  0.00  0.00    +0.000 C 
ATOM     31  C   UNL     1      46.375  23.622  85.605  0.00  0.00    +0.000 C 
ATOM     32  C   UNL     1      43.720  24.091  87.405  0.00  0.00    +0.000 C 
ATOM     33  C   UNL     1      45.634  28.577  86.937  0.00  0.00    +0.000 C 
ATOM     34  C   UNL     1      42.708  21.932  87.232  0.00  0.00    +0.000 C 
BRANCH  25  35
ATOM     35  O   UNL     1      43.339  28.263  86.510  0.00  0.00    +0.000 OA
ATOM     36  H   UNL     1      43.582  29.000  87.098  0.00  0.00    +0.000 HD
ENDBRANCH  25  35
ENDBRANCH  20  24
ENDBRANCH   3  19
TORSDOF 4
ENDMDL
MODEL 6
REMARK VINA RESULT:      -5.7      5.030     12.329
REMARK  Name = 44423609_SipholenoneA.pdbqt.pdb
REMARK  4 active torsions:
REMARK  status: ('A' for Active; 'I' for Inactive)
REMARK    1  A    between atoms: C_3  and  C_19
REMARK    2  A    between atoms: C_5  and  O_17
REMARK    3  A    between atoms: C_20  and  C_24
REMARK    4  A    between atoms: C_25  and  O_35
REMARK                            x       y       z     vdW  Elec       q    Type
REMARK                         _______ _______ _______ _____ _____    ______ ____
ROOT
ATOM      1  O   UNL     1      50.877  19.509  77.999  0.00  0.00    +0.000 OA
ATOM      2  O   UNL     1      53.131  17.343  76.018  0.00  0.00    +0.000 OA
ATOM      3  C   UNL     1      52.384  19.558  81.651  0.00  0.00    +0.000 C 
ATOM      4  C   UNL     1      52.305  19.833  80.151  0.00  0.00    +0.000 C 
ATOM      5  C   UNL     1      51.134  19.642  82.510  0.00  0.00    +0.000 C 
ATOM      6  C   UNL     1      50.961  19.462  79.395  0.00  0.00    +0.000 C 
ATOM      7  C   UNL     1      49.968  19.621  81.646  0.00  0.00    +0.000 C 
ATOM      8  C   UNL     1      49.786  19.526  80.169  0.00  0.00    +0.000 C 
ATOM      9  C   UNL     1      53.274  19.001  79.418  0.00  0.00    +0.000 C 
ATOM     10  C   UNL     1      52.603  21.334  79.882  0.00  0.00    +0.000 C 
ATOM     11  C   UNL     1      51.096  18.504  83.536  0.00  0.00    +0.000 C 
ATOM     12  C   UNL     1      53.411  18.236  78.119  0.00  0.00    +0.000 C 
ATOM     13  C   UNL     1      51.058  18.284  77.212  0.00  0.00    +0.000 C 
ATOM     14  C   UNL     1      52.601  17.896  76.973  0.00  0.00    +0.000 C 
ATOM     15  C   UNL     1      50.363  18.583  75.844  0.00  0.00    +0.000 C 
ATOM     16  C   UNL     1      50.325  17.074  77.903  0.00  0.00    +0.000 C 
ENDROOT
BRANCH   5  17
ATOM     17  O   UNL     1      51.150  20.833  83.256  0.00  0.00    +0.000 OA
ATOM     18  H   UNL     1      51.569  21.445  82.625  0.00  0.00    +0.000 HD
ENDBRANCH   5  17
BRANCH   3  19
ATOM     19  C   UNL     1      53.676  19.478  82.284  0.00  0.00    +0.000 C 
ATOM     20  C   UNL     1      55.047  19.379  82.958  0.00  0.00    +0.000 C 
BRANCH  20  24
ATOM     21  C   UNL     1      58.522  18.490  82.406  0.00  0.00    +0.000 C 
ATOM     22  C   UNL     1      57.313  18.127  83.304  0.00  0.00    +0.000 C 
ATOM     23  C   UNL     1      59.622  19.458  82.761  0.00  0.00    +0.000 C 
ATOM     24  C   UNL     1      56.327  19.284  83.599  0.00  0.00    +0.000 C 
ATOM     25  C   UNL     1      60.682  19.545  81.662  0.00  0.00    +0.000 C 
ATOM     26  C   UNL     1      58.857  17.945  81.134  0.00  0.00    +0.000 C 
ATOM     27  C   UNL     1      60.153  18.577  80.709  0.00  0.00    +0.000 C 
ATOM     28  C   UNL     1      59.258  20.458  83.687  0.00  0.00    +0.000 C 
ATOM     29  C   UNL     1      56.733  20.375  84.487  0.00  0.00    +0.000 C 
ATOM     30  C   UNL     1      56.526  16.954  82.603  0.00  0.00    +0.000 C 
ATOM     31  C   UNL     1      57.856  17.537  84.650  0.00  0.00    +0.000 C 
ATOM     32  C   UNL     1      57.965  20.766  84.393  0.00  0.00    +0.000 C 
ATOM     33  C   UNL     1      62.078  19.270  82.191  0.00  0.00    +0.000 C 
ATOM     34  C   UNL     1      55.766  21.322  85.149  0.00  0.00    +0.000 C 
BRANCH  25  35
ATOM     35  O   UNL     1      60.698  20.833  81.095  0.00  0.00    +0.000 OA
ATOM     36  H   UNL     1      60.892  21.373  81.881  0.00  0.00    +0.000 HD
ENDBRANCH  25  35
ENDBRANCH  20  24
ENDBRANCH   3  19
TORSDOF 4
ENDMDL
MODEL 7
REMARK VINA RESULT:      -5.6     14.208     18.368
REMARK  Name = 44423609_SipholenoneA.pdbqt.pdb
REMARK  4 active torsions:
REMARK  status: ('A' for Active; 'I' for Inactive)
REMARK    1  A    between atoms: C_3  and  C_19
REMARK    2  A    between atoms: C_5  and  O_17
REMARK    3  A    between atoms: C_20  and  C_24
REMARK    4  A    between atoms: C_25  and  O_35
REMARK                            x       y       z     vdW  Elec       q    Type
REMARK                         _______ _______ _______ _____ _____    ______ ____
ROOT
ATOM      1  O   UNL     1      39.386  21.832  80.383  0.00  0.00    +0.000 OA
ATOM      2  O   UNL     1      38.920  22.882  76.866  0.00  0.00    +0.000 OA
ATOM      3  C   UNL     1      35.920  22.492  82.162  0.00  0.00    +0.000 C 
ATOM      4  C   UNL     1      36.918  21.837  81.209  0.00  0.00    +0.000 C 
ATOM      5  C   UNL     1      36.353  22.895  83.561  0.00  0.00    +0.000 C 
ATOM      6  C   UNL     1      38.445  22.243  81.334  0.00  0.00    +0.000 C 
ATOM      7  C   UNL     1      37.802  22.907  83.620  0.00  0.00    +0.000 C 
ATOM      8  C   UNL     1      38.873  22.627  82.620  0.00  0.00    +0.000 C 
ATOM      9  C   UNL     1      36.640  22.228  79.816  0.00  0.00    +0.000 C 
ATOM     10  C   UNL     1      36.824  20.291  81.342  0.00  0.00    +0.000 C 
ATOM     11  C   UNL     1      35.761  24.255  83.947  0.00  0.00    +0.000 C 
ATOM     12  C   UNL     1      37.364  22.564  78.531  0.00  0.00    +0.000 C 
ATOM     13  C   UNL     1      39.764  22.733  79.289  0.00  0.00    +0.000 C 
ATOM     14  C   UNL     1      38.721  22.729  78.064  0.00  0.00    +0.000 C 
ATOM     15  C   UNL     1      41.157  22.213  78.807  0.00  0.00    +0.000 C 
ATOM     16  C   UNL     1      39.925  24.206  79.821  0.00  0.00    +0.000 C 
ENDROOT
BRANCH   5  17
ATOM     17  O   UNL     1      35.847  21.976  84.497  0.00  0.00    +0.000 OA
ATOM     18  H   UNL     1      35.852  22.512  85.310  0.00  0.00    +0.000 HD
ENDBRANCH   5  17
BRANCH   3  19
ATOM     19  C   UNL     1      34.519  22.487  81.825  0.00  0.00    +0.000 C 
ATOM     20  C   UNL     1      33.032  22.494  81.464  0.00  0.00    +0.000 C 
BRANCH  20  24
ATOM     21  C   UNL     1      29.728  21.663  82.717  0.00  0.00    +0.000 C 
ATOM     22  C   UNL     1      30.680  21.359  81.533  0.00  0.00    +0.000 C 
ATOM     23  C   UNL     1      28.633  22.698  82.722  0.00  0.00    +0.000 C 
ATOM     24  C   UNL     1      31.636  22.509  81.132  0.00  0.00    +0.000 C 
ATOM     25  C   UNL     1      27.857  22.700  84.041  0.00  0.00    +0.000 C 
ATOM     26  C   UNL     1      29.661  20.995  83.974  0.00  0.00    +0.000 C 
ATOM     27  C   UNL     1      28.533  21.619  84.747  0.00  0.00    +0.000 C 
ATOM     28  C   UNL     1      28.832  23.779  81.839  0.00  0.00    +0.000 C 
ATOM     29  C   UNL     1      31.101  23.701  80.472  0.00  0.00    +0.000 C 
ATOM     30  C   UNL     1      31.539  20.093  81.915  0.00  0.00    +0.000 C 
ATOM     31  C   UNL     1      29.814  20.934  80.299  0.00  0.00    +0.000 C 
ATOM     32  C   UNL     1      29.946  24.119  80.886  0.00  0.00    +0.000 C 
ATOM     33  C   UNL     1      26.363  22.528  83.825  0.00  0.00    +0.000 C 
ATOM     34  C   UNL     1      31.943  24.682  79.698  0.00  0.00    +0.000 C 
BRANCH  25  35
ATOM     35  O   UNL     1      28.041  23.920  84.718  0.00  0.00    +0.000 OA
ATOM     36  H   UNL     1      28.964  23.825  85.011  0.00  0.00    +0.000 HD
ENDBRANCH  25  35
ENDBRANCH  20  24
ENDBRANCH   3  19
TORSDOF 4
ENDMDL
MODEL 8
REMARK VINA RESULT:      -5.5     46.501     49.396
REMARK  Name = 44423609_SipholenoneA.pdbqt.pdb
REMARK  4 active torsions:
REMARK  status: ('A' for Active; 'I' for Inactive)
REMARK    1  A    between atoms: C_3  and  C_19
REMARK    2  A    between atoms: C_5  and  O_17
REMARK    3  A    between atoms: C_20  and  C_24
REMARK    4  A    between atoms: C_25  and  O_35
REMARK                            x       y       z     vdW  Elec       q    Type
REMARK                         _______ _______ _______ _____ _____    ______ ____
ROOT
ATOM      1  O   UNL     1      10.561  12.754 103.413  0.00  0.00    +0.000 OA
ATOM      2  O   UNL     1      12.943  15.320 102.213  0.00  0.00    +0.000 OA
ATOM      3  C   UNL     1       7.222  13.370 101.392  0.00  0.00    +0.000 C 
ATOM      4  C   UNL     1       8.681  12.984 101.629  0.00  0.00    +0.000 C 
ATOM      5  C   UNL     1       6.160  13.002 102.414  0.00  0.00    +0.000 C 
ATOM      6  C   UNL     1       9.202  12.917 103.124  0.00  0.00    +0.000 C 
ATOM      7  C   UNL     1       6.811  12.643 103.659  0.00  0.00    +0.000 C 
ATOM      8  C   UNL     1       8.236  12.583 104.095  0.00  0.00    +0.000 C 
ATOM      9  C   UNL     1       9.586  14.000 101.064  0.00  0.00    +0.000 C 
ATOM     10  C   UNL     1       8.968  11.608 100.964  0.00  0.00    +0.000 C 
ATOM     11  C   UNL     1       5.166  14.152 102.609  0.00  0.00    +0.000 C 
ATOM     12  C   UNL     1      10.904  14.683 101.359  0.00  0.00    +0.000 C 
ATOM     13  C   UNL     1      11.392  13.926 103.715  0.00  0.00    +0.000 C 
ATOM     14  C   UNL     1      11.900  14.708 102.405  0.00  0.00    +0.000 C 
ATOM     15  C   UNL     1      12.614  13.355 104.505  0.00  0.00    +0.000 C 
ATOM     16  C   UNL     1      10.609  14.930 104.641  0.00  0.00    +0.000 C 
ENDROOT
BRANCH   5  17
ATOM     17  O   UNL     1       5.404  11.916 101.941  0.00  0.00    +0.000 OA
ATOM     18  H   UNL     1       4.792  12.364 101.330  0.00  0.00    +0.000 HD
ENDBRANCH   5  17
BRANCH   3  19
ATOM     19  C   UNL     1       6.823  13.847 100.092  0.00  0.00    +0.000 C 
ATOM     20  C   UNL     1       6.387  14.357  98.717  0.00  0.00    +0.000 C 
BRANCH  20  24
ATOM     21  C   UNL     1       3.989  13.809  96.047  0.00  0.00    +0.000 C 
ATOM     22  C   UNL     1       5.516  13.865  96.303  0.00  0.00    +0.000 C 
ATOM     23  C   UNL     1       3.140  14.946  95.541  0.00  0.00    +0.000 C 
ATOM     24  C   UNL     1       5.971  14.828  97.427  0.00  0.00    +0.000 C 
ATOM     25  C   UNL     1       1.679  14.529  95.361  0.00  0.00    +0.000 C 
ATOM     26  C   UNL     1       3.127  12.682  96.173  0.00  0.00    +0.000 C 
ATOM     27  C   UNL     1       1.755  13.126  95.750  0.00  0.00    +0.000 C 
ATOM     28  C   UNL     1       3.638  16.234  95.827  0.00  0.00    +0.000 C 
ATOM     29  C   UNL     1       5.893  16.276  97.218  0.00  0.00    +0.000 C 
ATOM     30  C   UNL     1       6.002  12.407  96.656  0.00  0.00    +0.000 C 
ATOM     31  C   UNL     1       6.229  14.243  94.961  0.00  0.00    +0.000 C 
ATOM     32  C   UNL     1       4.863  16.708  96.562  0.00  0.00    +0.000 C 
ATOM     33  C   UNL     1       1.175  14.809  93.955  0.00  0.00    +0.000 C 
ATOM     34  C   UNL     1       6.647  17.285  98.045  0.00  0.00    +0.000 C 
BRANCH  25  35
ATOM     35  O   UNL     1       0.851  15.240  96.248  0.00  0.00    +0.000 OA
ATOM     36  H   UNL     1       0.807  14.616  96.993  0.00  0.00    +0.000 HD
ENDBRANCH  25  35
ENDBRANCH  20  24
ENDBRANCH   3  19
TORSDOF 4
ENDMDL
MODEL 9
REMARK VINA RESULT:      -5.5     17.151     21.155
REMARK  Name = 44423609_SipholenoneA.pdbqt.pdb
REMARK  4 active torsions:
REMARK  status: ('A' for Active; 'I' for Inactive)
REMARK    1  A    between atoms: C_3  and  C_19
REMARK    2  A    between atoms: C_5  and  O_17
REMARK    3  A    between atoms: C_20  and  C_24
REMARK    4  A    between atoms: C_25  and  O_35
REMARK                            x       y       z     vdW  Elec       q    Type
REMARK                         _______ _______ _______ _____ _____    ______ ____
ROOT
ATOM      1  O   UNL     1      57.119  27.269  60.491  0.00  0.00    +0.000 OA
ATOM      2  O   UNL     1      60.481  26.030  59.567  0.00  0.00    +0.000 OA
ATOM      3  C   UNL     1      57.543  28.961  64.037  0.00  0.00    +0.000 C 
ATOM      4  C   UNL     1      57.713  28.772  62.530  0.00  0.00    +0.000 C 
ATOM      5  C   UNL     1      56.212  28.648  64.699  0.00  0.00    +0.000 C 
ATOM      6  C   UNL     1      56.880  27.624  61.823  0.00  0.00    +0.000 C 
ATOM      7  C   UNL     1      55.410  27.851  63.790  0.00  0.00    +0.000 C 
ATOM      8  C   UNL     1      55.643  27.309  62.420  0.00  0.00    +0.000 C 
ATOM      9  C   UNL     1      59.089  28.354  62.212  0.00  0.00    +0.000 C 
ATOM     10  C   UNL     1      57.396  30.108  61.801  0.00  0.00    +0.000 C 
ATOM     11  C   UNL     1      56.420  27.935  66.039  0.00  0.00    +0.000 C 
ATOM     12  C   UNL     1      59.844  27.448  61.263  0.00  0.00    +0.000 C 
ATOM     13  C   UNL     1      57.987  26.128  60.181  0.00  0.00    +0.000 C 
ATOM     14  C   UNL     1      59.555  26.482  60.229  0.00  0.00    +0.000 C 
ATOM     15  C   UNL     1      57.579  25.697  58.735  0.00  0.00    +0.000 C 
ATOM     16  C   UNL     1      57.700  24.935  61.168  0.00  0.00    +0.000 C 
ENDROOT
BRANCH   5  17
ATOM     17  O   UNL     1      55.540  29.845  65.000  0.00  0.00    +0.000 OA
ATOM     18  H   UNL     1      56.250  30.499  64.867  0.00  0.00    +0.000 HD
ENDBRANCH   5  17
BRANCH   3  19
ATOM     19  C   UNL     1      58.553  29.674  64.775  0.00  0.00    +0.000 C 
ATOM     20  C   UNL     1      59.634  30.434  65.549  0.00  0.00    +0.000 C 
BRANCH  20  24
ATOM     21  C   UNL     1      61.034  30.949  68.858  0.00  0.00    +0.000 C 
ATOM     22  C   UNL     1      60.406  31.734  67.679  0.00  0.00    +0.000 C 
ATOM     23  C   UNL     1      62.509  30.757  69.099  0.00  0.00    +0.000 C 
ATOM     24  C   UNL     1      60.653  31.139  66.272  0.00  0.00    +0.000 C 
ATOM     25  C   UNL     1      62.778  29.967  70.382  0.00  0.00    +0.000 C 
ATOM     26  C   UNL     1      60.360  30.331  69.950  0.00  0.00    +0.000 C 
ATOM     27  C   UNL     1      61.415  29.760  70.855  0.00  0.00    +0.000 C 
ATOM     28  C   UNL     1      63.314  30.821  67.943  0.00  0.00    +0.000 C 
ATOM     29  C   UNL     1      61.991  31.206  65.680  0.00  0.00    +0.000 C 
ATOM     30  C   UNL     1      58.851  31.820  67.929  0.00  0.00    +0.000 C 
ATOM     31  C   UNL     1      60.931  33.209  67.731  0.00  0.00    +0.000 C 
ATOM     32  C   UNL     1      62.988  31.033  66.489  0.00  0.00    +0.000 C 
ATOM     33  C   UNL     1      63.709  30.710  71.325  0.00  0.00    +0.000 C 
ATOM     34  C   UNL     1      62.269  31.028  64.209  0.00  0.00    +0.000 C 
BRANCH  25  35
ATOM     35  O   UNL     1      63.387  28.735  70.082  0.00  0.00    +0.000 OA
ATOM     36  H   UNL     1      62.794  28.405  69.384  0.00  0.00    +0.000 HD
ENDBRANCH  25  35
ENDBRANCH  20  24
ENDBRANCH   3  19
TORSDOF 4
ENDMDL
