MODEL 1
REMARK VINA RESULT:      -6.1      0.000      0.000
REMARK  Name = 445154_Resveratrol.pdbqt.pdb
REMARK  5 active torsions:
REMARK  status: ('A' for Active; 'I' for Inactive)
REMARK    1  A    between atoms: C_1  and  C_11
REMARK    2  A    between atoms: C_4  and  O_7
REMARK    3  A    between atoms: C_5  and  O_9
REMARK    4  A    between atoms: C_12  and  C_13
REMARK    5  A    between atoms: C_18  and  O_19
REMARK                            x       y       z     vdW  Elec       q    Type
REMARK                         _______ _______ _______ _____ _____    ______ ____
ROOT
ATOM      1  C   UNL     1      57.480  35.581  78.600  0.00  0.00    +0.000 A 
ATOM      2  C   UNL     1      58.387  34.608  79.017  0.00  0.00    +0.000 A 
ATOM      3  C   UNL     1      56.579  36.136  79.508  0.00  0.00    +0.000 A 
ATOM      4  C   UNL     1      56.594  35.711  80.834  0.00  0.00    +0.000 A 
ATOM      5  C   UNL     1      58.386  34.197  80.346  0.00  0.00    +0.000 A 
ATOM      6  C   UNL     1      57.494  34.741  81.264  0.00  0.00    +0.000 A 
ENDROOT
BRANCH   4   7
ATOM      7  O   UNL     1      55.724  36.236  81.745  0.00  0.00    +0.000 OA
ATOM      8  H   UNL     1      55.081  35.546  81.984  0.00  0.00    +0.000 HD
ENDBRANCH   4   7
BRANCH   5   9
ATOM      9  O   UNL     1      59.283  33.243  80.731  0.00  0.00    +0.000 OA
ATOM     10  H   UNL     1      59.367  33.284  81.700  0.00  0.00    +0.000 HD
ENDBRANCH   5   9
BRANCH   1  11
ATOM     11  C   UNL     1      57.471  36.011  77.240  0.00  0.00    +0.000 C 
ATOM     12  C   UNL     1      57.463  36.374  76.095  0.00  0.00    +0.000 C 
BRANCH  12  13
ATOM     13  C   UNL     1      57.455  36.805  74.735  0.00  0.00    +0.000 A 
ATOM     14  C   UNL     1      56.572  37.805  74.329  0.00  0.00    +0.000 A 
ATOM     15  C   UNL     1      58.328  36.224  73.816  0.00  0.00    +0.000 A 
ATOM     16  C   UNL     1      56.562  38.227  73.003  0.00  0.00    +0.000 A 
ATOM     17  C   UNL     1      58.321  36.644  72.488  0.00  0.00    +0.000 A 
ATOM     18  C   UNL     1      57.437  37.642  72.092  0.00  0.00    +0.000 A 
BRANCH  18  19
ATOM     19  O   UNL     1      57.449  38.037  70.786  0.00  0.00    +0.000 OA
ATOM     20  H   UNL     1      58.086  38.766  70.693  0.00  0.00    +0.000 HD
ENDBRANCH  18  19
ENDBRANCH  12  13
ENDBRANCH   1  11
TORSDOF 5
ENDMDL
MODEL 2
REMARK VINA RESULT:      -6.1      1.613      2.762
REMARK  Name = 445154_Resveratrol.pdbqt.pdb
REMARK  5 active torsions:
REMARK  status: ('A' for Active; 'I' for Inactive)
REMARK    1  A    between atoms: C_1  and  C_11
REMARK    2  A    between atoms: C_4  and  O_7
REMARK    3  A    between atoms: C_5  and  O_9
REMARK    4  A    between atoms: C_12  and  C_13
REMARK    5  A    between atoms: C_18  and  O_19
REMARK                            x       y       z     vdW  Elec       q    Type
REMARK                         _______ _______ _______ _____ _____    ______ ____
ROOT
ATOM      1  C   UNL     1      57.730  36.282  78.894  0.00  0.00    +0.000 A 
ATOM      2  C   UNL     1      56.802  36.611  79.881  0.00  0.00    +0.000 A 
ATOM      3  C   UNL     1      58.615  35.222  79.088  0.00  0.00    +0.000 A 
ATOM      4  C   UNL     1      58.564  34.495  80.274  0.00  0.00    +0.000 A 
ATOM      5  C   UNL     1      56.768  35.873  81.060  0.00  0.00    +0.000 A 
ATOM      6  C   UNL     1      57.644  34.812  81.268  0.00  0.00    +0.000 A 
ENDROOT
BRANCH   4   7
ATOM      7  O   UNL     1      59.418  33.453  80.491  0.00  0.00    +0.000 OA
ATOM      8  H   UNL     1      60.295  33.818  80.703  0.00  0.00    +0.000 HD
ENDBRANCH   4   7
BRANCH   5   9
ATOM      9  O   UNL     1      55.851  36.213  82.013  0.00  0.00    +0.000 OA
ATOM     10  H   UNL     1      56.310  36.727  82.701  0.00  0.00    +0.000 HD
ENDBRANCH   5   9
BRANCH   1  11
ATOM     11  C   UNL     1      57.775  37.031  77.681  0.00  0.00    +0.000 C 
ATOM     12  C   UNL     1      57.814  37.663  76.660  0.00  0.00    +0.000 C 
BRANCH  12  13
ATOM     13  C   UNL     1      57.861  38.412  75.448  0.00  0.00    +0.000 A 
ATOM     14  C   UNL     1      59.093  38.775  74.902  0.00  0.00    +0.000 A 
ATOM     15  C   UNL     1      56.676  38.780  74.811  0.00  0.00    +0.000 A 
ATOM     16  C   UNL     1      59.141  39.506  73.719  0.00  0.00    +0.000 A 
ATOM     17  C   UNL     1      56.721  39.511  73.627  0.00  0.00    +0.000 A 
ATOM     18  C   UNL     1      57.953  39.869  73.090  0.00  0.00    +0.000 A 
BRANCH  18  19
ATOM     19  O   UNL     1      57.971  40.586  71.930  0.00  0.00    +0.000 OA
ATOM     20  H   UNL     1      58.847  41.001  71.840  0.00  0.00    +0.000 HD
ENDBRANCH  18  19
ENDBRANCH  12  13
ENDBRANCH   1  11
TORSDOF 5
ENDMDL
MODEL 3
REMARK VINA RESULT:      -5.8      1.966      3.223
REMARK  Name = 445154_Resveratrol.pdbqt.pdb
REMARK  5 active torsions:
REMARK  status: ('A' for Active; 'I' for Inactive)
REMARK    1  A    between atoms: C_1  and  C_11
REMARK    2  A    between atoms: C_4  and  O_7
REMARK    3  A    between atoms: C_5  and  O_9
REMARK    4  A    between atoms: C_12  and  C_13
REMARK    5  A    between atoms: C_18  and  O_19
REMARK                            x       y       z     vdW  Elec       q    Type
REMARK                         _______ _______ _______ _____ _____    ______ ____
ROOT
ATOM      1  C   UNL     1      57.575  35.452  80.296  0.00  0.00    +0.000 A 
ATOM      2  C   UNL     1      57.577  36.078  81.542  0.00  0.00    +0.000 A 
ATOM      3  C   UNL     1      57.920  34.105  80.187  0.00  0.00    +0.000 A 
ATOM      4  C   UNL     1      58.264  33.392  81.332  0.00  0.00    +0.000 A 
ATOM      5  C   UNL     1      57.924  35.347  82.674  0.00  0.00    +0.000 A 
ATOM      6  C   UNL     1      58.269  34.003  82.582  0.00  0.00    +0.000 A 
ENDROOT
BRANCH   4   7
ATOM      7  O   UNL     1      58.605  32.073  81.255  0.00  0.00    +0.000 OA
ATOM      8  H   UNL     1      59.270  31.971  80.551  0.00  0.00    +0.000 HD
ENDBRANCH   4   7
BRANCH   5   9
ATOM      9  O   UNL     1      57.918  35.981  83.883  0.00  0.00    +0.000 OA
ATOM     10  H   UNL     1      56.996  36.027  84.194  0.00  0.00    +0.000 HD
ENDBRANCH   5   9
BRANCH   1  11
ATOM     11  C   UNL     1      57.222  36.190  79.129  0.00  0.00    +0.000 C 
ATOM     12  C   UNL     1      56.923  36.813  78.145  0.00  0.00    +0.000 C 
BRANCH  12  13
ATOM     13  C   UNL     1      56.570  37.552  76.978  0.00  0.00    +0.000 A 
ATOM     14  C   UNL     1      56.509  36.910  75.741  0.00  0.00    +0.000 A 
ATOM     15  C   UNL     1      56.285  38.913  77.076  0.00  0.00    +0.000 A 
ATOM     16  C   UNL     1      56.164  37.629  74.600  0.00  0.00    +0.000 A 
ATOM     17  C   UNL     1      55.940  39.636  75.937  0.00  0.00    +0.000 A 
ATOM     18  C   UNL     1      55.882  38.988  74.708  0.00  0.00    +0.000 A 
BRANCH  18  19
ATOM     19  O   UNL     1      55.541  39.717  73.606  0.00  0.00    +0.000 OA
ATOM     20  H   UNL     1      56.346  39.871  73.081  0.00  0.00    +0.000 HD
ENDBRANCH  18  19
ENDBRANCH  12  13
ENDBRANCH   1  11
TORSDOF 5
ENDMDL
MODEL 4
REMARK VINA RESULT:      -5.7      3.515      5.222
REMARK  Name = 445154_Resveratrol.pdbqt.pdb
REMARK  5 active torsions:
REMARK  status: ('A' for Active; 'I' for Inactive)
REMARK    1  A    between atoms: C_1  and  C_11
REMARK    2  A    between atoms: C_4  and  O_7
REMARK    3  A    between atoms: C_5  and  O_9
REMARK    4  A    between atoms: C_12  and  C_13
REMARK    5  A    between atoms: C_18  and  O_19
REMARK                            x       y       z     vdW  Elec       q    Type
REMARK                         _______ _______ _______ _____ _____    ______ ____
ROOT
ATOM      1  C   UNL     1      57.391  36.269  83.456  0.00  0.00    +0.000 A 
ATOM      2  C   UNL     1      57.863  35.190  84.203  0.00  0.00    +0.000 A 
ATOM      3  C   UNL     1      57.177  37.505  84.065  0.00  0.00    +0.000 A 
ATOM      4  C   UNL     1      57.440  37.653  85.425  0.00  0.00    +0.000 A 
ATOM      5  C   UNL     1      58.119  35.359  85.560  0.00  0.00    +0.000 A 
ATOM      6  C   UNL     1      57.912  36.586  86.182  0.00  0.00    +0.000 A 
ENDROOT
BRANCH   4   7
ATOM      7  O   UNL     1      57.241  38.851  86.047  0.00  0.00    +0.000 OA
ATOM      8  H   UNL     1      58.014  39.416  85.871  0.00  0.00    +0.000 HD
ENDBRANCH   4   7
BRANCH   5   9
ATOM      9  O   UNL     1      58.581  34.289  86.272  0.00  0.00    +0.000 OA
ATOM     10  H   UNL     1      59.301  34.600  86.849  0.00  0.00    +0.000 HD
ENDBRANCH   5   9
BRANCH   1  11
ATOM     11  C   UNL     1      57.124  36.109  82.064  0.00  0.00    +0.000 C 
ATOM     12  C   UNL     1      56.898  35.974  80.892  0.00  0.00    +0.000 C 
BRANCH  12  13
ATOM     13  C   UNL     1      56.630  35.814  79.500  0.00  0.00    +0.000 A 
ATOM     14  C   UNL     1      55.736  34.833  79.073  0.00  0.00    +0.000 A 
ATOM     15  C   UNL     1      57.263  36.640  78.571  0.00  0.00    +0.000 A 
ATOM     16  C   UNL     1      55.473  34.676  77.715  0.00  0.00    +0.000 A 
ATOM     17  C   UNL     1      57.002  36.485  77.212  0.00  0.00    +0.000 A 
ATOM     18  C   UNL     1      56.109  35.504  76.795  0.00  0.00    +0.000 A 
BRANCH  18  19
ATOM     19  O   UNL     1      55.870  35.371  75.458  0.00  0.00    +0.000 OA
ATOM     20  H   UNL     1      55.726  34.428  75.265  0.00  0.00    +0.000 HD
ENDBRANCH  18  19
ENDBRANCH  12  13
ENDBRANCH   1  11
TORSDOF 5
ENDMDL
MODEL 5
REMARK VINA RESULT:      -5.6      4.243      5.185
REMARK  Name = 445154_Resveratrol.pdbqt.pdb
REMARK  5 active torsions:
REMARK  status: ('A' for Active; 'I' for Inactive)
REMARK    1  A    between atoms: C_1  and  C_11
REMARK    2  A    between atoms: C_4  and  O_7
REMARK    3  A    between atoms: C_5  and  O_9
REMARK    4  A    between atoms: C_12  and  C_13
REMARK    5  A    between atoms: C_18  and  O_19
REMARK                            x       y       z     vdW  Elec       q    Type
REMARK                         _______ _______ _______ _____ _____    ______ ____
ROOT
ATOM      1  C   UNL     1      58.074  35.402  78.198  0.00  0.00    +0.000 A 
ATOM      2  C   UNL     1      57.072  35.043  77.297  0.00  0.00    +0.000 A 
ATOM      3  C   UNL     1      57.765  35.616  79.541  0.00  0.00    +0.000 A 
ATOM      4  C   UNL     1      56.450  35.468  79.974  0.00  0.00    +0.000 A 
ATOM      5  C   UNL     1      55.764  34.902  77.750  0.00  0.00    +0.000 A 
ATOM      6  C   UNL     1      55.441  35.111  79.086  0.00  0.00    +0.000 A 
ENDROOT
BRANCH   4   7
ATOM      7  O   UNL     1      56.120  35.671  81.283  0.00  0.00    +0.000 OA
ATOM      8  H   UNL     1      56.564  36.484  81.585  0.00  0.00    +0.000 HD
ENDBRANCH   4   7
BRANCH   5   9
ATOM      9  O   UNL     1      54.800  34.550  76.849  0.00  0.00    +0.000 OA
ATOM     10  H   UNL     1      54.232  33.876  77.265  0.00  0.00    +0.000 HD
ENDBRANCH   5   9
BRANCH   1  11
ATOM     11  C   UNL     1      59.418  35.551  77.747  0.00  0.00    +0.000 C 
ATOM     12  C   UNL     1      60.551  35.676  77.366  0.00  0.00    +0.000 C 
BRANCH  12  13
ATOM     13  C   UNL     1      61.895  35.826  76.913  0.00  0.00    +0.000 A 
ATOM     14  C   UNL     1      62.284  36.999  76.267  0.00  0.00    +0.000 A 
ATOM     15  C   UNL     1      62.816  34.800  77.118  0.00  0.00    +0.000 A 
ATOM     16  C   UNL     1      63.595  37.148  75.825  0.00  0.00    +0.000 A 
ATOM     17  C   UNL     1      64.129  34.944  76.677  0.00  0.00    +0.000 A 
ATOM     18  C   UNL     1      64.508  36.118  76.033  0.00  0.00    +0.000 A 
BRANCH  18  19
ATOM     19  O   UNL     1      65.799  36.237  75.610  0.00  0.00    +0.000 OA
ATOM     20  H   UNL     1      65.968  35.546  74.946  0.00  0.00    +0.000 HD
ENDBRANCH  18  19
ENDBRANCH  12  13
ENDBRANCH   1  11
TORSDOF 5
ENDMDL
MODEL 6
REMARK VINA RESULT:      -5.5      2.183      2.903
REMARK  Name = 445154_Resveratrol.pdbqt.pdb
REMARK  5 active torsions:
REMARK  status: ('A' for Active; 'I' for Inactive)
REMARK    1  A    between atoms: C_1  and  C_11
REMARK    2  A    between atoms: C_4  and  O_7
REMARK    3  A    between atoms: C_5  and  O_9
REMARK    4  A    between atoms: C_12  and  C_13
REMARK    5  A    between atoms: C_18  and  O_19
REMARK                            x       y       z     vdW  Elec       q    Type
REMARK                         _______ _______ _______ _____ _____    ______ ____
ROOT
ATOM      1  C   UNL     1      58.375  35.355  79.598  0.00  0.00    +0.000 A 
ATOM      2  C   UNL     1      59.069  34.663  80.590  0.00  0.00    +0.000 A 
ATOM      3  C   UNL     1      57.206  36.048  79.912  0.00  0.00    +0.000 A 
ATOM      4  C   UNL     1      56.738  36.043  81.223  0.00  0.00    +0.000 A 
ATOM      5  C   UNL     1      58.584  34.671  81.894  0.00  0.00    +0.000 A 
ATOM      6  C   UNL     1      57.420  35.357  82.223  0.00  0.00    +0.000 A 
ENDROOT
BRANCH   4   7
ATOM      7  O   UNL     1      55.598  36.712  81.559  0.00  0.00    +0.000 OA
ATOM      8  H   UNL     1      55.832  37.639  81.743  0.00  0.00    +0.000 HD
ENDBRANCH   4   7
BRANCH   5   9
ATOM      9  O   UNL     1      59.280  33.986  82.849  0.00  0.00    +0.000 OA
ATOM     10  H   UNL     1      58.638  33.517  83.410  0.00  0.00    +0.000 HD
ENDBRANCH   5   9
BRANCH   1  11
ATOM     11  C   UNL     1      58.861  35.355  78.257  0.00  0.00    +0.000 C 
ATOM     12  C   UNL     1      59.269  35.354  77.127  0.00  0.00    +0.000 C 
BRANCH  12  13
ATOM     13  C   UNL     1      59.754  35.355  75.786  0.00  0.00    +0.000 A 
ATOM     14  C   UNL     1      60.848  34.561  75.443  0.00  0.00    +0.000 A 
ATOM     15  C   UNL     1      59.134  36.148  74.822  0.00  0.00    +0.000 A 
ATOM     16  C   UNL     1      61.323  34.559  74.135  0.00  0.00    +0.000 A 
ATOM     17  C   UNL     1      59.606  36.150  73.513  0.00  0.00    +0.000 A 
ATOM     18  C   UNL     1      60.698  35.355  73.179  0.00  0.00    +0.000 A 
BRANCH  18  19
ATOM     19  O   UNL     1      61.143  35.373  71.889  0.00  0.00    +0.000 OA
ATOM     20  H   UNL     1      61.572  34.520  71.703  0.00  0.00    +0.000 HD
ENDBRANCH  18  19
ENDBRANCH  12  13
ENDBRANCH   1  11
TORSDOF 5
ENDMDL
MODEL 7
REMARK VINA RESULT:      -5.3      8.351     10.495
REMARK  Name = 445154_Resveratrol.pdbqt.pdb
REMARK  5 active torsions:
REMARK  status: ('A' for Active; 'I' for Inactive)
REMARK    1  A    between atoms: C_1  and  C_11
REMARK    2  A    between atoms: C_4  and  O_7
REMARK    3  A    between atoms: C_5  and  O_9
REMARK    4  A    between atoms: C_12  and  C_13
REMARK    5  A    between atoms: C_18  and  O_19
REMARK                            x       y       z     vdW  Elec       q    Type
REMARK                         _______ _______ _______ _____ _____    ______ ____
ROOT
ATOM      1  C   UNL     1      60.753  30.479  70.460  0.00  0.00    +0.000 A 
ATOM      2  C   UNL     1      60.145  30.678  71.698  0.00  0.00    +0.000 A 
ATOM      3  C   UNL     1      62.136  30.318  70.375  0.00  0.00    +0.000 A 
ATOM      4  C   UNL     1      62.902  30.358  71.537  0.00  0.00    +0.000 A 
ATOM      5  C   UNL     1      60.928  30.714  72.847  0.00  0.00    +0.000 A 
ATOM      6  C   UNL     1      62.309  30.555  72.779  0.00  0.00    +0.000 A 
ENDROOT
BRANCH   4   7
ATOM      7  O   UNL     1      64.257  30.203  71.484  0.00  0.00    +0.000 OA
ATOM      8  H   UNL     1      64.644  31.029  71.144  0.00  0.00    +0.000 HD
ENDBRANCH   4   7
BRANCH   5   9
ATOM      9  O   UNL     1      60.311  30.910  74.049  0.00  0.00    +0.000 OA
ATOM     10  H   UNL     1      59.778  31.722  73.984  0.00  0.00    +0.000 HD
ENDBRANCH   5   9
BRANCH   1  11
ATOM     11  C   UNL     1      59.961  30.440  69.275  0.00  0.00    +0.000 C 
ATOM     12  C   UNL     1      59.294  30.408  68.276  0.00  0.00    +0.000 C 
BRANCH  12  13
ATOM     13  C   UNL     1      58.502  30.369  67.090  0.00  0.00    +0.000 A 
ATOM     14  C   UNL     1      58.064  31.558  66.508  0.00  0.00    +0.000 A 
ATOM     15  C   UNL     1      58.167  29.142  66.517  0.00  0.00    +0.000 A 
ATOM     16  C   UNL     1      57.292  31.523  65.351  0.00  0.00    +0.000 A 
ATOM     17  C   UNL     1      57.394  29.103  65.360  0.00  0.00    +0.000 A 
ATOM     18  C   UNL     1      56.962  30.294  64.786  0.00  0.00    +0.000 A 
BRANCH  18  19
ATOM     19  O   UNL     1      56.206  30.229  63.652  0.00  0.00    +0.000 OA
ATOM     20  H   UNL     1      55.988  31.137  63.379  0.00  0.00    +0.000 HD
ENDBRANCH  18  19
ENDBRANCH  12  13
ENDBRANCH   1  11
TORSDOF 5
ENDMDL
MODEL 8
REMARK VINA RESULT:      -5.2      4.285      5.741
REMARK  Name = 445154_Resveratrol.pdbqt.pdb
REMARK  5 active torsions:
REMARK  status: ('A' for Active; 'I' for Inactive)
REMARK    1  A    between atoms: C_1  and  C_11
REMARK    2  A    between atoms: C_4  and  O_7
REMARK    3  A    between atoms: C_5  and  O_9
REMARK    4  A    between atoms: C_12  and  C_13
REMARK    5  A    between atoms: C_18  and  O_19
REMARK                            x       y       z     vdW  Elec       q    Type
REMARK                         _______ _______ _______ _____ _____    ______ ____
ROOT
ATOM      1  C   UNL     1      57.550  36.390  74.877  0.00  0.00    +0.000 A 
ATOM      2  C   UNL     1      56.182  36.219  75.085  0.00  0.00    +0.000 A 
ATOM      3  C   UNL     1      58.209  37.493  75.419  0.00  0.00    +0.000 A 
ATOM      4  C   UNL     1      57.490  38.420  76.169  0.00  0.00    +0.000 A 
ATOM      5  C   UNL     1      55.482  37.157  75.836  0.00  0.00    +0.000 A 
ATOM      6  C   UNL     1      56.125  38.262  76.384  0.00  0.00    +0.000 A 
ENDROOT
BRANCH   4   7
ATOM      7  O   UNL     1      58.110  39.508  76.711  0.00  0.00    +0.000 OA
ATOM      8  H   UNL     1      58.528  39.234  77.547  0.00  0.00    +0.000 HD
ENDBRANCH   4   7
BRANCH   5   9
ATOM      9  O   UNL     1      54.143  36.969  76.026  0.00  0.00    +0.000 OA
ATOM     10  H   UNL     1      53.939  37.178  76.955  0.00  0.00    +0.000 HD
ENDBRANCH   5   9
BRANCH   1  11
ATOM     11  C   UNL     1      58.279  35.436  74.108  0.00  0.00    +0.000 C 
ATOM     12  C   UNL     1      58.894  34.632  73.460  0.00  0.00    +0.000 C 
BRANCH  12  13
ATOM     13  C   UNL     1      59.623  33.677  72.692  0.00  0.00    +0.000 A 
ATOM     14  C   UNL     1      58.942  32.668  72.010  0.00  0.00    +0.000 A 
ATOM     15  C   UNL     1      61.014  33.754  72.624  0.00  0.00    +0.000 A 
ATOM     16  C   UNL     1      59.652  31.736  71.259  0.00  0.00    +0.000 A 
ATOM     17  C   UNL     1      61.726  32.823  71.874  0.00  0.00    +0.000 A 
ATOM     18  C   UNL     1      61.040  31.820  71.198  0.00  0.00    +0.000 A 
BRANCH  18  19
ATOM     19  O   UNL     1      61.760  30.919  70.469  0.00  0.00    +0.000 OA
ATOM     20  H   UNL     1      62.345  30.434  71.077  0.00  0.00    +0.000 HD
ENDBRANCH  18  19
ENDBRANCH  12  13
ENDBRANCH   1  11
TORSDOF 5
ENDMDL
MODEL 9
REMARK VINA RESULT:      -5.1      3.334      7.464
REMARK  Name = 445154_Resveratrol.pdbqt.pdb
REMARK  5 active torsions:
REMARK  status: ('A' for Active; 'I' for Inactive)
REMARK    1  A    between atoms: C_1  and  C_11
REMARK    2  A    between atoms: C_4  and  O_7
REMARK    3  A    between atoms: C_5  and  O_9
REMARK    4  A    between atoms: C_12  and  C_13
REMARK    5  A    between atoms: C_18  and  O_19
REMARK                            x       y       z     vdW  Elec       q    Type
REMARK                         _______ _______ _______ _____ _____    ______ ____
ROOT
ATOM      1  C   UNL     1      60.851  35.044  75.696  0.00  0.00    +0.000 A 
ATOM      2  C   UNL     1      60.452  35.342  74.393  0.00  0.00    +0.000 A 
ATOM      3  C   UNL     1      62.117  34.513  75.937  0.00  0.00    +0.000 A 
ATOM      4  C   UNL     1      62.979  34.284  74.868  0.00  0.00    +0.000 A 
ATOM      5  C   UNL     1      61.328  35.105  73.339  0.00  0.00    +0.000 A 
ATOM      6  C   UNL     1      62.595  34.577  73.564  0.00  0.00    +0.000 A 
ENDROOT
BRANCH   4   7
ATOM      7  O   UNL     1      64.225  33.766  75.075  0.00  0.00    +0.000 OA
ATOM      8  H   UNL     1      64.724  33.833  74.241  0.00  0.00    +0.000 HD
ENDBRANCH   4   7
BRANCH   5   9
ATOM      9  O   UNL     1      60.915  35.405  72.072  0.00  0.00    +0.000 OA
ATOM     10  H   UNL     1      61.581  35.991  71.670  0.00  0.00    +0.000 HD
ENDBRANCH   5   9
BRANCH   1  11
ATOM     11  C   UNL     1      59.962  35.281  76.785  0.00  0.00    +0.000 C 
ATOM     12  C   UNL     1      59.212  35.481  77.703  0.00  0.00    +0.000 C 
BRANCH  12  13
ATOM     13  C   UNL     1      58.323  35.717  78.792  0.00  0.00    +0.000 A 
ATOM     14  C   UNL     1      57.029  36.175  78.546  0.00  0.00    +0.000 A 
ATOM     15  C   UNL     1      58.749  35.489  80.100  0.00  0.00    +0.000 A 
ATOM     16  C   UNL     1      56.159  36.406  79.607  0.00  0.00    +0.000 A 
ATOM     17  C   UNL     1      57.882  35.719  81.165  0.00  0.00    +0.000 A 
ATOM     18  C   UNL     1      56.593  36.176  80.910  0.00  0.00    +0.000 A 
BRANCH  18  19
ATOM     19  O   UNL     1      55.762  36.395  81.969  0.00  0.00    +0.000 OA
ATOM     20  H   UNL     1      55.460  37.319  81.936  0.00  0.00    +0.000 HD
ENDBRANCH  18  19
ENDBRANCH  12  13
ENDBRANCH   1  11
TORSDOF 5
ENDMDL
