MODEL 1
REMARK VINA RESULT:      -6.4      0.000      0.000
REMARK  Name = 448438_Violaxanthin.pdbqt.pdb
REMARK  16 active torsions:
REMARK  status: ('A' for Active; 'I' for Inactive)
REMARK    1  A    between atoms: C_1  and  C_5
REMARK    2  A    between atoms: C_2  and  C_27
REMARK    3  A    between atoms: C_3  and  C_5
REMARK    4  A    between atoms: C_3  and  C_7
REMARK    5  A    between atoms: C_6  and  C_10
REMARK    6  A    between atoms: C_8  and  C_10
REMARK    7  A    between atoms: C_8  and  C_12
REMARK    8  A    between atoms: C_11  and  C_14
REMARK    9  A    between atoms: C_19  and  O_23
REMARK   10  A    between atoms: C_25  and  C_27
REMARK   11  A    between atoms: C_25  and  C_29
REMARK   12  A    between atoms: C_28  and  C_32
REMARK   13  A    between atoms: C_30  and  C_32
REMARK   14  A    between atoms: C_30  and  C_34
REMARK   15  A    between atoms: C_33  and  C_36
REMARK   16  A    between atoms: C_41  and  O_45
REMARK                            x       y       z     vdW  Elec       q    Type
REMARK                         _______ _______ _______ _____ _____    ______ ____
ROOT
ATOM      1  C   UNL     1      56.858  36.389  81.782  0.00  0.00    +0.000 C 
ATOM      2  C   UNL     1      56.950  36.832  82.893  0.00  0.00    +0.000 C 
ENDROOT
BRANCH   2   3
ATOM      3  C   UNL     1      57.066  37.400  84.312  0.00  0.00    +0.000 C 
BRANCH   3   4
ATOM      4  C   UNL     1      57.165  37.878  85.513  0.00  0.00    +0.000 C 
ATOM      5  C   UNL     1      56.354  39.076  85.908  0.00  0.00    +0.000 C 
BRANCH   4   7
ATOM      6  C   UNL     1      58.868  36.832  87.200  0.00  0.00    +0.000 C 
ATOM      7  C   UNL     1      58.086  37.313  86.426  0.00  0.00    +0.000 C 
BRANCH   6   8
ATOM      8  C   UNL     1      59.866  36.218  88.189  0.00  0.00    +0.000 C 
BRANCH   8   9
ATOM      9  C   UNL     1      60.708  35.698  89.028  0.00  0.00    +0.000 C 
ATOM     10  C   UNL     1      60.448  35.789  90.500  0.00  0.00    +0.000 C 
BRANCH   9  12
ATOM     11  C   UNL     1      62.731  34.294  88.133  0.00  0.00    +0.000 C 
ATOM     12  C   UNL     1      61.805  34.940  88.548  0.00  0.00    +0.000 C 
BRANCH  11  14
ATOM     13  O   UNL     1      64.086  32.378  88.506  0.00  0.00    +0.000 OA
ATOM     14  C   UNL     1      63.836  33.502  87.616  0.00  0.00    +0.000 C 
ATOM     15  C   UNL     1      63.594  32.031  87.212  0.00  0.00    +0.000 C 
ATOM     16  C   UNL     1      65.097  34.224  87.034  0.00  0.00    +0.000 C 
ATOM     17  C   UNL     1      64.592  31.410  86.405  0.00  0.00    +0.000 C 
ATOM     18  C   UNL     1      65.908  33.209  86.347  0.00  0.00    +0.000 C 
ATOM     19  C   UNL     1      65.827  31.870  85.917  0.00  0.00    +0.000 C 
ATOM     20  C   UNL     1      62.211  31.374  87.243  0.00  0.00    +0.000 C 
ATOM     21  C   UNL     1      64.563  35.261  86.017  0.00  0.00    +0.000 C 
ATOM     22  C   UNL     1      65.825  34.873  88.231  0.00  0.00    +0.000 C 
BRANCH  19  23
ATOM     23  O   UNL     1      66.915  31.054  85.846  0.00  0.00    +0.000 OA
ATOM     24  H   UNL     1      67.421  31.027  86.677  0.00  0.00    +0.000 HD
ENDBRANCH  19  23
ENDBRANCH  11  14
ENDBRANCH   9  12
ENDBRANCH   8   9
ENDBRANCH   6   8
ENDBRANCH   4   7
ENDBRANCH   3   4
ENDBRANCH   2   3
BRANCH   1  25
ATOM     25  C   UNL     1      56.742  35.822  80.361  0.00  0.00    +0.000 C 
BRANCH  25  26
ATOM     26  C   UNL     1      56.644  35.343  79.161  0.00  0.00    +0.000 C 
ATOM     27  C   UNL     1      55.311  34.886  78.648  0.00  0.00    +0.000 C 
BRANCH  26  29
ATOM     28  C   UNL     1      58.757  35.221  77.627  0.00  0.00    +0.000 C 
ATOM     29  C   UNL     1      57.785  35.277  78.330  0.00  0.00    +0.000 C 
BRANCH  28  30
ATOM     30  C   UNL     1      60.003  35.153  76.733  0.00  0.00    +0.000 C 
BRANCH  30  31
ATOM     31  C   UNL     1      61.055  35.091  75.979  0.00  0.00    +0.000 C 
ATOM     32  C   UNL     1      62.311  35.796  76.390  0.00  0.00    +0.000 C 
BRANCH  31  34
ATOM     33  C   UNL     1      61.012  33.657  73.787  0.00  0.00    +0.000 C 
ATOM     34  C   UNL     1      61.030  34.318  74.792  0.00  0.00    +0.000 C 
BRANCH  33  36
ATOM     35  O   UNL     1      62.353  32.505  72.191  0.00  0.00    +0.000 OA
ATOM     36  C   UNL     1      60.991  32.853  72.574  0.00  0.00    +0.000 C 
ATOM     37  C   UNL     1      61.538  31.410  72.606  0.00  0.00    +0.000 C 
ATOM     38  C   UNL     1      60.020  33.248  71.405  0.00  0.00    +0.000 C 
ATOM     39  C   UNL     1      61.187  30.556  71.518  0.00  0.00    +0.000 C 
ATOM     40  C   UNL     1      59.992  32.120  70.471  0.00  0.00    +0.000 C 
ATOM     41  C   UNL     1      60.434  30.788  70.355  0.00  0.00    +0.000 C 
ATOM     42  C   UNL     1      62.047  30.725  73.877  0.00  0.00    +0.000 C 
ATOM     43  C   UNL     1      60.591  34.548  70.794  0.00  0.00    +0.000 C 
ATOM     44  C   UNL     1      58.634  33.458  72.067  0.00  0.00    +0.000 C 
BRANCH  41  45
ATOM     45  O   UNL     1      59.657  29.831  69.777  0.00  0.00    +0.000 OA
ATOM     46  H   UNL     1      58.893  30.208  69.304  0.00  0.00    +0.000 HD
ENDBRANCH  41  45
ENDBRANCH  33  36
ENDBRANCH  31  34
ENDBRANCH  30  31
ENDBRANCH  28  30
ENDBRANCH  26  29
ENDBRANCH  25  26
ENDBRANCH   1  25
TORSDOF 16
ENDMDL
MODEL 2
REMARK VINA RESULT:      -6.3      2.658      3.719
REMARK  Name = 448438_Violaxanthin.pdbqt.pdb
REMARK  16 active torsions:
REMARK  status: ('A' for Active; 'I' for Inactive)
REMARK    1  A    between atoms: C_1  and  C_5
REMARK    2  A    between atoms: C_2  and  C_27
REMARK    3  A    between atoms: C_3  and  C_5
REMARK    4  A    between atoms: C_3  and  C_7
REMARK    5  A    between atoms: C_6  and  C_10
REMARK    6  A    between atoms: C_8  and  C_10
REMARK    7  A    between atoms: C_8  and  C_12
REMARK    8  A    between atoms: C_11  and  C_14
REMARK    9  A    between atoms: C_19  and  O_23
REMARK   10  A    between atoms: C_25  and  C_27
REMARK   11  A    between atoms: C_25  and  C_29
REMARK   12  A    between atoms: C_28  and  C_32
REMARK   13  A    between atoms: C_30  and  C_32
REMARK   14  A    between atoms: C_30  and  C_34
REMARK   15  A    between atoms: C_33  and  C_36
REMARK   16  A    between atoms: C_41  and  O_45
REMARK                            x       y       z     vdW  Elec       q    Type
REMARK                         _______ _______ _______ _____ _____    ______ ____
ROOT
ATOM      1  C   UNL     1      57.591  34.963  81.816  0.00  0.00    +0.000 C 
ATOM      2  C   UNL     1      57.905  34.901  82.972  0.00  0.00    +0.000 C 
ENDROOT
BRANCH   2   3
ATOM      3  C   UNL     1      58.306  34.825  84.449  0.00  0.00    +0.000 C 
BRANCH   3   4
ATOM      4  C   UNL     1      58.645  34.759  85.698  0.00  0.00    +0.000 C 
ATOM      5  C   UNL     1      57.588  34.785  86.761  0.00  0.00    +0.000 C 
BRANCH   4   7
ATOM      6  C   UNL     1      61.174  34.708  86.366  0.00  0.00    +0.000 C 
ATOM      7  C   UNL     1      60.013  34.731  86.059  0.00  0.00    +0.000 C 
BRANCH   6   8
ATOM      8  C   UNL     1      62.657  34.680  86.757  0.00  0.00    +0.000 C 
BRANCH   8   9
ATOM      9  C   UNL     1      63.911  34.653  87.088  0.00  0.00    +0.000 C 
ATOM     10  C   UNL     1      64.323  34.074  88.406  0.00  0.00    +0.000 C 
BRANCH   9  12
ATOM     11  C   UNL     1      65.735  35.393  85.360  0.00  0.00    +0.000 C 
ATOM     12  C   UNL     1      64.895  35.058  86.152  0.00  0.00    +0.000 C 
BRANCH  11  14
ATOM     13  O   UNL     1      66.289  36.897  83.604  0.00  0.00    +0.000 OA
ATOM     14  C   UNL     1      66.764  35.780  84.407  0.00  0.00    +0.000 C 
ATOM     15  C   UNL     1      67.376  37.195  84.480  0.00  0.00    +0.000 C 
ATOM     16  C   UNL     1      67.570  34.671  83.649  0.00  0.00    +0.000 C 
ATOM     17  C   UNL     1      68.594  37.410  83.770  0.00  0.00    +0.000 C 
ATOM     18  C   UNL     1      68.702  35.328  82.981  0.00  0.00    +0.000 C 
ATOM     19  C   UNL     1      69.364  36.571  82.947  0.00  0.00    +0.000 C 
ATOM     20  C   UNL     1      67.016  38.204  85.574  0.00  0.00    +0.000 C 
ATOM     21  C   UNL     1      68.082  33.698  84.739  0.00  0.00    +0.000 C 
ATOM     22  C   UNL     1      66.586  34.006  82.663  0.00  0.00    +0.000 C 
BRANCH  19  23
ATOM     23  O   UNL     1      69.986  37.042  81.830  0.00  0.00    +0.000 OA
ATOM     24  H   UNL     1      70.902  36.722  81.747  0.00  0.00    +0.000 HD
ENDBRANCH  19  23
ENDBRANCH  11  14
ENDBRANCH   9  12
ENDBRANCH   8   9
ENDBRANCH   6   8
ENDBRANCH   4   7
ENDBRANCH   3   4
ENDBRANCH   2   3
BRANCH   1  25
ATOM     25  C   UNL     1      57.190  35.040  80.337  0.00  0.00    +0.000 C 
BRANCH  25  26
ATOM     26  C   UNL     1      56.851  35.105  79.088  0.00  0.00    +0.000 C 
ATOM     27  C   UNL     1      55.404  35.038  78.703  0.00  0.00    +0.000 C 
BRANCH  26  29
ATOM     28  C   UNL     1      58.687  35.399  77.249  0.00  0.00    +0.000 C 
ATOM     29  C   UNL     1      57.843  35.266  78.093  0.00  0.00    +0.000 C 
BRANCH  28  30
ATOM     30  C   UNL     1      59.769  35.563  76.174  0.00  0.00    +0.000 C 
BRANCH  30  31
ATOM     31  C   UNL     1      60.687  35.700  75.269  0.00  0.00    +0.000 C 
ATOM     32  C   UNL     1      61.676  36.820  75.372  0.00  0.00    +0.000 C 
BRANCH  31  34
ATOM     33  C   UNL     1      60.862  33.964  73.314  0.00  0.00    +0.000 C 
ATOM     34  C   UNL     1      60.781  34.764  74.210  0.00  0.00    +0.000 C 
BRANCH  33  36
ATOM     35  O   UNL     1      62.331  32.536  72.102  0.00  0.00    +0.000 OA
ATOM     36  C   UNL     1      60.955  32.992  72.235  0.00  0.00    +0.000 C 
ATOM     37  C   UNL     1      61.402  31.548  72.545  0.00  0.00    +0.000 C 
ATOM     38  C   UNL     1      60.176  33.253  70.896  0.00  0.00    +0.000 C 
ATOM     39  C   UNL     1      61.148  30.560  71.547  0.00  0.00    +0.000 C 
ATOM     40  C   UNL     1      60.204  32.003  70.134  0.00  0.00    +0.000 C 
ATOM     41  C   UNL     1      60.574  30.651  70.268  0.00  0.00    +0.000 C 
ATOM     42  C   UNL     1      61.692  31.036  73.957  0.00  0.00    +0.000 C 
ATOM     43  C   UNL     1      60.903  34.425  70.198  0.00  0.00    +0.000 C 
ATOM     44  C   UNL     1      58.729  33.615  71.318  0.00  0.00    +0.000 C 
BRANCH  41  45
ATOM     45  O   UNL     1      59.825  29.652  69.724  0.00  0.00    +0.000 OA
ATOM     46  H   UNL     1      58.963  29.970  69.399  0.00  0.00    +0.000 HD
ENDBRANCH  41  45
ENDBRANCH  33  36
ENDBRANCH  31  34
ENDBRANCH  30  31
ENDBRANCH  28  30
ENDBRANCH  26  29
ENDBRANCH  25  26
ENDBRANCH   1  25
TORSDOF 16
ENDMDL
MODEL 3
REMARK VINA RESULT:      -6.2      1.852     13.861
REMARK  Name = 448438_Violaxanthin.pdbqt.pdb
REMARK  16 active torsions:
REMARK  status: ('A' for Active; 'I' for Inactive)
REMARK    1  A    between atoms: C_1  and  C_5
REMARK    2  A    between atoms: C_2  and  C_27
REMARK    3  A    between atoms: C_3  and  C_5
REMARK    4  A    between atoms: C_3  and  C_7
REMARK    5  A    between atoms: C_6  and  C_10
REMARK    6  A    between atoms: C_8  and  C_10
REMARK    7  A    between atoms: C_8  and  C_12
REMARK    8  A    between atoms: C_11  and  C_14
REMARK    9  A    between atoms: C_19  and  O_23
REMARK   10  A    between atoms: C_25  and  C_27
REMARK   11  A    between atoms: C_25  and  C_29
REMARK   12  A    between atoms: C_28  and  C_32
REMARK   13  A    between atoms: C_30  and  C_32
REMARK   14  A    between atoms: C_30  and  C_34
REMARK   15  A    between atoms: C_33  and  C_36
REMARK   16  A    between atoms: C_41  and  O_45
REMARK                            x       y       z     vdW  Elec       q    Type
REMARK                         _______ _______ _______ _____ _____    ______ ____
ROOT
ATOM      1  C   UNL     1      57.045  36.626  82.806  0.00  0.00    +0.000 C 
ATOM      2  C   UNL     1      56.960  36.412  81.629  0.00  0.00    +0.000 C 
ENDROOT
BRANCH   2   3
ATOM      3  C   UNL     1      56.849  36.138  80.125  0.00  0.00    +0.000 C 
BRANCH   3   4
ATOM      4  C   UNL     1      56.754  35.907  78.853  0.00  0.00    +0.000 C 
ATOM      5  C   UNL     1      55.405  35.874  78.200  0.00  0.00    +0.000 C 
BRANCH   4   7
ATOM      6  C   UNL     1      58.900  35.377  77.455  0.00  0.00    +0.000 C 
ATOM      7  C   UNL     1      57.914  35.620  78.097  0.00  0.00    +0.000 C 
BRANCH   6   8
ATOM      8  C   UNL     1      60.159  35.068  76.634  0.00  0.00    +0.000 C 
BRANCH   8   9
ATOM      9  C   UNL     1      61.224  34.809  75.942  0.00  0.00    +0.000 C 
ATOM     10  C   UNL     1      62.570  35.211  76.463  0.00  0.00    +0.000 C 
BRANCH   9  12
ATOM     11  C   UNL     1      61.034  33.381  73.754  0.00  0.00    +0.000 C 
ATOM     12  C   UNL     1      61.125  34.039  74.756  0.00  0.00    +0.000 C 
BRANCH  11  14
ATOM     13  O   UNL     1      59.797  31.644  72.704  0.00  0.00    +0.000 OA
ATOM     14  C   UNL     1      60.911  32.567  72.554  0.00  0.00    +0.000 C 
ATOM     15  C   UNL     1      59.623  32.650  71.707  0.00  0.00    +0.000 C 
ATOM     16  C   UNL     1      62.201  31.997  71.873  0.00  0.00    +0.000 C 
ATOM     17  C   UNL     1      59.682  32.114  70.387  0.00  0.00    +0.000 C 
ATOM     18  C   UNL     1      61.808  31.464  70.561  0.00  0.00    +0.000 C 
ATOM     19  C   UNL     1      60.706  31.457  69.683  0.00  0.00    +0.000 C 
ATOM     20  C   UNL     1      58.482  33.624  72.017  0.00  0.00    +0.000 C 
ATOM     21  C   UNL     1      63.158  33.201  71.698  0.00  0.00    +0.000 C 
ATOM     22  C   UNL     1      62.760  30.916  72.823  0.00  0.00    +0.000 C 
BRANCH  19  23
ATOM     23  O   UNL     1      60.442  30.419  68.843  0.00  0.00    +0.000 OA
ATOM     24  H   UNL     1      59.914  30.685  68.069  0.00  0.00    +0.000 HD
ENDBRANCH  19  23
ENDBRANCH  11  14
ENDBRANCH   9  12
ENDBRANCH   8   9
ENDBRANCH   6   8
ENDBRANCH   4   7
ENDBRANCH   3   4
ENDBRANCH   2   3
BRANCH   1  25
ATOM     25  C   UNL     1      57.154  36.900  84.311  0.00  0.00    +0.000 C 
BRANCH  25  26
ATOM     26  C   UNL     1      57.248  37.131  85.583  0.00  0.00    +0.000 C 
ATOM     27  C   UNL     1      56.991  38.511  86.110  0.00  0.00    +0.000 C 
BRANCH  26  29
ATOM     28  C   UNL     1      57.836  35.188  87.231  0.00  0.00    +0.000 C 
ATOM     29  C   UNL     1      57.565  36.079  86.473  0.00  0.00    +0.000 C 
BRANCH  28  30
ATOM     30  C   UNL     1      58.186  34.055  88.203  0.00  0.00    +0.000 C 
BRANCH  30  31
ATOM     31  C   UNL     1      58.486  33.100  89.027  0.00  0.00    +0.000 C 
ATOM     32  C   UNL     1      57.565  32.778  90.165  0.00  0.00    +0.000 C 
BRANCH  31  34
ATOM     33  C   UNL     1      60.655  31.681  88.644  0.00  0.00    +0.000 C 
ATOM     34  C   UNL     1      59.658  32.330  88.822  0.00  0.00    +0.000 C 
BRANCH  33  36
ATOM     35  O   UNL     1      61.992  29.891  89.467  0.00  0.00    +0.000 OA
ATOM     36  C   UNL     1      61.863  30.900  88.425  0.00  0.00    +0.000 C 
ATOM     37  C   UNL     1      61.754  29.385  88.155  0.00  0.00    +0.000 C 
ATOM     38  C   UNL     1      63.186  31.632  88.000  0.00  0.00    +0.000 C 
ATOM     39  C   UNL     1      62.902  28.736  87.610  0.00  0.00    +0.000 C 
ATOM     40  C   UNL     1      64.127  30.598  87.564  0.00  0.00    +0.000 C 
ATOM     41  C   UNL     1      64.181  29.219  87.286  0.00  0.00    +0.000 C 
ATOM     42  C   UNL     1      60.423  28.641  88.026  0.00  0.00    +0.000 C 
ATOM     43  C   UNL     1      63.658  32.421  89.242  0.00  0.00    +0.000 C 
ATOM     44  C   UNL     1      62.790  32.557  86.820  0.00  0.00    +0.000 C 
BRANCH  41  45
ATOM     45  O   UNL     1      64.910  28.734  86.243  0.00  0.00    +0.000 OA
ATOM     46  H   UNL     1      65.859  28.938  86.326  0.00  0.00    +0.000 HD
ENDBRANCH  41  45
ENDBRANCH  33  36
ENDBRANCH  31  34
ENDBRANCH  30  31
ENDBRANCH  28  30
ENDBRANCH  26  29
ENDBRANCH  25  26
ENDBRANCH   1  25
TORSDOF 16
ENDMDL
MODEL 4
REMARK VINA RESULT:      -6.1     56.708     60.165
REMARK  Name = 448438_Violaxanthin.pdbqt.pdb
REMARK  16 active torsions:
REMARK  status: ('A' for Active; 'I' for Inactive)
REMARK    1  A    between atoms: C_1  and  C_5
REMARK    2  A    between atoms: C_2  and  C_27
REMARK    3  A    between atoms: C_3  and  C_5
REMARK    4  A    between atoms: C_3  and  C_7
REMARK    5  A    between atoms: C_6  and  C_10
REMARK    6  A    between atoms: C_8  and  C_10
REMARK    7  A    between atoms: C_8  and  C_12
REMARK    8  A    between atoms: C_11  and  C_14
REMARK    9  A    between atoms: C_19  and  O_23
REMARK   10  A    between atoms: C_25  and  C_27
REMARK   11  A    between atoms: C_25  and  C_29
REMARK   12  A    between atoms: C_28  and  C_32
REMARK   13  A    between atoms: C_30  and  C_32
REMARK   14  A    between atoms: C_30  and  C_34
REMARK   15  A    between atoms: C_33  and  C_36
REMARK   16  A    between atoms: C_41  and  O_45
REMARK                            x       y       z     vdW  Elec       q    Type
REMARK                         _______ _______ _______ _____ _____    ______ ____
ROOT
ATOM      1  C   UNL     1      13.517   8.571  98.807  0.00  0.00    +0.000 C 
ATOM      2  C   UNL     1      13.118   9.336  99.641  0.00  0.00    +0.000 C 
ENDROOT
BRANCH   2   3
ATOM      3  C   UNL     1      12.608  10.317 100.703  0.00  0.00    +0.000 C 
BRANCH   3   4
ATOM      4  C   UNL     1      12.180  11.146 101.603  0.00  0.00    +0.000 C 
ATOM      5  C   UNL     1      12.602  10.979 103.031  0.00  0.00    +0.000 C 
BRANCH   4   7
ATOM      6  C   UNL     1      10.483  13.025 100.947  0.00  0.00    +0.000 C 
ATOM      7  C   UNL     1      11.262  12.162 101.248  0.00  0.00    +0.000 C 
BRANCH   6   8
ATOM      8  C   UNL     1       9.489  14.129 100.565  0.00  0.00    +0.000 C 
BRANCH   8   9
ATOM      9  C   UNL     1       8.650  15.062 100.238  0.00  0.00    +0.000 C 
ATOM     10  C   UNL     1       8.927  16.484 100.620  0.00  0.00    +0.000 C 
BRANCH   9  12
ATOM     11  C   UNL     1       6.595  14.482  98.721  0.00  0.00    +0.000 C 
ATOM     12  C   UNL     1       7.538  14.753  99.415  0.00  0.00    +0.000 C 
BRANCH  11  14
ATOM     13  O   UNL     1       4.915  12.850  98.315  0.00  0.00    +0.000 OA
ATOM     14  C   UNL     1       5.456  14.131  97.886  0.00  0.00    +0.000 C 
ATOM     15  C   UNL     1       4.061  13.973  98.528  0.00  0.00    +0.000 C 
ATOM     16  C   UNL     1       5.529  14.373  96.340  0.00  0.00    +0.000 C 
ATOM     17  C   UNL     1       2.940  13.971  97.646  0.00  0.00    +0.000 C 
ATOM     18  C   UNL     1       4.173  14.193  95.802  0.00  0.00    +0.000 C 
ATOM     19  C   UNL     1       2.844  14.042  96.246  0.00  0.00    +0.000 C 
ATOM     20  C   UNL     1       3.787  14.258 100.007  0.00  0.00    +0.000 C 
ATOM     21  C   UNL     1       5.986  15.841  96.160  0.00  0.00    +0.000 C 
ATOM     22  C   UNL     1       6.543  13.353  95.781  0.00  0.00    +0.000 C 
BRANCH  19  23
ATOM     23  O   UNL     1       1.916  13.324  95.556  0.00  0.00    +0.000 OA
ATOM     24  H   UNL     1       1.173  13.871  95.244  0.00  0.00    +0.000 HD
ENDBRANCH  19  23
ENDBRANCH  11  14
ENDBRANCH   9  12
ENDBRANCH   8   9
ENDBRANCH   6   8
ENDBRANCH   4   7
ENDBRANCH   3   4
ENDBRANCH   2   3
BRANCH   1  25
ATOM     25  C   UNL     1      14.027   7.591  97.744  0.00  0.00    +0.000 C 
BRANCH  25  26
ATOM     26  C   UNL     1      14.458   6.762  96.845  0.00  0.00    +0.000 C 
ATOM     27  C   UNL     1      15.368   7.249  95.758  0.00  0.00    +0.000 C 
BRANCH  26  29
ATOM     28  C   UNL     1      13.776   4.241  96.959  0.00  0.00    +0.000 C 
ATOM     29  C   UNL     1      14.091   5.398  96.905  0.00  0.00    +0.000 C 
BRANCH  28  30
ATOM     30  C   UNL     1      13.369   2.763  97.032  0.00  0.00    +0.000 C 
BRANCH  30  31
ATOM     31  C   UNL     1      13.022   1.516  97.098  0.00  0.00    +0.000 C 
ATOM     32  C   UNL     1      12.314   1.001  98.314  0.00  0.00    +0.000 C 
BRANCH  31  34
ATOM     33  C   UNL     1      13.479  -0.074  95.066  0.00  0.00    +0.000 C 
ATOM     34  C   UNL     1      13.270   0.654  96.001  0.00  0.00    +0.000 C 
BRANCH  33  36
ATOM     35  O   UNL     1      14.809  -0.399  93.117  0.00  0.00    +0.000 OA
ATOM     36  C   UNL     1      13.734  -0.949  93.932  0.00  0.00    +0.000 C 
ATOM     37  C   UNL     1      15.114  -1.623  93.782  0.00  0.00    +0.000 C 
ATOM     38  C   UNL     1      12.520  -1.571  93.152  0.00  0.00    +0.000 C 
ATOM     39  C   UNL     1      15.208  -2.721  92.876  0.00  0.00    +0.000 C 
ATOM     40  C   UNL     1      13.060  -2.620  92.284  0.00  0.00    +0.000 C 
ATOM     41  C   UNL     1      14.257  -3.317  92.031  0.00  0.00    +0.000 C 
ATOM     42  C   UNL     1      16.238  -1.489  94.812  0.00  0.00    +0.000 C 
ATOM     43  C   UNL     1      11.860  -0.404  92.384  0.00  0.00    +0.000 C 
ATOM     44  C   UNL     1      11.591  -2.172  94.238  0.00  0.00    +0.000 C 
BRANCH  41  45
ATOM     45  O   UNL     1      14.255  -4.649  91.746  0.00  0.00    +0.000 OA
ATOM     46  H   UNL     1      13.657  -5.153  92.329  0.00  0.00    +0.000 HD
ENDBRANCH  41  45
ENDBRANCH  33  36
ENDBRANCH  31  34
ENDBRANCH  30  31
ENDBRANCH  28  30
ENDBRANCH  26  29
ENDBRANCH  25  26
ENDBRANCH   1  25
TORSDOF 16
ENDMDL
MODEL 5
REMARK VINA RESULT:      -6.0      5.734     15.695
REMARK  Name = 448438_Violaxanthin.pdbqt.pdb
REMARK  16 active torsions:
REMARK  status: ('A' for Active; 'I' for Inactive)
REMARK    1  A    between atoms: C_1  and  C_5
REMARK    2  A    between atoms: C_2  and  C_27
REMARK    3  A    between atoms: C_3  and  C_5
REMARK    4  A    between atoms: C_3  and  C_7
REMARK    5  A    between atoms: C_6  and  C_10
REMARK    6  A    between atoms: C_8  and  C_10
REMARK    7  A    between atoms: C_8  and  C_12
REMARK    8  A    between atoms: C_11  and  C_14
REMARK    9  A    between atoms: C_19  and  O_23
REMARK   10  A    between atoms: C_25  and  C_27
REMARK   11  A    between atoms: C_25  and  C_29
REMARK   12  A    between atoms: C_28  and  C_32
REMARK   13  A    between atoms: C_30  and  C_32
REMARK   14  A    between atoms: C_30  and  C_34
REMARK   15  A    between atoms: C_33  and  C_36
REMARK   16  A    between atoms: C_41  and  O_45
REMARK                            x       y       z     vdW  Elec       q    Type
REMARK                         _______ _______ _______ _____ _____    ______ ____
ROOT
ATOM      1  C   UNL     1      57.557  35.977  83.309  0.00  0.00    +0.000 C 
ATOM      2  C   UNL     1      57.357  35.838  82.134  0.00  0.00    +0.000 C 
ENDROOT
BRANCH   2   3
ATOM      3  C   UNL     1      57.098  35.661  80.634  0.00  0.00    +0.000 C 
BRANCH   3   4
ATOM      4  C   UNL     1      56.882  35.512  79.365  0.00  0.00    +0.000 C 
ATOM      5  C   UNL     1      55.477  35.381  78.858  0.00  0.00    +0.000 C 
BRANCH   4   7
ATOM      6  C   UNL     1      58.896  35.315  77.708  0.00  0.00    +0.000 C 
ATOM      7  C   UNL     1      57.971  35.406  78.469  0.00  0.00    +0.000 C 
BRANCH   6   8
ATOM      8  C   UNL     1      60.079  35.197  76.738  0.00  0.00    +0.000 C 
BRANCH   8   9
ATOM      9  C   UNL     1      61.076  35.097  75.915  0.00  0.00    +0.000 C 
ATOM     10  C   UNL     1      62.381  35.757  76.239  0.00  0.00    +0.000 C 
BRANCH   9  12
ATOM     11  C   UNL     1      60.881  33.562  73.802  0.00  0.00    +0.000 C 
ATOM     12  C   UNL     1      60.968  34.264  74.774  0.00  0.00    +0.000 C 
BRANCH  11  14
ATOM     13  O   UNL     1      62.123  32.301  72.215  0.00  0.00    +0.000 OA
ATOM     14  C   UNL     1      60.790  32.729  72.612  0.00  0.00    +0.000 C 
ATOM     15  C   UNL     1      61.261  31.260  72.674  0.00  0.00    +0.000 C 
ATOM     16  C   UNL     1      59.818  33.140  71.456  0.00  0.00    +0.000 C 
ATOM     17  C   UNL     1      60.843  30.403  71.614  0.00  0.00    +0.000 C 
ATOM     18  C   UNL     1      59.726  32.000  70.532  0.00  0.00    +0.000 C 
ATOM     19  C   UNL     1      60.093  30.642  70.450  0.00  0.00    +0.000 C 
ATOM     20  C   UNL     1      61.745  30.593  73.964  0.00  0.00    +0.000 C 
ATOM     21  C   UNL     1      58.446  33.399  72.125  0.00  0.00    +0.000 C 
ATOM     22  C   UNL     1      60.418  34.403  70.802  0.00  0.00    +0.000 C 
BRANCH  19  23
ATOM     23  O   UNL     1      60.390  30.031  69.271  0.00  0.00    +0.000 OA
ATOM     24  H   UNL     1      59.965  30.460  68.506  0.00  0.00    +0.000 HD
ENDBRANCH  19  23
ENDBRANCH  11  14
ENDBRANCH   9  12
ENDBRANCH   8   9
ENDBRANCH   6   8
ENDBRANCH   4   7
ENDBRANCH   3   4
ENDBRANCH   2   3
BRANCH   1  25
ATOM     25  C   UNL     1      57.815  36.154  84.810  0.00  0.00    +0.000 C 
BRANCH  25  26
ATOM     26  C   UNL     1      58.033  36.304  86.079  0.00  0.00    +0.000 C 
ATOM     27  C   UNL     1      58.693  37.553  86.580  0.00  0.00    +0.000 C 
BRANCH  26  29
ATOM     28  C   UNL     1      57.280  34.449  87.761  0.00  0.00    +0.000 C 
ATOM     29  C   UNL     1      57.626  35.302  86.990  0.00  0.00    +0.000 C 
BRANCH  28  30
ATOM     30  C   UNL     1      56.835  33.355  88.741  0.00  0.00    +0.000 C 
BRANCH  30  31
ATOM     31  C   UNL     1      56.460  32.428  89.566  0.00  0.00    +0.000 C 
ATOM     32  C   UNL     1      57.482  31.523  90.185  0.00  0.00    +0.000 C 
BRANCH  31  34
ATOM     33  C   UNL     1      53.934  32.195  90.219  0.00  0.00    +0.000 C 
ATOM     34  C   UNL     1      55.093  32.302  89.916  0.00  0.00    +0.000 C 
BRANCH  33  36
ATOM     35  O   UNL     1      51.745  31.698  89.423  0.00  0.00    +0.000 OA
ATOM     36  C   UNL     1      52.533  32.067  90.591  0.00  0.00    +0.000 C 
ATOM     37  C   UNL     1      51.825  30.704  90.442  0.00  0.00    +0.000 C 
ATOM     38  C   UNL     1      51.893  33.129  91.555  0.00  0.00    +0.000 C 
ATOM     39  C   UNL     1      50.587  30.534  91.130  0.00  0.00    +0.000 C 
ATOM     40  C   UNL     1      50.600  32.592  91.987  0.00  0.00    +0.000 C 
ATOM     41  C   UNL     1      49.834  31.413  91.927  0.00  0.00    +0.000 C 
ATOM     42  C   UNL     1      52.534  29.426  89.986  0.00  0.00    +0.000 C 
ATOM     43  C   UNL     1      51.783  34.437  90.738  0.00  0.00    +0.000 C 
ATOM     44  C   UNL     1      52.872  33.252  92.750  0.00  0.00    +0.000 C 
BRANCH  41  45
ATOM     45  O   UNL     1      49.093  30.993  92.989  0.00  0.00    +0.000 OA
ATOM     46  H   UNL     1      49.515  31.202  93.843  0.00  0.00    +0.000 HD
ENDBRANCH  41  45
ENDBRANCH  33  36
ENDBRANCH  31  34
ENDBRANCH  30  31
ENDBRANCH  28  30
ENDBRANCH  26  29
ENDBRANCH  25  26
ENDBRANCH   1  25
TORSDOF 16
ENDMDL
MODEL 6
REMARK VINA RESULT:      -6.0     11.295     18.112
REMARK  Name = 448438_Violaxanthin.pdbqt.pdb
REMARK  16 active torsions:
REMARK  status: ('A' for Active; 'I' for Inactive)
REMARK    1  A    between atoms: C_1  and  C_5
REMARK    2  A    between atoms: C_2  and  C_27
REMARK    3  A    between atoms: C_3  and  C_5
REMARK    4  A    between atoms: C_3  and  C_7
REMARK    5  A    between atoms: C_6  and  C_10
REMARK    6  A    between atoms: C_8  and  C_10
REMARK    7  A    between atoms: C_8  and  C_12
REMARK    8  A    between atoms: C_11  and  C_14
REMARK    9  A    between atoms: C_19  and  O_23
REMARK   10  A    between atoms: C_25  and  C_27
REMARK   11  A    between atoms: C_25  and  C_29
REMARK   12  A    between atoms: C_28  and  C_32
REMARK   13  A    between atoms: C_30  and  C_32
REMARK   14  A    between atoms: C_30  and  C_34
REMARK   15  A    between atoms: C_33  and  C_36
REMARK   16  A    between atoms: C_41  and  O_45
REMARK                            x       y       z     vdW  Elec       q    Type
REMARK                         _______ _______ _______ _____ _____    ______ ____
ROOT
ATOM      1  C   UNL     1      49.095  38.792  70.520  0.00  0.00    +0.000 C 
ATOM      2  C   UNL     1      47.959  38.815  70.905  0.00  0.00    +0.000 C 
ENDROOT
BRANCH   2   3
ATOM      3  C   UNL     1      46.507  38.846  71.397  0.00  0.00    +0.000 C 
BRANCH   3   4
ATOM      4  C   UNL     1      45.280  38.870  71.813  0.00  0.00    +0.000 C 
ATOM      5  C   UNL     1      44.354  39.950  71.342  0.00  0.00    +0.000 C 
BRANCH   4   7
ATOM      6  C   UNL     1      44.461  37.113  73.570  0.00  0.00    +0.000 C 
ATOM      7  C   UNL     1      44.837  37.920  72.763  0.00  0.00    +0.000 C 
BRANCH   6   8
ATOM      8  C   UNL     1      43.982  36.081  74.599  0.00  0.00    +0.000 C 
BRANCH   8   9
ATOM      9  C   UNL     1      43.574  35.211  75.470  0.00  0.00    +0.000 C 
ATOM     10  C   UNL     1      43.529  35.573  76.922  0.00  0.00    +0.000 C 
BRANCH   9  12
ATOM     11  C   UNL     1      42.614  32.909  74.670  0.00  0.00    +0.000 C 
ATOM     12  C   UNL     1      43.057  33.966  75.033  0.00  0.00    +0.000 C 
BRANCH  11  14
ATOM     13  O   UNL     1      41.591  30.898  75.418  0.00  0.00    +0.000 OA
ATOM     14  C   UNL     1      42.065  31.628  74.252  0.00  0.00    +0.000 C 
ATOM     15  C   UNL     1      40.574  31.318  74.509  0.00  0.00    +0.000 C 
ATOM     16  C   UNL     1      42.811  30.788  73.160  0.00  0.00    +0.000 C 
ATOM     17  C   UNL     1      40.009  30.223  73.792  0.00  0.00    +0.000 C 
ATOM     18  C   UNL     1      41.908  29.706  72.745  0.00  0.00    +0.000 C 
ATOM     19  C   UNL     1      40.567  29.300  72.891  0.00  0.00    +0.000 C 
ATOM     20  C   UNL     1      39.602  32.337  75.111  0.00  0.00    +0.000 C 
ATOM     21  C   UNL     1      43.066  31.756  71.980  0.00  0.00    +0.000 C 
ATOM     22  C   UNL     1      44.113  30.275  73.812  0.00  0.00    +0.000 C 
BRANCH  19  23
ATOM     23  O   UNL     1      40.190  27.991  72.885  0.00  0.00    +0.000 OA
ATOM     24  H   UNL     1      40.522  27.508  72.107  0.00  0.00    +0.000 HD
ENDBRANCH  19  23
ENDBRANCH  11  14
ENDBRANCH   9  12
ENDBRANCH   8   9
ENDBRANCH   6   8
ENDBRANCH   4   7
ENDBRANCH   3   4
ENDBRANCH   2   3
BRANCH   1  25
ATOM     25  C   UNL     1      50.547  38.762  70.028  0.00  0.00    +0.000 C 
BRANCH  25  26
ATOM     26  C   UNL     1      51.775  38.737  69.613  0.00  0.00    +0.000 C 
ATOM     27  C   UNL     1      52.092  38.175  68.259  0.00  0.00    +0.000 C 
BRANCH  26  29
ATOM     28  C   UNL     1      53.682  39.710  71.114  0.00  0.00    +0.000 C 
ATOM     29  C   UNL     1      52.807  39.262  70.423  0.00  0.00    +0.000 C 
BRANCH  28  30
ATOM     30  C   UNL     1      54.795  40.287  71.998  0.00  0.00    +0.000 C 
BRANCH  30  31
ATOM     31  C   UNL     1      55.736  40.779  72.742  0.00  0.00    +0.000 C 
ATOM     32  C   UNL     1      56.215  42.179  72.511  0.00  0.00    +0.000 C 
BRANCH  31  34
ATOM     33  C   UNL     1      56.728  39.355  74.704  0.00  0.00    +0.000 C 
ATOM     34  C   UNL     1      56.275  40.008  73.801  0.00  0.00    +0.000 C 
BRANCH  33  36
ATOM     35  O   UNL     1      57.363  39.379  76.999  0.00  0.00    +0.000 OA
ATOM     36  C   UNL     1      57.270  38.562  75.798  0.00  0.00    +0.000 C 
ATOM     37  C   UNL     1      56.415  38.315  77.058  0.00  0.00    +0.000 C 
ATOM     38  C   UNL     1      58.475  37.593  75.522  0.00  0.00    +0.000 C 
ATOM     39  C   UNL     1      56.832  37.268  77.934  0.00  0.00    +0.000 C 
ATOM     40  C   UNL     1      58.604  36.724  76.694  0.00  0.00    +0.000 C 
ATOM     41  C   UNL     1      57.935  36.399  77.890  0.00  0.00    +0.000 C 
ATOM     42  C   UNL     1      54.970  38.799  77.210  0.00  0.00    +0.000 C 
ATOM     43  C   UNL     1      59.705  38.497  75.278  0.00  0.00    +0.000 C 
ATOM     44  C   UNL     1      58.075  36.776  74.266  0.00  0.00    +0.000 C 
BRANCH  41  45
ATOM     45  O   UNL     1      57.882  35.118  78.347  0.00  0.00    +0.000 OA
ATOM     46  H   UNL     1      57.491  35.056  79.238  0.00  0.00    +0.000 HD
ENDBRANCH  41  45
ENDBRANCH  33  36
ENDBRANCH  31  34
ENDBRANCH  30  31
ENDBRANCH  28  30
ENDBRANCH  26  29
ENDBRANCH  25  26
ENDBRANCH   1  25
TORSDOF 16
ENDMDL
MODEL 7
REMARK VINA RESULT:      -5.8     10.065     15.729
REMARK  Name = 448438_Violaxanthin.pdbqt.pdb
REMARK  16 active torsions:
REMARK  status: ('A' for Active; 'I' for Inactive)
REMARK    1  A    between atoms: C_1  and  C_5
REMARK    2  A    between atoms: C_2  and  C_27
REMARK    3  A    between atoms: C_3  and  C_5
REMARK    4  A    between atoms: C_3  and  C_7
REMARK    5  A    between atoms: C_6  and  C_10
REMARK    6  A    between atoms: C_8  and  C_10
REMARK    7  A    between atoms: C_8  and  C_12
REMARK    8  A    between atoms: C_11  and  C_14
REMARK    9  A    between atoms: C_19  and  O_23
REMARK   10  A    between atoms: C_25  and  C_27
REMARK   11  A    between atoms: C_25  and  C_29
REMARK   12  A    between atoms: C_28  and  C_32
REMARK   13  A    between atoms: C_30  and  C_32
REMARK   14  A    between atoms: C_30  and  C_34
REMARK   15  A    between atoms: C_33  and  C_36
REMARK   16  A    between atoms: C_41  and  O_45
REMARK                            x       y       z     vdW  Elec       q    Type
REMARK                         _______ _______ _______ _____ _____    ______ ____
ROOT
ATOM      1  C   UNL     1      49.090  38.880  70.492  0.00  0.00    +0.000 C 
ATOM      2  C   UNL     1      47.985  38.871  70.960  0.00  0.00    +0.000 C 
ENDROOT
BRANCH   2   3
ATOM      3  C   UNL     1      46.575  38.859  71.561  0.00  0.00    +0.000 C 
BRANCH   3   4
ATOM      4  C   UNL     1      45.383  38.852  72.069  0.00  0.00    +0.000 C 
ATOM      5  C   UNL     1      44.224  38.380  71.244  0.00  0.00    +0.000 C 
BRANCH   4   7
ATOM      6  C   UNL     1      44.985  39.777  74.483  0.00  0.00    +0.000 C 
ATOM      7  C   UNL     1      45.168  39.353  73.374  0.00  0.00    +0.000 C 
BRANCH   6   8
ATOM      8  C   UNL     1      44.749  40.319  75.899  0.00  0.00    +0.000 C 
BRANCH   8   9
ATOM      9  C   UNL     1      44.549  40.773  77.097  0.00  0.00    +0.000 C 
ATOM     10  C   UNL     1      43.876  42.098  77.290  0.00  0.00    +0.000 C 
BRANCH   9  12
ATOM     11  C   UNL     1      45.104  39.275  79.173  0.00  0.00    +0.000 C 
ATOM     12  C   UNL     1      44.854  39.963  78.219  0.00  0.00    +0.000 C 
BRANCH  11  14
ATOM     13  O   UNL     1      46.542  37.607  80.067  0.00  0.00    +0.000 OA
ATOM     14  C   UNL     1      45.384  38.447  80.336  0.00  0.00    +0.000 C 
ATOM     15  C   UNL     1      46.731  38.600  81.073  0.00  0.00    +0.000 C 
ATOM     16  C   UNL     1      44.198  37.773  81.106  0.00  0.00    +0.000 C 
ATOM     17  C   UNL     1      46.821  38.033  82.379  0.00  0.00    +0.000 C 
ATOM     18  C   UNL     1      44.738  37.240  82.365  0.00  0.00    +0.000 C 
ATOM     19  C   UNL     1      45.908  37.292  83.147  0.00  0.00    +0.000 C 
ATOM     20  C   UNL     1      47.773  39.658  80.696  0.00  0.00    +0.000 C 
ATOM     21  C   UNL     1      43.181  38.903  81.394  0.00  0.00    +0.000 C 
ATOM     22  C   UNL     1      43.635  36.676  80.176  0.00  0.00    +0.000 C 
BRANCH  19  23
ATOM     23  O   UNL     1      46.312  36.256  83.934  0.00  0.00    +0.000 OA
ATOM     24  H   UNL     1      46.948  36.529  84.619  0.00  0.00    +0.000 HD
ENDBRANCH  19  23
ENDBRANCH  11  14
ENDBRANCH   9  12
ENDBRANCH   8   9
ENDBRANCH   6   8
ENDBRANCH   4   7
ENDBRANCH   3   4
ENDBRANCH   2   3
BRANCH   1  25
ATOM     25  C   UNL     1      50.502  38.891  69.892  0.00  0.00    +0.000 C 
BRANCH  25  26
ATOM     26  C   UNL     1      51.694  38.900  69.385  0.00  0.00    +0.000 C 
ATOM     27  C   UNL     1      51.894  38.549  67.941  0.00  0.00    +0.000 C 
BRANCH  26  29
ATOM     28  C   UNL     1      53.738  39.579  70.869  0.00  0.00    +0.000 C 
ATOM     29  C   UNL     1      52.801  39.266  70.186  0.00  0.00    +0.000 C 
BRANCH  28  30
ATOM     30  C   UNL     1      54.931  39.980  71.746  0.00  0.00    +0.000 C 
BRANCH  30  31
ATOM     31  C   UNL     1      55.942  40.317  72.484  0.00  0.00    +0.000 C 
ATOM     32  C   UNL     1      56.735  41.543  72.150  0.00  0.00    +0.000 C 
BRANCH  31  34
ATOM     33  C   UNL     1      56.541  38.898  74.604  0.00  0.00    +0.000 C 
ATOM     34  C   UNL     1      56.265  39.552  73.632  0.00  0.00    +0.000 C 
BRANCH  33  36
ATOM     35  O   UNL     1      57.754  37.006  75.390  0.00  0.00    +0.000 OA
ATOM     36  C   UNL     1      56.880  38.105  75.776  0.00  0.00    +0.000 C 
ATOM     37  C   UNL     1      58.352  37.996  76.224  0.00  0.00    +0.000 C 
ATOM     38  C   UNL     1      55.762  37.768  76.827  0.00  0.00    +0.000 C 
ATOM     39  C   UNL     1      58.598  37.514  77.544  0.00  0.00    +0.000 C 
ATOM     40  C   UNL     1      56.436  37.240  78.015  0.00  0.00    +0.000 C 
ATOM     41  C   UNL     1      57.726  37.068  78.552  0.00  0.00    +0.000 C 
ATOM     42  C   UNL     1      59.502  38.744  75.544  0.00  0.00    +0.000 C 
ATOM     43  C   UNL     1      54.821  36.752  76.140  0.00  0.00    +0.000 C 
ATOM     44  C   UNL     1      55.062  39.116  77.137  0.00  0.00    +0.000 C 
BRANCH  41  45
ATOM     45  O   UNL     1      57.974  37.257  79.877  0.00  0.00    +0.000 OA
ATOM     46  H   UNL     1      58.008  36.419  80.373  0.00  0.00    +0.000 HD
ENDBRANCH  41  45
ENDBRANCH  33  36
ENDBRANCH  31  34
ENDBRANCH  30  31
ENDBRANCH  28  30
ENDBRANCH  26  29
ENDBRANCH  25  26
ENDBRANCH   1  25
TORSDOF 16
ENDMDL
MODEL 8
REMARK VINA RESULT:      -5.7     36.819     40.521
REMARK  Name = 448438_Violaxanthin.pdbqt.pdb
REMARK  16 active torsions:
REMARK  status: ('A' for Active; 'I' for Inactive)
REMARK    1  A    between atoms: C_1  and  C_5
REMARK    2  A    between atoms: C_2  and  C_27
REMARK    3  A    between atoms: C_3  and  C_5
REMARK    4  A    between atoms: C_3  and  C_7
REMARK    5  A    between atoms: C_6  and  C_10
REMARK    6  A    between atoms: C_8  and  C_10
REMARK    7  A    between atoms: C_8  and  C_12
REMARK    8  A    between atoms: C_11  and  C_14
REMARK    9  A    between atoms: C_19  and  O_23
REMARK   10  A    between atoms: C_25  and  C_27
REMARK   11  A    between atoms: C_25  and  C_29
REMARK   12  A    between atoms: C_28  and  C_32
REMARK   13  A    between atoms: C_30  and  C_32
REMARK   14  A    between atoms: C_30  and  C_34
REMARK   15  A    between atoms: C_33  and  C_36
REMARK   16  A    between atoms: C_41  and  O_45
REMARK                            x       y       z     vdW  Elec       q    Type
REMARK                         _______ _______ _______ _____ _____    ______ ____
ROOT
ATOM      1  C   UNL     1      29.936  17.438  94.412  0.00  0.00    +0.000 C 
ATOM      2  C   UNL     1      29.070  17.833  95.142  0.00  0.00    +0.000 C 
ENDROOT
BRANCH   2   3
ATOM      3  C   UNL     1      27.962  18.334  96.076  0.00  0.00    +0.000 C 
BRANCH   3   4
ATOM      4  C   UNL     1      27.024  18.758  96.862  0.00  0.00    +0.000 C 
ATOM      5  C   UNL     1      27.330  19.042  98.302  0.00  0.00    +0.000 C 
BRANCH   4   7
ATOM      6  C   UNL     1      24.577  18.997  95.970  0.00  0.00    +0.000 C 
ATOM      7  C   UNL     1      25.701  18.887  96.380  0.00  0.00    +0.000 C 
BRANCH   6   8
ATOM      8  C   UNL     1      23.141  19.139  95.449  0.00  0.00    +0.000 C 
BRANCH   8   9
ATOM      9  C   UNL     1      21.928  19.257  95.005  0.00  0.00    +0.000 C 
ATOM     10  C   UNL     1      20.940  20.102  95.748  0.00  0.00    +0.000 C 
BRANCH   9  12
ATOM     11  C   UNL     1      21.271  18.206  92.697  0.00  0.00    +0.000 C 
ATOM     12  C   UNL     1      21.577  18.689  93.755  0.00  0.00    +0.000 C 
BRANCH  11  14
ATOM     13  O   UNL     1      19.946  16.523  91.667  0.00  0.00    +0.000 OA
ATOM     14  C   UNL     1      20.878  17.614  91.427  0.00  0.00    +0.000 C 
ATOM     15  C   UNL     1      19.397  17.655  90.994  0.00  0.00    +0.000 C 
ATOM     16  C   UNL     1      21.960  17.376  90.320  0.00  0.00    +0.000 C 
ATOM     17  C   UNL     1      19.117  17.382  89.622  0.00  0.00    +0.000 C 
ATOM     18  C   UNL     1      21.251  17.037  89.078  0.00  0.00    +0.000 C 
ATOM     19  C   UNL     1      19.946  17.025  88.546  0.00  0.00    +0.000 C 
ATOM     20  C   UNL     1      18.312  18.375  91.800  0.00  0.00    +0.000 C 
ATOM     21  C   UNL     1      22.709  18.721  90.160  0.00  0.00    +0.000 C 
ATOM     22  C   UNL     1      22.869  16.237  90.829  0.00  0.00    +0.000 C 
BRANCH  19  23
ATOM     23  O   UNL     1      19.546  16.129  87.603  0.00  0.00    +0.000 OA
ATOM     24  H   UNL     1      18.582  15.991  87.600  0.00  0.00    +0.000 HD
ENDBRANCH  19  23
ENDBRANCH  11  14
ENDBRANCH   9  12
ENDBRANCH   8   9
ENDBRANCH   6   8
ENDBRANCH   4   7
ENDBRANCH   3   4
ENDBRANCH   2   3
BRANCH   1  25
ATOM     25  C   UNL     1      31.044  16.936  93.478  0.00  0.00    +0.000 C 
BRANCH  25  26
ATOM     26  C   UNL     1      31.981  16.511  92.689  0.00  0.00    +0.000 C 
ATOM     27  C   UNL     1      33.127  15.723  93.249  0.00  0.00    +0.000 C 
BRANCH  26  29
ATOM     28  C   UNL     1      31.849  16.985  90.121  0.00  0.00    +0.000 C 
ATOM     29  C   UNL     1      31.907  16.768  91.301  0.00  0.00    +0.000 C 
BRANCH  28  30
ATOM     30  C   UNL     1      31.780  17.260  88.613  0.00  0.00    +0.000 C 
BRANCH  30  31
ATOM     31  C   UNL     1      31.721  17.489  87.338  0.00  0.00    +0.000 C 
ATOM     32  C   UNL     1      32.965  17.413  86.508  0.00  0.00    +0.000 C 
BRANCH  31  34
ATOM     33  C   UNL     1      29.410  17.992  86.212  0.00  0.00    +0.000 C 
ATOM     34  C   UNL     1      30.472  17.761  86.726  0.00  0.00    +0.000 C 
BRANCH  33  36
ATOM     35  O   UNL     1      27.338  17.049  85.511  0.00  0.00    +0.000 OA
ATOM     36  C   UNL     1      28.122  18.273  85.595  0.00  0.00    +0.000 C 
ATOM     37  C   UNL     1      26.825  18.041  86.397  0.00  0.00    +0.000 C 
ATOM     38  C   UNL     1      28.058  19.225  84.347  0.00  0.00    +0.000 C 
ATOM     39  C   UNL     1      25.633  18.646  85.897  0.00  0.00    +0.000 C 
ATOM     40  C   UNL     1      26.648  19.562  84.136  0.00  0.00    +0.000 C 
ATOM     41  C   UNL     1      25.389  19.420  84.750  0.00  0.00    +0.000 C 
ATOM     42  C   UNL     1      26.802  17.593  87.860  0.00  0.00    +0.000 C 
ATOM     43  C   UNL     1      28.694  18.442  83.177  0.00  0.00    +0.000 C 
ATOM     44  C   UNL     1      28.877  20.482  84.739  0.00  0.00    +0.000 C 
BRANCH  41  45
ATOM     45  O   UNL     1      24.468  20.422  84.719  0.00  0.00    +0.000 OA
ATOM     46  H   UNL     1      24.339  20.836  85.592  0.00  0.00    +0.000 HD
ENDBRANCH  41  45
ENDBRANCH  33  36
ENDBRANCH  31  34
ENDBRANCH  30  31
ENDBRANCH  28  30
ENDBRANCH  26  29
ENDBRANCH  25  26
ENDBRANCH   1  25
TORSDOF 16
ENDMDL
MODEL 9
REMARK VINA RESULT:      -5.6     10.113     16.220
REMARK  Name = 448438_Violaxanthin.pdbqt.pdb
REMARK  16 active torsions:
REMARK  status: ('A' for Active; 'I' for Inactive)
REMARK    1  A    between atoms: C_1  and  C_5
REMARK    2  A    between atoms: C_2  and  C_27
REMARK    3  A    between atoms: C_3  and  C_5
REMARK    4  A    between atoms: C_3  and  C_7
REMARK    5  A    between atoms: C_6  and  C_10
REMARK    6  A    between atoms: C_8  and  C_10
REMARK    7  A    between atoms: C_8  and  C_12
REMARK    8  A    between atoms: C_11  and  C_14
REMARK    9  A    between atoms: C_19  and  O_23
REMARK   10  A    between atoms: C_25  and  C_27
REMARK   11  A    between atoms: C_25  and  C_29
REMARK   12  A    between atoms: C_28  and  C_32
REMARK   13  A    between atoms: C_30  and  C_32
REMARK   14  A    between atoms: C_30  and  C_34
REMARK   15  A    between atoms: C_33  and  C_36
REMARK   16  A    between atoms: C_41  and  O_45
REMARK                            x       y       z     vdW  Elec       q    Type
REMARK                         _______ _______ _______ _____ _____    ______ ____
ROOT
ATOM      1  C   UNL     1      50.248  38.510  70.301  0.00  0.00    +0.000 C 
ATOM      2  C   UNL     1      49.121  38.739  70.644  0.00  0.00    +0.000 C 
ENDROOT
BRANCH   2   3
ATOM      3  C   UNL     1      47.682  39.031  71.086  0.00  0.00    +0.000 C 
BRANCH   3   4
ATOM      4  C   UNL     1      46.467  39.281  71.459  0.00  0.00    +0.000 C 
ATOM      5  C   UNL     1      45.708  40.407  70.823  0.00  0.00    +0.000 C 
BRANCH   4   7
ATOM      6  C   UNL     1      45.386  37.905  73.403  0.00  0.00    +0.000 C 
ATOM      7  C   UNL     1      45.882  38.537  72.510  0.00  0.00    +0.000 C 
BRANCH   6   8
ATOM      8  C   UNL     1      44.755  37.097  74.544  0.00  0.00    +0.000 C 
BRANCH   8   9
ATOM      9  C   UNL     1      44.224  36.413  75.510  0.00  0.00    +0.000 C 
ATOM     10  C   UNL     1      43.847  34.980  75.291  0.00  0.00    +0.000 C 
BRANCH   9  12
ATOM     11  C   UNL     1      44.026  37.464  77.901  0.00  0.00    +0.000 C 
ATOM     12  C   UNL     1      44.115  36.986  76.802  0.00  0.00    +0.000 C 
BRANCH  11  14
ATOM     13  O   UNL     1      44.631  37.160  80.180  0.00  0.00    +0.000 OA
ATOM     14  C   UNL     1      43.927  38.021  79.242  0.00  0.00    +0.000 C 
ATOM     15  C   UNL     1      45.210  38.449  79.985  0.00  0.00    +0.000 C 
ATOM     16  C   UNL     1      42.563  38.615  79.731  0.00  0.00    +0.000 C 
ATOM     17  C   UNL     1      45.046  39.290  81.126  0.00  0.00    +0.000 C 
ATOM     18  C   UNL     1      42.822  39.340  80.983  0.00  0.00    +0.000 C 
ATOM     19  C   UNL     1      43.902  39.795  81.765  0.00  0.00    +0.000 C 
ATOM     20  C   UNL     1      46.601  38.402  79.345  0.00  0.00    +0.000 C 
ATOM     21  C   UNL     1      42.107  39.599  78.626  0.00  0.00    +0.000 C 
ATOM     22  C   UNL     1      41.600  37.422  79.910  0.00  0.00    +0.000 C 
BRANCH  19  23
ATOM     23  O   UNL     1      43.832  39.906  83.120  0.00  0.00    +0.000 OA
ATOM     24  H   UNL     1      43.764  40.831  83.419  0.00  0.00    +0.000 HD
ENDBRANCH  19  23
ENDBRANCH  11  14
ENDBRANCH   9  12
ENDBRANCH   8   9
ENDBRANCH   6   8
ENDBRANCH   4   7
ENDBRANCH   3   4
ENDBRANCH   2   3
BRANCH   1  25
ATOM     25  C   UNL     1      51.687  38.218  69.861  0.00  0.00    +0.000 C 
BRANCH  25  26
ATOM     26  C   UNL     1      52.904  37.970  69.489  0.00  0.00    +0.000 C 
ATOM     27  C   UNL     1      53.164  37.365  68.142  0.00  0.00    +0.000 C 
BRANCH  26  29
ATOM     28  C   UNL     1      54.900  38.573  71.067  0.00  0.00    +0.000 C 
ATOM     29  C   UNL     1      53.985  38.295  70.341  0.00  0.00    +0.000 C 
BRANCH  28  30
ATOM     30  C   UNL     1      56.065  38.931  71.999  0.00  0.00    +0.000 C 
BRANCH  30  31
ATOM     31  C   UNL     1      57.052  39.229  72.785  0.00  0.00    +0.000 C 
ATOM     32  C   UNL     1      57.801  40.511  72.588  0.00  0.00    +0.000 C 
BRANCH  31  34
ATOM     33  C   UNL     1      57.680  37.637  74.768  0.00  0.00    +0.000 C 
ATOM     34  C   UNL     1      57.389  38.366  73.856  0.00  0.00    +0.000 C 
BRANCH  33  36
ATOM     35  O   UNL     1      58.770  35.607  75.371  0.00  0.00    +0.000 OA
ATOM     36  C   UNL     1      58.034  36.759  75.874  0.00  0.00    +0.000 C 
ATOM     37  C   UNL     1      59.521  36.498  76.194  0.00  0.00    +0.000 C 
ATOM     38  C   UNL     1      56.975  36.471  76.997  0.00  0.00    +0.000 C 
ATOM     39  C   UNL     1      59.822  35.931  77.468  0.00  0.00    +0.000 C 
ATOM     40  C   UNL     1      57.687  35.827  78.103  0.00  0.00    +0.000 C 
ATOM     41  C   UNL     1      58.994  35.515  78.524  0.00  0.00    +0.000 C 
ATOM     42  C   UNL     1      60.678  37.174  75.455  0.00  0.00    +0.000 C 
ATOM     43  C   UNL     1      55.893  35.578  76.348  0.00  0.00    +0.000 C 
ATOM     44  C   UNL     1      56.428  37.858  77.421  0.00  0.00    +0.000 C 
BRANCH  41  45
ATOM     45  O   UNL     1      59.361  35.615  79.832  0.00  0.00    +0.000 OA
ATOM     46  H   UNL     1      59.616  36.523  80.078  0.00  0.00    +0.000 HD
ENDBRANCH  41  45
ENDBRANCH  33  36
ENDBRANCH  31  34
ENDBRANCH  30  31
ENDBRANCH  28  30
ENDBRANCH  26  29
ENDBRANCH  25  26
ENDBRANCH   1  25
TORSDOF 16
ENDMDL
