REMARK  Name = 490561_Nocardiopsis.pdbqt.pdb
REMARK  3 active torsions:
REMARK  status: ('A' for Active; 'I' for Inactive)
REMARK    1  A    between atoms: C_7  and  O_32
REMARK    2  A    between atoms: C_7  and  C_35
REMARK    3  A    between atoms: C_35  and  O_36
REMARK                            x       y       z     vdW  Elec       q    Type
REMARK                         _______ _______ _______ _____ _____    ______ ____
ROOT
ATOM      1  O   UNL     1       1.713  -1.219  -1.425  0.00  0.00    +0.000 OA
ATOM      2  O   UNL     1      -5.490   0.235   0.228  0.00  0.00    +0.000 OA
ATOM      3  N   UNL     1       1.186   0.869  -0.449  0.00  0.00    +0.000 N 
ATOM      4  N   UNL     1      -0.295  -1.740  -0.358  0.00  0.00    +0.000 N 
ATOM      5  N   UNL     1      -4.562   2.364   0.215  0.00  0.00    +0.000 N 
ATOM      6  C   UNL     1       2.275  -0.112  -0.636  0.00  0.00    +0.000 C 
ATOM      7  C   UNL     1       2.739  -0.801   0.719  0.00  0.00    +0.000 C 
ATOM      8  C   UNL     1       1.055  -2.021  -0.476  0.00  0.00    +0.000 C 
ATOM      9  C   UNL     1       1.828  -1.942   0.708  0.00  0.00    +0.000 C 
ATOM     10  C   UNL     1      -0.174   0.700  -0.383  0.00  0.00    +0.000 A 
ATOM     11  C   UNL     1      -0.873  -0.507  -0.356  0.00  0.00    +0.000 A 
ATOM     12  C   UNL     1      -0.994   1.823  -0.241  0.00  0.00    +0.000 A 
ATOM     13  C   UNL     1      -2.258  -0.398  -0.189  0.00  0.00    +0.000 A 
ATOM     14  C   UNL     1       3.442   0.461  -1.506  0.00  0.00    +0.000 C 
ATOM     15  C   UNL     1       1.262   2.270  -0.248  0.00  0.00    +0.000 A 
ATOM     16  C   UNL     1      -1.422  -2.547  -0.116  0.00  0.00    +0.000 A 
ATOM     17  C   UNL     1      -0.052   2.864  -0.152  0.00  0.00    +0.000 A 
ATOM     18  C   UNL     1      -2.381   1.958  -0.096  0.00  0.00    +0.000 A 
ATOM     19  C   UNL     1      -3.100   0.726  -0.064  0.00  0.00    +0.000 A 
ATOM     20  C   UNL     1      -2.628  -1.753  -0.037  0.00  0.00    +0.000 A 
ATOM     21  C   UNL     1      -3.393   3.028   0.096  0.00  0.00    +0.000 C 
ATOM     22  C   UNL     1       2.405   3.079  -0.132  0.00  0.00    +0.000 A 
ATOM     23  C   UNL     1      -4.513   0.964   0.136  0.00  0.00    +0.000 C 
ATOM     24  C   UNL     1      -1.468  -3.942   0.027  0.00  0.00    +0.000 A 
ATOM     25  C   UNL     1      -0.148   4.257   0.040  0.00  0.00    +0.000 A 
ATOM     26  C   UNL     1      -3.844  -2.425   0.198  0.00  0.00    +0.000 A 
ATOM     27  C   UNL     1       2.258   4.453   0.056  0.00  0.00    +0.000 A 
ATOM     28  C   UNL     1       1.004   5.037   0.135  0.00  0.00    +0.000 A 
ATOM     29  C   UNL     1      -2.701  -4.554   0.251  0.00  0.00    +0.000 A 
ATOM     30  C   UNL     1      -3.870  -3.812   0.335  0.00  0.00    +0.000 A 
ATOM     31  H   UNL     1      -5.443   2.835   0.357  0.00  0.00    +0.000 HD
ENDROOT
BRANCH   7  32
ATOM     32  O   UNL     1       2.499  -0.026   1.903  0.00  0.00    +0.000 OA
ATOM     33  H   UNL     1       3.375   0.223   2.271  0.00  0.00    +0.000 HD
ENDBRANCH   7  32
BRANCH   7  35
ATOM     34  O   UNL     1       5.023  -0.796   1.458  0.00  0.00    +0.000 OA
ATOM     35  C   UNL     1       4.199  -1.246   0.659  0.00  0.00    +0.000 C 
BRANCH  35  36
ATOM     36  O   UNL     1       4.401  -2.189  -0.310  0.00  0.00    +0.000 OA
ATOM     37  C   UNL     1       5.678  -2.759  -0.408  0.00  0.00    +0.000 C 
ENDBRANCH  35  36
ENDBRANCH   7  35
TORSDOF 3
