MODEL 1
REMARK VINA RESULT:      -6.6      0.000      0.000
REMARK  Name = 490561_Nocardiopsis.pdbqt.pdb
REMARK  3 active torsions:
REMARK  status: ('A' for Active; 'I' for Inactive)
REMARK    1  A    between atoms: C_7  and  O_32
REMARK    2  A    between atoms: C_7  and  C_35
REMARK    3  A    between atoms: C_35  and  O_36
REMARK                            x       y       z     vdW  Elec       q    Type
REMARK                         _______ _______ _______ _____ _____    ______ ____
ROOT
ATOM      1  O   UNL     1      44.775  35.550  82.138  0.00  0.00    +0.000 OA
ATOM      2  O   UNL     1      45.913  40.383  76.475  0.00  0.00    +0.000 OA
ATOM      3  N   UNL     1      45.755  37.645  82.632  0.00  0.00    +0.000 N 
ATOM      4  N   UNL     1      44.012  36.815  80.333  0.00  0.00    +0.000 N 
ATOM      5  N   UNL     1      47.340  41.214  78.108  0.00  0.00    +0.000 N 
ATOM      6  C   UNL     1      44.981  36.530  83.216  0.00  0.00    +0.000 C 
ATOM      7  C   UNL     1      43.508  36.945  83.646  0.00  0.00    +0.000 C 
ATOM      8  C   UNL     1      43.666  36.044  81.429  0.00  0.00    +0.000 C 
ATOM      9  C   UNL     1      42.822  36.648  82.392  0.00  0.00    +0.000 C 
ATOM     10  C   UNL     1      45.805  38.128  81.348  0.00  0.00    +0.000 A 
ATOM     11  C   UNL     1      45.011  37.739  80.269  0.00  0.00    +0.000 A 
ATOM     12  C   UNL     1      46.670  39.185  81.052  0.00  0.00    +0.000 A 
ATOM     13  C   UNL     1      45.203  38.462  79.087  0.00  0.00    +0.000 A 
ATOM     14  C   UNL     1      45.788  35.766  84.317  0.00  0.00    +0.000 C 
ATOM     15  C   UNL     1      46.641  38.553  83.263  0.00  0.00    +0.000 A 
ATOM     16  C   UNL     1      43.440  36.975  79.057  0.00  0.00    +0.000 A 
ATOM     17  C   UNL     1      47.226  39.471  82.312  0.00  0.00    +0.000 A 
ATOM     18  C   UNL     1      46.896  39.908  79.873  0.00  0.00    +0.000 A 
ATOM     19  C   UNL     1      46.084  39.516  78.768  0.00  0.00    +0.000 A 
ATOM     20  C   UNL     1      44.166  37.951  78.276  0.00  0.00    +0.000 A 
ATOM     21  C   UNL     1      47.720  41.047  79.393  0.00  0.00    +0.000 C 
ATOM     22  C   UNL     1      46.977  38.648  84.624  0.00  0.00    +0.000 A 
ATOM     23  C   UNL     1      46.354  40.347  77.615  0.00  0.00    +0.000 C 
ATOM     24  C   UNL     1      42.326  36.309  78.523  0.00  0.00    +0.000 A 
ATOM     25  C   UNL     1      48.140  40.434  82.783  0.00  0.00    +0.000 A 
ATOM     26  C   UNL     1      43.711  38.217  76.969  0.00  0.00    +0.000 A 
ATOM     27  C   UNL     1      47.888  39.618  85.040  0.00  0.00    +0.000 A 
ATOM     28  C   UNL     1      48.467  40.495  84.137  0.00  0.00    +0.000 A 
ATOM     29  C   UNL     1      41.926  36.607  77.221  0.00  0.00    +0.000 A 
ATOM     30  C   UNL     1      42.605  37.543  76.454  0.00  0.00    +0.000 A 
ATOM     31  H   UNL     1      47.735  41.927  77.513  0.00  0.00    +0.000 HD
ENDROOT
BRANCH   7  32
ATOM     32  O   UNL     1      43.338  38.337  83.950  0.00  0.00    +0.000 OA
ATOM     33  H   UNL     1      43.648  38.846  83.169  0.00  0.00    +0.000 HD
ENDBRANCH   7  32
BRANCH   7  35
ATOM     34  O   UNL     1      42.755  34.882  84.616  0.00  0.00    +0.000 OA
ATOM     35  C   UNL     1      42.986  36.081  84.792  0.00  0.00    +0.000 C 
BRANCH  35  36
ATOM     36  O   UNL     1      42.885  36.791  85.956  0.00  0.00    +0.000 OA
ATOM     37  C   UNL     1      41.624  36.868  86.564  0.00  0.00    +0.000 C 
ENDBRANCH  35  36
ENDBRANCH   7  35
TORSDOF 3
ENDMDL
MODEL 2
REMARK VINA RESULT:      -6.5     12.942     15.612
REMARK  Name = 490561_Nocardiopsis.pdbqt.pdb
REMARK  3 active torsions:
REMARK  status: ('A' for Active; 'I' for Inactive)
REMARK    1  A    between atoms: C_7  and  O_32
REMARK    2  A    between atoms: C_7  and  C_35
REMARK    3  A    between atoms: C_35  and  O_36
REMARK                            x       y       z     vdW  Elec       q    Type
REMARK                         _______ _______ _______ _____ _____    ______ ____
ROOT
ATOM      1  O   UNL     1      41.821  22.671  84.436  0.00  0.00    +0.000 OA
ATOM      2  O   UNL     1      49.287  21.683  84.494  0.00  0.00    +0.000 OA
ATOM      3  N   UNL     1      43.204  24.557  84.093  0.00  0.00    +0.000 N 
ATOM      4  N   UNL     1      43.762  21.641  83.655  0.00  0.00    +0.000 N 
ATOM      5  N   UNL     1      49.104  23.971  84.844  0.00  0.00    +0.000 N 
ATOM      6  C   UNL     1      41.852  24.017  83.844  0.00  0.00    +0.000 C 
ATOM      7  C   UNL     1      41.549  23.767  82.304  0.00  0.00    +0.000 C 
ATOM      8  C   UNL     1      42.408  21.849  83.459  0.00  0.00    +0.000 C 
ATOM      9  C   UNL     1      42.021  22.389  82.208  0.00  0.00    +0.000 C 
ATOM     10  C   UNL     1      44.413  23.923  84.234  0.00  0.00    +0.000 A 
ATOM     11  C   UNL     1      44.680  22.567  84.048  0.00  0.00    +0.000 A 
ATOM     12  C   UNL     1      45.553  24.684  84.511  0.00  0.00    +0.000 A 
ATOM     13  C   UNL     1      46.024  22.196  84.163  0.00  0.00    +0.000 A 
ATOM     14  C   UNL     1      40.746  24.824  84.601  0.00  0.00    +0.000 C 
ATOM     15  C   UNL     1      43.626  25.905  84.218  0.00  0.00    +0.000 A 
ATOM     16  C   UNL     1      44.601  20.533  83.435  0.00  0.00    +0.000 A 
ATOM     17  C   UNL     1      45.040  25.994  84.503  0.00  0.00    +0.000 A 
ATOM     18  C   UNL     1      46.901  24.332  84.653  0.00  0.00    +0.000 A 
ATOM     19  C   UNL     1      47.180  22.946  84.460  0.00  0.00    +0.000 A 
ATOM     20  C   UNL     1      45.975  20.842  83.764  0.00  0.00    +0.000 A 
ATOM     21  C   UNL     1      48.213  24.983  84.905  0.00  0.00    +0.000 C 
ATOM     22  C   UNL     1      42.862  27.078  84.094  0.00  0.00    +0.000 A 
ATOM     23  C   UNL     1      48.599  22.689  84.579  0.00  0.00    +0.000 C 
ATOM     24  C   UNL     1      44.240  19.257  82.977  0.00  0.00    +0.000 A 
ATOM     25  C   UNL     1      45.614  27.270  84.666  0.00  0.00    +0.000 A 
ATOM     26  C   UNL     1      46.936  19.824  83.599  0.00  0.00    +0.000 A 
ATOM     27  C   UNL     1      43.476  28.318  84.266  0.00  0.00    +0.000 A 
ATOM     28  C   UNL     1      44.828  28.417  84.553  0.00  0.00    +0.000 A 
ATOM     29  C   UNL     1      45.233  18.286  82.839  0.00  0.00    +0.000 A 
ATOM     30  C   UNL     1      46.558  18.562  83.144  0.00  0.00    +0.000 A 
ATOM     31  H   UNL     1      50.095  24.110  84.977  0.00  0.00    +0.000 HD
ENDROOT
BRANCH   7  32
ATOM     32  O   UNL     1      42.308  24.583  81.400  0.00  0.00    +0.000 OA
ATOM     33  H   UNL     1      42.915  25.133  81.942  0.00  0.00    +0.000 HD
ENDBRANCH   7  32
BRANCH   7  35
ATOM     34  O   UNL     1      39.575  24.937  81.599  0.00  0.00    +0.000 OA
ATOM     35  C   UNL     1      40.057  23.874  81.994  0.00  0.00    +0.000 C 
BRANCH  35  36
ATOM     36  O   UNL     1      39.419  22.676  82.160  0.00  0.00    +0.000 OA
ATOM     37  C   UNL     1      38.273  22.654  82.967  0.00  0.00    +0.000 C 
ENDBRANCH  35  36
ENDBRANCH   7  35
TORSDOF 3
ENDMDL
MODEL 3
REMARK VINA RESULT:      -6.5     12.533     13.012
REMARK  Name = 490561_Nocardiopsis.pdbqt.pdb
REMARK  3 active torsions:
REMARK  status: ('A' for Active; 'I' for Inactive)
REMARK    1  A    between atoms: C_7  and  O_32
REMARK    2  A    between atoms: C_7  and  C_35
REMARK    3  A    between atoms: C_35  and  O_36
REMARK                            x       y       z     vdW  Elec       q    Type
REMARK                         _______ _______ _______ _____ _____    ______ ____
ROOT
ATOM      1  O   UNL     1      43.022  26.383  89.290  0.00  0.00    +0.000 OA
ATOM      2  O   UNL     1      47.505  25.005  83.397  0.00  0.00    +0.000 OA
ATOM      3  N   UNL     1      45.214  27.267  89.318  0.00  0.00    +0.000 N 
ATOM      4  N   UNL     1      43.488  26.445  87.005  0.00  0.00    +0.000 N 
ATOM      5  N   UNL     1      49.037  25.614  85.033  0.00  0.00    +0.000 N 
ATOM      6  C   UNL     1      43.855  27.450  89.867  0.00  0.00    +0.000 C 
ATOM      7  C   UNL     1      43.155  28.791  89.378  0.00  0.00    +0.000 C 
ATOM      8  C   UNL     1      42.657  26.875  88.025  0.00  0.00    +0.000 C 
ATOM      9  C   UNL     1      42.507  28.275  88.176  0.00  0.00    +0.000 C 
ATOM     10  C   UNL     1      45.639  26.737  88.126  0.00  0.00    +0.000 A 
ATOM     11  C   UNL     1      44.844  26.337  87.051  0.00  0.00    +0.000 A 
ATOM     12  C   UNL     1      47.010  26.642  87.872  0.00  0.00    +0.000 A 
ATOM     13  C   UNL     1      45.539  25.918  85.911  0.00  0.00    +0.000 A 
ATOM     14  C   UNL     1      43.806  27.218  91.413  0.00  0.00    +0.000 C 
ATOM     15  C   UNL     1      46.466  27.632  89.876  0.00  0.00    +0.000 A 
ATOM     16  C   UNL     1      43.253  26.102  85.661  0.00  0.00    +0.000 A 
ATOM     17  C   UNL     1      47.562  27.231  89.024  0.00  0.00    +0.000 A 
ATOM     18  C   UNL     1      47.727  26.205  86.751  0.00  0.00    +0.000 A 
ATOM     19  C   UNL     1      46.919  25.799  85.647  0.00  0.00    +0.000 A 
ATOM     20  C   UNL     1      44.484  25.753  84.986  0.00  0.00    +0.000 A 
ATOM     21  C   UNL     1      49.136  26.069  86.299  0.00  0.00    +0.000 C 
ATOM     22  C   UNL     1      46.726  28.304  91.082  0.00  0.00    +0.000 A 
ATOM     23  C   UNL     1      47.745  25.411  84.524  0.00  0.00    +0.000 C 
ATOM     24  C   UNL     1      42.025  26.061  84.984  0.00  0.00    +0.000 A 
ATOM     25  C   UNL     1      48.878  27.514  89.444  0.00  0.00    +0.000 A 
ATOM     26  C   UNL     1      44.408  25.381  83.629  0.00  0.00    +0.000 A 
ATOM     27  C   UNL     1      48.046  28.561  91.454  0.00  0.00    +0.000 A 
ATOM     28  C   UNL     1      49.107  28.168  90.654  0.00  0.00    +0.000 A 
ATOM     29  C   UNL     1      42.010  25.679  83.643  0.00  0.00    +0.000 A 
ATOM     30  C   UNL     1      43.178  25.344  82.975  0.00  0.00    +0.000 A 
ATOM     31  H   UNL     1      49.845  25.422  84.459  0.00  0.00    +0.000 HD
ENDROOT
BRANCH   7  32
ATOM     32  O   UNL     1      44.060  29.841  89.004  0.00  0.00    +0.000 OA
ATOM     33  H   UNL     1      43.996  29.947  88.029  0.00  0.00    +0.000 HD
ENDBRANCH   7  32
BRANCH   7  35
ATOM     34  O   UNL     1      40.988  28.851  90.408  0.00  0.00    +0.000 OA
ATOM     35  C   UNL     1      42.135  29.302  90.393  0.00  0.00    +0.000 C 
BRANCH  35  36
ATOM     36  O   UNL     1      42.684  30.221  91.244  0.00  0.00    +0.000 OA
ATOM     37  C   UNL     1      41.950  30.573  92.385  0.00  0.00    +0.000 C 
ENDBRANCH  35  36
ENDBRANCH   7  35
TORSDOF 3
ENDMDL
MODEL 4
REMARK VINA RESULT:      -6.4     12.795     15.315
REMARK  Name = 490561_Nocardiopsis.pdbqt.pdb
REMARK  3 active torsions:
REMARK  status: ('A' for Active; 'I' for Inactive)
REMARK    1  A    between atoms: C_7  and  O_32
REMARK    2  A    between atoms: C_7  and  C_35
REMARK    3  A    between atoms: C_35  and  O_36
REMARK                            x       y       z     vdW  Elec       q    Type
REMARK                         _______ _______ _______ _____ _____    ______ ____
ROOT
ATOM      1  O   UNL     1      46.658  21.711  83.245  0.00  0.00    +0.000 OA
ATOM      2  O   UNL     1      42.390  27.823  84.319  0.00  0.00    +0.000 OA
ATOM      3  N   UNL     1      47.353  23.295  84.856  0.00  0.00    +0.000 N 
ATOM      4  N   UNL     1      44.621  22.731  83.749  0.00  0.00    +0.000 N 
ATOM      5  N   UNL     1      44.416  28.486  85.240  0.00  0.00    +0.000 N 
ATOM      6  C   UNL     1      47.465  21.875  84.464  0.00  0.00    +0.000 C 
ATOM      7  C   UNL     1      46.796  20.880  85.507  0.00  0.00    +0.000 C 
ATOM      8  C   UNL     1      45.344  21.551  83.720  0.00  0.00    +0.000 C 
ATOM      9  C   UNL     1      45.451  20.840  84.940  0.00  0.00    +0.000 C 
ATOM     10  C   UNL     1      46.342  24.203  84.666  0.00  0.00    +0.000 A 
ATOM     11  C   UNL     1      45.075  23.955  84.138  0.00  0.00    +0.000 A 
ATOM     12  C   UNL     1      46.515  25.518  85.108  0.00  0.00    +0.000 A 
ATOM     13  C   UNL     1      44.197  25.044  84.142  0.00  0.00    +0.000 A 
ATOM     14  C   UNL     1      48.923  21.492  84.044  0.00  0.00    +0.000 C 
ATOM     15  C   UNL     1      48.265  24.103  85.581  0.00  0.00    +0.000 A 
ATOM     16  C   UNL     1      43.267  23.029  83.510  0.00  0.00    +0.000 A 
ATOM     17  C   UNL     1      47.784  25.459  85.713  0.00  0.00    +0.000 A 
ATOM     18  C   UNL     1      45.661  26.628  85.101  0.00  0.00    +0.000 A 
ATOM     19  C   UNL     1      44.362  26.378  84.566  0.00  0.00    +0.000 A 
ATOM     20  C   UNL     1      42.995  24.434  83.717  0.00  0.00    +0.000 A 
ATOM     21  C   UNL     1      45.656  28.046  85.543  0.00  0.00    +0.000 C 
ATOM     22  C   UNL     1      49.498  23.740  86.150  0.00  0.00    +0.000 A 
ATOM     23  C   UNL     1      43.540  27.566  84.645  0.00  0.00    +0.000 C 
ATOM     24  C   UNL     1      42.250  22.151  83.107  0.00  0.00    +0.000 A 
ATOM     25  C   UNL     1      48.583  26.392  86.403  0.00  0.00    +0.000 A 
ATOM     26  C   UNL     1      41.677  24.887  83.511  0.00  0.00    +0.000 A 
ATOM     27  C   UNL     1      50.253  24.701  86.822  0.00  0.00    +0.000 A 
ATOM     28  C   UNL     1      49.810  26.008  86.943  0.00  0.00    +0.000 A 
ATOM     29  C   UNL     1      40.965  22.656  82.911  0.00  0.00    +0.000 A 
ATOM     30  C   UNL     1      40.680  23.999  83.108  0.00  0.00    +0.000 A 
ATOM     31  H   UNL     1      44.113  29.430  85.427  0.00  0.00    +0.000 HD
ENDROOT
BRANCH   7  32
ATOM     32  O   UNL     1      46.719  21.378  86.851  0.00  0.00    +0.000 OA
ATOM     33  H   UNL     1      47.628  21.354  87.223  0.00  0.00    +0.000 HD
ENDBRANCH   7  32
BRANCH   7  35
ATOM     34  O   UNL     1      48.366  19.234  86.273  0.00  0.00    +0.000 OA
ATOM     35  C   UNL     1      47.458  19.504  85.484  0.00  0.00    +0.000 C 
BRANCH  35  36
ATOM     36  O   UNL     1      46.880  18.680  84.559  0.00  0.00    +0.000 OA
ATOM     37  C   UNL     1      47.725  18.009  83.665  0.00  0.00    +0.000 C 
ENDBRANCH  35  36
ENDBRANCH   7  35
TORSDOF 3
ENDMDL
MODEL 5
REMARK VINA RESULT:      -6.3     47.045     51.011
REMARK  Name = 490561_Nocardiopsis.pdbqt.pdb
REMARK  3 active torsions:
REMARK  status: ('A' for Active; 'I' for Inactive)
REMARK    1  A    between atoms: C_7  and  O_32
REMARK    2  A    between atoms: C_7  and  C_35
REMARK    3  A    between atoms: C_35  and  O_36
REMARK                            x       y       z     vdW  Elec       q    Type
REMARK                         _______ _______ _______ _____ _____    ______ ____
ROOT
ATOM      1  O   UNL     1      13.302   5.516 102.396  0.00  0.00    +0.000 OA
ATOM      2  O   UNL     1      11.867  -1.092  99.078  0.00  0.00    +0.000 OA
ATOM      3  N   UNL     1      13.206   5.444 100.034  0.00  0.00    +0.000 N 
ATOM      4  N   UNL     1      11.978   3.621 102.079  0.00  0.00    +0.000 N 
ATOM      5  N   UNL     1      12.793   0.129  97.333  0.00  0.00    +0.000 N 
ATOM      6  C   UNL     1      13.062   6.340 101.201  0.00  0.00    +0.000 C 
ATOM      7  C   UNL     1      11.580   6.881 101.398  0.00  0.00    +0.000 C 
ATOM      8  C   UNL     1      12.068   4.885 102.635  0.00  0.00    +0.000 C 
ATOM      9  C   UNL     1      11.071   5.819 102.261  0.00  0.00    +0.000 C 
ATOM     10  C   UNL     1      12.983   4.097  99.903  0.00  0.00    +0.000 A 
ATOM     11  C   UNL     1      12.428   3.238 100.852  0.00  0.00    +0.000 A 
ATOM     12  C   UNL     1      13.244   3.480  98.676  0.00  0.00    +0.000 A 
ATOM     13  C   UNL     1      12.222   1.921 100.426  0.00  0.00    +0.000 A 
ATOM     14  C   UNL     1      14.167   7.446 101.236  0.00  0.00    +0.000 C 
ATOM     15  C   UNL     1      13.586   5.754  98.705  0.00  0.00    +0.000 A 
ATOM     16  C   UNL     1      11.356   2.432 102.502  0.00  0.00    +0.000 A 
ATOM     17  C   UNL     1      13.644   4.568  97.880  0.00  0.00    +0.000 A 
ATOM     18  C   UNL     1      13.068   2.162  98.235  0.00  0.00    +0.000 A 
ATOM     19  C   UNL     1      12.497   1.280  99.200  0.00  0.00    +0.000 A 
ATOM     20  C   UNL     1      11.516   1.380 101.523  0.00  0.00    +0.000 A 
ATOM     21  C   UNL     1      13.249   1.355  97.000  0.00  0.00    +0.000 C 
ATOM     22  C   UNL     1      13.883   7.008  98.146  0.00  0.00    +0.000 A 
ATOM     23  C   UNL     1      12.310  -0.040  98.639  0.00  0.00    +0.000 C 
ATOM     24  C   UNL     1      10.665   2.201 103.701  0.00  0.00    +0.000 A 
ATOM     25  C   UNL     1      14.017   4.707  96.528  0.00  0.00    +0.000 A 
ATOM     26  C   UNL     1      10.948   0.123 101.810  0.00  0.00    +0.000 A 
ATOM     27  C   UNL     1      14.249   7.094  96.803  0.00  0.00    +0.000 A 
ATOM     28  C   UNL     1      14.322   5.963  96.006  0.00  0.00    +0.000 A 
ATOM     29  C   UNL     1      10.130   0.935 103.935  0.00  0.00    +0.000 A 
ATOM     30  C   UNL     1      10.268  -0.089 103.009  0.00  0.00    +0.000 A 
ATOM     31  H   UNL     1      12.790  -0.644  96.685  0.00  0.00    +0.000 HD
ENDROOT
BRANCH   7  32
ATOM     32  O   UNL     1      10.790   6.925 100.200  0.00  0.00    +0.000 OA
ATOM     33  H   UNL     1      10.434   6.022 100.052  0.00  0.00    +0.000 HD
ENDBRANCH   7  32
BRANCH   7  35
ATOM     34  O   UNL     1      11.858   8.326 103.294  0.00  0.00    +0.000 OA
ATOM     35  C   UNL     1      11.560   8.236 102.101  0.00  0.00    +0.000 C 
BRANCH  35  36
ATOM     36  O   UNL     1      11.239   9.249 101.240  0.00  0.00    +0.000 OA
ATOM     37  C   UNL     1      11.997  10.426 101.308  0.00  0.00    +0.000 C 
ENDBRANCH  35  36
ENDBRANCH   7  35
TORSDOF 3
ENDMDL
MODEL 6
REMARK VINA RESULT:      -6.3      3.556      6.895
REMARK  Name = 490561_Nocardiopsis.pdbqt.pdb
REMARK  3 active torsions:
REMARK  status: ('A' for Active; 'I' for Inactive)
REMARK    1  A    between atoms: C_7  and  O_32
REMARK    2  A    between atoms: C_7  and  C_35
REMARK    3  A    between atoms: C_35  and  O_36
REMARK                            x       y       z     vdW  Elec       q    Type
REMARK                         _______ _______ _______ _____ _____    ______ ____
ROOT
ATOM      1  O   UNL     1      43.057  38.026  82.528  0.00  0.00    +0.000 OA
ATOM      2  O   UNL     1      35.600  37.065  82.080  0.00  0.00    +0.000 OA
ATOM      3  N   UNL     1      41.858  37.618  84.524  0.00  0.00    +0.000 N 
ATOM      4  N   UNL     1      41.173  36.942  81.681  0.00  0.00    +0.000 N 
ATOM      5  N   UNL     1      35.885  37.568  84.329  0.00  0.00    +0.000 N 
ATOM      6  C   UNL     1      43.193  37.514  83.900  0.00  0.00    +0.000 C 
ATOM      7  C   UNL     1      43.680  36.014  83.706  0.00  0.00    +0.000 C 
ATOM      8  C   UNL     1      42.552  36.934  81.800  0.00  0.00    +0.000 C 
ATOM      9  C   UNL     1      43.136  35.777  82.372  0.00  0.00    +0.000 C 
ATOM     10  C   UNL     1      40.602  37.565  83.973  0.00  0.00    +0.000 A 
ATOM     11  C   UNL     1      40.274  37.267  82.650  0.00  0.00    +0.000 A 
ATOM     12  C   UNL     1      39.488  37.737  84.799  0.00  0.00    +0.000 A 
ATOM     13  C   UNL     1      38.905  37.186  82.372  0.00  0.00    +0.000 A 
ATOM     14  C   UNL     1      44.239  38.453  84.586  0.00  0.00    +0.000 C 
ATOM     15  C   UNL     1      41.512  37.767  85.890  0.00  0.00    +0.000 A 
ATOM     16  C   UNL     1      40.301  36.551  80.648  0.00  0.00    +0.000 A 
ATOM     17  C   UNL     1      40.081  37.872  86.067  0.00  0.00    +0.000 A 
ATOM     18  C   UNL     1      38.112  37.684  84.539  0.00  0.00    +0.000 A 
ATOM     19  C   UNL     1      37.771  37.376  83.188  0.00  0.00    +0.000 A 
ATOM     20  C   UNL     1      38.919  36.718  81.039  0.00  0.00    +0.000 A 
ATOM     21  C   UNL     1      36.824  37.802  85.270  0.00  0.00    +0.000 C 
ATOM     22  C   UNL     1      42.360  37.811  87.010  0.00  0.00    +0.000 A 
ATOM     23  C   UNL     1      36.336  37.296  83.029  0.00  0.00    +0.000 C 
ATOM     24  C   UNL     1      40.635  36.069  79.373  0.00  0.00    +0.000 A 
ATOM     25  C   UNL     1      39.575  38.035  87.372  0.00  0.00    +0.000 A 
ATOM     26  C   UNL     1      37.924  36.371  80.103  0.00  0.00    +0.000 A 
ATOM     27  C   UNL     1      41.811  37.975  88.281  0.00  0.00    +0.000 A 
ATOM     28  C   UNL     1      40.442  38.091  88.463  0.00  0.00    +0.000 A 
ATOM     29  C   UNL     1      39.609  35.749  78.486  0.00  0.00    +0.000 A 
ATOM     30  C   UNL     1      38.276  35.897  78.841  0.00  0.00    +0.000 A 
ATOM     31  H   UNL     1      34.896  37.582  84.533  0.00  0.00    +0.000 HD
ENDROOT
BRANCH   7  32
ATOM     32  O   UNL     1      43.102  35.069  84.618  0.00  0.00    +0.000 OA
ATOM     33  H   UNL     1      43.429  34.179  84.362  0.00  0.00    +0.000 HD
ENDBRANCH   7  32
BRANCH   7  35
ATOM     34  O   UNL     1      45.802  35.640  84.764  0.00  0.00    +0.000 OA
ATOM     35  C   UNL     1      45.204  35.905  83.719  0.00  0.00    +0.000 C 
BRANCH  35  36
ATOM     36  O   UNL     1      45.734  36.079  82.471  0.00  0.00    +0.000 OA
ATOM     37  C   UNL     1      46.541  37.206  82.258  0.00  0.00    +0.000 C 
ENDBRANCH  35  36
ENDBRANCH   7  35
TORSDOF 3
ENDMDL
MODEL 7
REMARK VINA RESULT:      -6.3     17.415     19.796
REMARK  Name = 490561_Nocardiopsis.pdbqt.pdb
REMARK  3 active torsions:
REMARK  status: ('A' for Active; 'I' for Inactive)
REMARK    1  A    between atoms: C_7  and  O_32
REMARK    2  A    between atoms: C_7  and  C_35
REMARK    3  A    between atoms: C_35  and  O_36
REMARK                            x       y       z     vdW  Elec       q    Type
REMARK                         _______ _______ _______ _____ _____    ______ ____
ROOT
ATOM      1  O   UNL     1      59.843  27.917  90.462  0.00  0.00    +0.000 OA
ATOM      2  O   UNL     1      65.543  29.646  85.852  0.00  0.00    +0.000 OA
ATOM      3  N   UNL     1      59.710  29.924  89.219  0.00  0.00    +0.000 N 
ATOM      4  N   UNL     1      61.275  27.418  88.690  0.00  0.00    +0.000 N 
ATOM      5  N   UNL     1      64.495  31.702  86.111  0.00  0.00    +0.000 N 
ATOM      6  C   UNL     1      58.899  28.901  89.910  0.00  0.00    +0.000 C 
ATOM      7  C   UNL     1      57.989  28.049  88.923  0.00  0.00    +0.000 C 
ATOM      8  C   UNL     1      60.128  27.066  89.381  0.00  0.00    +0.000 C 
ATOM      9  C   UNL     1      58.933  26.975  88.627  0.00  0.00    +0.000 C 
ATOM     10  C   UNL     1      60.932  29.835  88.601  0.00  0.00    +0.000 A 
ATOM     11  C   UNL     1      61.675  28.678  88.364  0.00  0.00    +0.000 A 
ATOM     12  C   UNL     1      61.505  30.987  88.054  0.00  0.00    +0.000 A 
ATOM     13  C   UNL     1      62.850  28.856  87.625  0.00  0.00    +0.000 A 
ATOM     14  C   UNL     1      58.143  29.485  91.148  0.00  0.00    +0.000 C 
ATOM     15  C   UNL     1      59.419  31.290  88.976  0.00  0.00    +0.000 A 
ATOM     16  C   UNL     1      62.277  26.663  88.052  0.00  0.00    +0.000 A 
ATOM     17  C   UNL     1      60.511  31.952  88.299  0.00  0.00    +0.000 A 
ATOM     18  C   UNL     1      62.688  31.194  87.333  0.00  0.00    +0.000 A 
ATOM     19  C   UNL     1      63.449  30.013  87.085  0.00  0.00    +0.000 A 
ATOM     20  C   UNL     1      63.257  27.519  87.423  0.00  0.00    +0.000 A 
ATOM     21  C   UNL     1      63.419  32.300  86.664  0.00  0.00    +0.000 C 
ATOM     22  C   UNL     1      58.255  32.009  89.296  0.00  0.00    +0.000 A 
ATOM     23  C   UNL     1      64.623  30.317  86.296  0.00  0.00    +0.000 C 
ATOM     24  C   UNL     1      62.399  25.266  87.996  0.00  0.00    +0.000 A 
ATOM     25  C   UNL     1      60.380  33.322  87.992  0.00  0.00    +0.000 A 
ATOM     26  C   UNL     1      64.329  26.904  86.745  0.00  0.00    +0.000 A 
ATOM     27  C   UNL     1      58.174  33.363  88.972  0.00  0.00    +0.000 A 
ATOM     28  C   UNL     1      59.219  34.014  88.337  0.00  0.00    +0.000 A 
ATOM     29  C   UNL     1      63.484  24.713  87.317  0.00  0.00    +0.000 A 
ATOM     30  C   UNL     1      64.435  25.515  86.702  0.00  0.00    +0.000 A 
ATOM     31  H   UNL     1      65.188  32.211  85.582  0.00  0.00    +0.000 HD
ENDROOT
BRANCH   7  32
ATOM     32  O   UNL     1      57.642  28.713  87.698  0.00  0.00    +0.000 OA
ATOM     33  H   UNL     1      56.662  28.743  87.651  0.00  0.00    +0.000 HD
ENDBRANCH   7  32
BRANCH   7  35
ATOM     34  O   UNL     1      55.696  28.184  89.619  0.00  0.00    +0.000 OA
ATOM     35  C   UNL     1      56.736  27.522  89.618  0.00  0.00    +0.000 C 
BRANCH  35  36
ATOM     36  O   UNL     1      56.934  26.274  90.140  0.00  0.00    +0.000 OA
ATOM     37  C   UNL     1      56.580  26.065  91.481  0.00  0.00    +0.000 C 
ENDBRANCH  35  36
ENDBRANCH   7  35
TORSDOF 3
ENDMDL
MODEL 8
REMARK VINA RESULT:      -6.2     36.091     38.953
REMARK  Name = 490561_Nocardiopsis.pdbqt.pdb
REMARK  3 active torsions:
REMARK  status: ('A' for Active; 'I' for Inactive)
REMARK    1  A    between atoms: C_7  and  O_32
REMARK    2  A    between atoms: C_7  and  C_35
REMARK    3  A    between atoms: C_35  and  O_36
REMARK                            x       y       z     vdW  Elec       q    Type
REMARK                         _______ _______ _______ _____ _____    ______ ____
ROOT
ATOM      1  O   UNL     1      26.266   4.401  85.027  0.00  0.00    +0.000 OA
ATOM      2  O   UNL     1      19.583   7.873  84.931  0.00  0.00    +0.000 OA
ATOM      3  N   UNL     1      25.816   6.014  86.696  0.00  0.00    +0.000 N 
ATOM      4  N   UNL     1      23.933   4.367  85.038  0.00  0.00    +0.000 N 
ATOM      5  N   UNL     1      20.848   9.306  86.250  0.00  0.00    +0.000 N 
ATOM      6  C   UNL     1      26.636   4.824  86.386  0.00  0.00    +0.000 C 
ATOM      7  C   UNL     1      26.284   3.566  87.291  0.00  0.00    +0.000 C 
ATOM      8  C   UNL     1      25.098   3.639  85.208  0.00  0.00    +0.000 C 
ATOM      9  C   UNL     1      25.255   2.968  86.446  0.00  0.00    +0.000 C 
ATOM     10  C   UNL     1      24.570   6.385  86.258  0.00  0.00    +0.000 A 
ATOM     11  C   UNL     1      23.694   5.634  85.474  0.00  0.00    +0.000 A 
ATOM     12  C   UNL     1      24.034   7.605  86.682  0.00  0.00    +0.000 A 
ATOM     13  C   UNL     1      22.440   6.213  85.248  0.00  0.00    +0.000 A 
ATOM     14  C   UNL     1      28.161   5.163  86.309  0.00  0.00    +0.000 C 
ATOM     15  C   UNL     1      26.091   7.092  87.574  0.00  0.00    +0.000 A 
ATOM     16  C   UNL     1      22.674   4.044  84.498  0.00  0.00    +0.000 A 
ATOM     17  C   UNL     1      25.034   8.077  87.551  0.00  0.00    +0.000 A 
ATOM     18  C   UNL     1      22.794   8.214  86.450  0.00  0.00    +0.000 A 
ATOM     19  C   UNL     1      21.893   7.448  85.652  0.00  0.00    +0.000 A 
ATOM     20  C   UNL     1      21.762   5.161  84.593  0.00  0.00    +0.000 A 
ATOM     21  C   UNL     1      22.058   9.446  86.831  0.00  0.00    +0.000 C 
ATOM     22  C   UNL     1      27.204   7.280  88.412  0.00  0.00    +0.000 A 
ATOM     23  C   UNL     1      20.628   8.135  85.509  0.00  0.00    +0.000 C 
ATOM     24  C   UNL     1      22.273   2.834  83.913  0.00  0.00    +0.000 A 
ATOM     25  C   UNL     1      25.162   9.220  88.367  0.00  0.00    +0.000 A 
ATOM     26  C   UNL     1      20.457   4.990  84.088  0.00  0.00    +0.000 A 
ATOM     27  C   UNL     1      27.285   8.428  89.199  0.00  0.00    +0.000 A 
ATOM     28  C   UNL     1      26.286   9.387  89.175  0.00  0.00    +0.000 A 
ATOM     29  C   UNL     1      20.971   2.724  83.423  0.00  0.00    +0.000 A 
ATOM     30  C   UNL     1      20.077   3.781  83.507  0.00  0.00    +0.000 A 
ATOM     31  H   UNL     1      20.120   9.999  86.333  0.00  0.00    +0.000 HD
ENDROOT
BRANCH   7  32
ATOM     32  O   UNL     1      25.710   3.883  88.568  0.00  0.00    +0.000 OA
ATOM     33  H   UNL     1      24.735   3.903  88.453  0.00  0.00    +0.000 HD
ENDBRANCH   7  32
BRANCH   7  35
ATOM     34  O   UNL     1      27.813   1.869  86.554  0.00  0.00    +0.000 OA
ATOM     35  C   UNL     1      27.484   2.636  87.461  0.00  0.00    +0.000 C 
BRANCH  35  36
ATOM     36  O   UNL     1      28.106   2.826  88.663  0.00  0.00    +0.000 OA
ATOM     37  C   UNL     1      28.351   1.697  89.456  0.00  0.00    +0.000 C 
ENDBRANCH  35  36
ENDBRANCH   7  35
TORSDOF 3
ENDMDL
MODEL 9
REMARK VINA RESULT:      -6.2     12.705     16.023
REMARK  Name = 490561_Nocardiopsis.pdbqt.pdb
REMARK  3 active torsions:
REMARK  status: ('A' for Active; 'I' for Inactive)
REMARK    1  A    between atoms: C_7  and  O_32
REMARK    2  A    between atoms: C_7  and  C_35
REMARK    3  A    between atoms: C_35  and  O_36
REMARK                            x       y       z     vdW  Elec       q    Type
REMARK                         _______ _______ _______ _____ _____    ______ ____
ROOT
ATOM      1  O   UNL     1      57.036  36.421  88.153  0.00  0.00    +0.000 OA
ATOM      2  O   UNL     1      56.690  29.562  91.247  0.00  0.00    +0.000 OA
ATOM      3  N   UNL     1      58.673  34.829  87.537  0.00  0.00    +0.000 N 
ATOM      4  N   UNL     1      55.905  34.437  88.630  0.00  0.00    +0.000 N 
ATOM      5  N   UNL     1      58.882  29.634  90.484  0.00  0.00    +0.000 N 
ATOM      6  C   UNL     1      57.986  36.058  87.090  0.00  0.00    +0.000 C 
ATOM      7  C   UNL     1      57.068  35.835  85.812  0.00  0.00    +0.000 C 
ATOM      8  C   UNL     1      55.912  35.614  87.902  0.00  0.00    +0.000 C 
ATOM      9  C   UNL     1      55.823  35.493  86.494  0.00  0.00    +0.000 C 
ATOM     10  C   UNL     1      58.249  33.810  88.353  0.00  0.00    +0.000 A 
ATOM     11  C   UNL     1      56.970  33.627  88.878  0.00  0.00    +0.000 A 
ATOM     12  C   UNL     1      59.131  32.768  88.654  0.00  0.00    +0.000 A 
ATOM     13  C   UNL     1      56.780  32.446  89.606  0.00  0.00    +0.000 A 
ATOM     14  C   UNL     1      58.965  37.274  86.982  0.00  0.00    +0.000 C 
ATOM     15  C   UNL     1      59.965  34.349  87.207  0.00  0.00    +0.000 A 
ATOM     16  C   UNL     1      54.873  33.685  89.221  0.00  0.00    +0.000 A 
ATOM     17  C   UNL     1      60.267  33.118  87.901  0.00  0.00    +0.000 A 
ATOM     18  C   UNL     1      58.971  31.591  89.397  0.00  0.00    +0.000 A 
ATOM     19  C   UNL     1      57.663  31.397  89.934  0.00  0.00    +0.000 A 
ATOM     20  C   UNL     1      55.388  32.485  89.842  0.00  0.00    +0.000 A 
ATOM     21  C   UNL     1      59.755  30.390  89.785  0.00  0.00    +0.000 C 
ATOM     22  C   UNL     1      60.910  34.906  86.329  0.00  0.00    +0.000 A 
ATOM     23  C   UNL     1      57.582  30.138  90.641  0.00  0.00    +0.000 C 
ATOM     24  C   UNL     1      53.503  33.987  89.265  0.00  0.00    +0.000 A 
ATOM     25  C   UNL     1      61.522  32.515  87.686  0.00  0.00    +0.000 A 
ATOM     26  C   UNL     1      54.470  31.629  90.482  0.00  0.00    +0.000 A 
ATOM     27  C   UNL     1      62.139  34.273  86.151  0.00  0.00    +0.000 A 
ATOM     28  C   UNL     1      62.447  33.100  86.821  0.00  0.00    +0.000 A 
ATOM     29  C   UNL     1      52.642  33.106  89.918  0.00  0.00    +0.000 A 
ATOM     30  C   UNL     1      53.113  31.947  90.517  0.00  0.00    +0.000 A 
ATOM     31  H   UNL     1      59.134  28.741  90.882  0.00  0.00    +0.000 HD
ENDROOT
BRANCH   7  32
ATOM     32  O   UNL     1      57.456  34.736  84.975  0.00  0.00    +0.000 OA
ATOM     33  H   UNL     1      57.873  34.061  85.554  0.00  0.00    +0.000 HD
ENDBRANCH   7  32
BRANCH   7  35
ATOM     34  O   UNL     1      57.767  37.402  84.134  0.00  0.00    +0.000 OA
ATOM     35  C   UNL     1      56.925  37.112  84.985  0.00  0.00    +0.000 C 
BRANCH  35  36
ATOM     36  O   UNL     1      55.773  37.783  85.287  0.00  0.00    +0.000 OA
ATOM     37  C   UNL     1      55.883  39.130  85.663  0.00  0.00    +0.000 C 
ENDBRANCH  35  36
ENDBRANCH   7  35
TORSDOF 3
ENDMDL
