MODEL 1
REMARK VINA RESULT:      -7.3      0.000      0.000
REMARK  Name = 50922675_Encorafenib.pdbqt.pdb
REMARK  8 active torsions:
REMARK  status: ('A' for Active; 'I' for Inactive)
REMARK    1  A    between atoms: N_1  and  C_37
REMARK    2  A    between atoms: C_3  and  C_23
REMARK    3  A    between atoms: C_4  and  C_8
REMARK    4  A    between atoms: C_11  and  N_14
REMARK    5  A    between atoms: N_14  and  S_16
REMARK    6  A    between atoms: N_20  and  C_28
REMARK    7  A    between atoms: C_28  and  C_29
REMARK    8  A    between atoms: C_33  and  O_35
REMARK                            x       y       z     vdW  Elec       q    Type
REMARK                         _______ _______ _______ _____ _____    ______ ____
ROOT
ATOM      1  N   UNL     1      63.092  35.977  76.181  0.00  0.00    +0.000 N 
ATOM      2  N   UNL     1      62.040  36.204  77.046  0.00  0.00    +0.000 NA
ATOM      3  C   UNL     1      61.204  35.452  75.059  0.00  0.00    +0.000 A 
ATOM      4  C   UNL     1      60.919  35.865  76.390  0.00  0.00    +0.000 A 
ATOM      5  C   UNL     1      62.572  35.538  74.970  0.00  0.00    +0.000 A 
ENDROOT
BRANCH   4   8
ATOM      6 CL   UNL     1      57.323  33.749  79.409  0.00  0.00    +0.000 Cl
ATOM      7  F   UNL     1      59.284  38.204  76.208  0.00  0.00    +0.000 F 
ATOM      8  C   UNL     1      59.636  36.005  77.068  0.00  0.00    +0.000 A 
ATOM      9  C   UNL     1      58.855  37.160  76.936  0.00  0.00    +0.000 A 
ATOM     10  C   UNL     1      59.139  34.941  77.823  0.00  0.00    +0.000 A 
ATOM     11  C   UNL     1      57.611  37.263  77.566  0.00  0.00    +0.000 A 
ATOM     12  C   UNL     1      57.900  35.042  78.446  0.00  0.00    +0.000 A 
ATOM     13  C   UNL     1      57.127  36.188  78.309  0.00  0.00    +0.000 A 
BRANCH  11  14
ATOM     14  N   UNL     1      56.785  38.415  77.333  0.00  0.00    +0.000 N 
ATOM     15  H   UNL     1      56.466  38.862  78.198  0.00  0.00    +0.000 HD
BRANCH  14  16
ATOM     16  S   UNL     1      55.457  38.238  76.327  0.00  0.00    +0.000 S 
ATOM     17  O   UNL     1      54.410  37.486  76.964  0.00  0.00    +0.000 OA
ATOM     18  O   UNL     1      55.270  39.328  75.395  0.00  0.00    +0.000 OA
ATOM     19  C   UNL     1      55.930  37.011  75.146  0.00  0.00    +0.000 C 
ENDBRANCH  14  16
ENDBRANCH  11  14
ENDBRANCH   4   8
BRANCH   3  23
ATOM     20  N   UNL     1      58.350  36.492  71.403  0.00  0.00    +0.000 N 
ATOM     21  N   UNL     1      59.769  35.940  73.224  0.00  0.00    +0.000 NA
ATOM     22  N   UNL     1      58.780  34.262  71.890  0.00  0.00    +0.000 NA
ATOM     23  C   UNL     1      60.368  34.988  73.963  0.00  0.00    +0.000 A 
ATOM     24  C   UNL     1      58.989  35.544  72.203  0.00  0.00    +0.000 A 
ATOM     25  C   UNL     1      60.211  33.643  73.722  0.00  0.00    +0.000 A 
ATOM     26  C   UNL     1      59.396  33.345  72.658  0.00  0.00    +0.000 A 
ATOM     27  H   UNL     1      57.637  36.021  70.857  0.00  0.00    +0.000 HD
BRANCH  20  28
ATOM     28  C   UNL     1      58.021  37.768  72.027  0.00  0.00    +0.000 C 
BRANCH  28  29
ATOM     29  C   UNL     1      57.593  38.953  72.677  0.00  0.00    +0.000 C 
ATOM     30  C   UNL     1      58.630  39.782  73.374  0.00  0.00    +0.000 C 
ATOM     31  O   UNL     1      55.237  37.828  71.473  0.00  0.00    +0.000 OA
ATOM     32  N   UNL     1      56.368  39.513  72.547  0.00  0.00    +0.000 N 
ATOM     33  C   UNL     1      55.272  38.965  71.932  0.00  0.00    +0.000 C 
ATOM     34  H   UNL     1      56.284  40.454  72.920  0.00  0.00    +0.000 HD
BRANCH  33  35
ATOM     35  O   UNL     1      54.239  39.874  71.928  0.00  0.00    +0.000 OA
ATOM     36  C   UNL     1      54.529  41.212  72.245  0.00  0.00    +0.000 C 
ENDBRANCH  33  35
ENDBRANCH  28  29
ENDBRANCH  20  28
ENDBRANCH   3  23
BRANCH   1  37
ATOM     37  C   UNL     1      64.476  36.155  76.424  0.00  0.00    +0.000 C 
ATOM     38  C   UNL     1      65.390  34.990  76.764  0.00  0.00    +0.000 C 
ATOM     39  C   UNL     1      65.142  37.513  76.345  0.00  0.00    +0.000 C 
ENDBRANCH   1  37
TORSDOF 8
ENDMDL
MODEL 2
REMARK VINA RESULT:      -7.0      2.943      5.096
REMARK  Name = 50922675_Encorafenib.pdbqt.pdb
REMARK  8 active torsions:
REMARK  status: ('A' for Active; 'I' for Inactive)
REMARK    1  A    between atoms: N_1  and  C_37
REMARK    2  A    between atoms: C_3  and  C_23
REMARK    3  A    between atoms: C_4  and  C_8
REMARK    4  A    between atoms: C_11  and  N_14
REMARK    5  A    between atoms: N_14  and  S_16
REMARK    6  A    between atoms: N_20  and  C_28
REMARK    7  A    between atoms: C_28  and  C_29
REMARK    8  A    between atoms: C_33  and  O_35
REMARK                            x       y       z     vdW  Elec       q    Type
REMARK                         _______ _______ _______ _____ _____    ______ ____
ROOT
ATOM      1  N   UNL     1      62.733  35.721  76.391  0.00  0.00    +0.000 N 
ATOM      2  N   UNL     1      61.752  35.800  77.359  0.00  0.00    +0.000 NA
ATOM      3  C   UNL     1      60.751  35.649  75.313  0.00  0.00    +0.000 A 
ATOM      4  C   UNL     1      60.573  35.729  76.722  0.00  0.00    +0.000 A 
ATOM      5  C   UNL     1      62.115  35.648  75.150  0.00  0.00    +0.000 A 
ENDROOT
BRANCH   4   8
ATOM      6 CL   UNL     1      57.340  33.373  79.965  0.00  0.00    +0.000 Cl
ATOM      7  F   UNL     1      58.819  37.988  76.732  0.00  0.00    +0.000 F 
ATOM      8  C   UNL     1      59.344  35.791  77.504  0.00  0.00    +0.000 A 
ATOM      9  C   UNL     1      58.501  36.908  77.465  0.00  0.00    +0.000 A 
ATOM     10  C   UNL     1      58.962  34.687  78.269  0.00  0.00    +0.000 A 
ATOM     11  C   UNL     1      57.309  36.936  78.195  0.00  0.00    +0.000 A 
ATOM     12  C   UNL     1      57.774  34.714  78.992  0.00  0.00    +0.000 A 
ATOM     13  C   UNL     1      56.938  35.823  78.947  0.00  0.00    +0.000 A 
BRANCH  11  14
ATOM     14  N   UNL     1      56.413  38.050  78.059  0.00  0.00    +0.000 N 
ATOM     15  H   UNL     1      56.003  38.347  78.949  0.00  0.00    +0.000 HD
BRANCH  14  16
ATOM     16  S   UNL     1      55.174  37.928  76.938  0.00  0.00    +0.000 S 
ATOM     17  O   UNL     1      54.830  36.556  76.681  0.00  0.00    +0.000 OA
ATOM     18  O   UNL     1      54.254  39.044  76.947  0.00  0.00    +0.000 OA
ATOM     19  C   UNL     1      55.927  38.269  75.375  0.00  0.00    +0.000 C 
ENDBRANCH  14  16
ENDBRANCH  11  14
ENDBRANCH   4   8
BRANCH   3  23
ATOM     20  N   UNL     1      58.636  32.954  72.018  0.00  0.00    +0.000 N 
ATOM     21  N   UNL     1      59.676  34.327  73.651  0.00  0.00    +0.000 NA
ATOM     22  N   UNL     1      58.124  35.219  72.112  0.00  0.00    +0.000 NA
ATOM     23  C   UNL     1      59.822  35.547  74.199  0.00  0.00    +0.000 A 
ATOM     24  C   UNL     1      58.826  34.200  72.617  0.00  0.00    +0.000 A 
ATOM     25  C   UNL     1      59.146  36.657  73.745  0.00  0.00    +0.000 A 
ATOM     26  C   UNL     1      58.304  36.420  72.689  0.00  0.00    +0.000 A 
ATOM     27  H   UNL     1      58.161  33.095  71.133  0.00  0.00    +0.000 HD
BRANCH  20  28
ATOM     28  C   UNL     1      59.753  32.019  72.070  0.00  0.00    +0.000 C 
BRANCH  28  29
ATOM     29  C   UNL     1      60.815  31.096  72.247  0.00  0.00    +0.000 C 
ATOM     30  C   UNL     1      60.987  30.479  73.601  0.00  0.00    +0.000 C 
ATOM     31  O   UNL     1      60.920  31.889  69.484  0.00  0.00    +0.000 OA
ATOM     32  N   UNL     1      61.557  30.564  71.247  0.00  0.00    +0.000 N 
ATOM     33  C   UNL     1      61.556  30.940  69.929  0.00  0.00    +0.000 C 
ATOM     34  H   UNL     1      62.143  29.779  71.519  0.00  0.00    +0.000 HD
BRANCH  33  35
ATOM     35  O   UNL     1      62.379  30.106  69.208  0.00  0.00    +0.000 OA
ATOM     36  C   UNL     1      63.438  29.473  69.880  0.00  0.00    +0.000 C 
ENDBRANCH  33  35
ENDBRANCH  28  29
ENDBRANCH  20  28
ENDBRANCH   3  23
BRANCH   1  37
ATOM     37  C   UNL     1      64.139  35.722  76.571  0.00  0.00    +0.000 C 
ATOM     38  C   UNL     1      64.906  34.460  76.926  0.00  0.00    +0.000 C 
ATOM     39  C   UNL     1      64.973  36.975  76.403  0.00  0.00    +0.000 C 
ENDBRANCH   1  37
TORSDOF 8
ENDMDL
MODEL 3
REMARK VINA RESULT:      -7.0      2.308      2.868
REMARK  Name = 50922675_Encorafenib.pdbqt.pdb
REMARK  8 active torsions:
REMARK  status: ('A' for Active; 'I' for Inactive)
REMARK    1  A    between atoms: N_1  and  C_37
REMARK    2  A    between atoms: C_3  and  C_23
REMARK    3  A    between atoms: C_4  and  C_8
REMARK    4  A    between atoms: C_11  and  N_14
REMARK    5  A    between atoms: N_14  and  S_16
REMARK    6  A    between atoms: N_20  and  C_28
REMARK    7  A    between atoms: C_28  and  C_29
REMARK    8  A    between atoms: C_33  and  O_35
REMARK                            x       y       z     vdW  Elec       q    Type
REMARK                         _______ _______ _______ _____ _____    ______ ____
ROOT
ATOM      1  N   UNL     1      62.845  36.188  76.022  0.00  0.00    +0.000 N 
ATOM      2  N   UNL     1      61.758  36.550  76.792  0.00  0.00    +0.000 NA
ATOM      3  C   UNL     1      61.000  35.684  74.820  0.00  0.00    +0.000 A 
ATOM      4  C   UNL     1      60.661  36.225  76.091  0.00  0.00    +0.000 A 
ATOM      5  C   UNL     1      62.375  35.680  74.818  0.00  0.00    +0.000 A 
ENDROOT
BRANCH   4   8
ATOM      6 CL   UNL     1      56.677  39.459  76.537  0.00  0.00    +0.000 Cl
ATOM      7  F   UNL     1      59.319  34.443  77.880  0.00  0.00    +0.000 F 
ATOM      8  C   UNL     1      59.350  36.499  76.666  0.00  0.00    +0.000 A 
ATOM      9  C   UNL     1      58.735  35.608  77.556  0.00  0.00    +0.000 A 
ATOM     10  C   UNL     1      58.709  37.704  76.374  0.00  0.00    +0.000 A 
ATOM     11  C   UNL     1      57.492  35.903  78.125  0.00  0.00    +0.000 A 
ATOM     12  C   UNL     1      57.475  37.998  76.942  0.00  0.00    +0.000 A 
ATOM     13  C   UNL     1      56.871  37.114  77.828  0.00  0.00    +0.000 A 
BRANCH  11  14
ATOM     14  N   UNL     1      56.931  35.023  79.111  0.00  0.00    +0.000 N 
ATOM     15  H   UNL     1      55.910  34.959  79.060  0.00  0.00    +0.000 HD
BRANCH  14  16
ATOM     16  S   UNL     1      57.349  35.272  80.715  0.00  0.00    +0.000 S 
ATOM     17  O   UNL     1      58.699  35.752  80.839  0.00  0.00    +0.000 OA
ATOM     18  O   UNL     1      56.239  35.638  81.567  0.00  0.00    +0.000 OA
ATOM     19  C   UNL     1      57.622  33.657  81.380  0.00  0.00    +0.000 C 
ENDBRANCH  14  16
ENDBRANCH  11  14
ENDBRANCH   4   8
BRANCH   3  23
ATOM     20  N   UNL     1      58.037  36.570  71.211  0.00  0.00    +0.000 N 
ATOM     21  N   UNL     1      59.514  36.095  73.007  0.00  0.00    +0.000 NA
ATOM     22  N   UNL     1      58.683  34.376  71.618  0.00  0.00    +0.000 NA
ATOM     23  C   UNL     1      60.207  35.181  73.711  0.00  0.00    +0.000 A 
ATOM     24  C   UNL     1      58.769  35.661  71.975  0.00  0.00    +0.000 A 
ATOM     25  C   UNL     1      60.179  33.835  73.422  0.00  0.00    +0.000 A 
ATOM     26  C   UNL     1      59.390  33.497  72.352  0.00  0.00    +0.000 A 
ATOM     27  H   UNL     1      57.370  36.052  70.651  0.00  0.00    +0.000 HD
BRANCH  20  28
ATOM     28  C   UNL     1      57.591  37.786  71.880  0.00  0.00    +0.000 C 
BRANCH  28  29
ATOM     29  C   UNL     1      57.281  38.996  72.553  0.00  0.00    +0.000 C 
ATOM     30  C   UNL     1      58.394  39.707  73.261  0.00  0.00    +0.000 C 
ATOM     31  O   UNL     1      54.825  38.128  71.333  0.00  0.00    +0.000 OA
ATOM     32  N   UNL     1      56.116  39.675  72.434  0.00  0.00    +0.000 N 
ATOM     33  C   UNL     1      54.972  39.248  71.812  0.00  0.00    +0.000 C 
ATOM     34  H   UNL     1      56.125  40.614  72.824  0.00  0.00    +0.000 HD
BRANCH  33  35
ATOM     35  O   UNL     1      54.033  40.253  71.826  0.00  0.00    +0.000 OA
ATOM     36  C   UNL     1      52.881  40.099  71.036  0.00  0.00    +0.000 C 
ENDBRANCH  33  35
ENDBRANCH  28  29
ENDBRANCH  20  28
ENDBRANCH   3  23
BRANCH   1  37
ATOM     37  C   UNL     1      64.220  36.302  76.344  0.00  0.00    +0.000 C 
ATOM     38  C   UNL     1      64.916  37.649  76.438  0.00  0.00    +0.000 C 
ATOM     39  C   UNL     1      65.084  35.092  76.633  0.00  0.00    +0.000 C 
ENDBRANCH   1  37
TORSDOF 8
ENDMDL
MODEL 4
REMARK VINA RESULT:      -6.2      4.594      6.641
REMARK  Name = 50922675_Encorafenib.pdbqt.pdb
REMARK  8 active torsions:
REMARK  status: ('A' for Active; 'I' for Inactive)
REMARK    1  A    between atoms: N_1  and  C_37
REMARK    2  A    between atoms: C_3  and  C_23
REMARK    3  A    between atoms: C_4  and  C_8
REMARK    4  A    between atoms: C_11  and  N_14
REMARK    5  A    between atoms: N_14  and  S_16
REMARK    6  A    between atoms: N_20  and  C_28
REMARK    7  A    between atoms: C_28  and  C_29
REMARK    8  A    between atoms: C_33  and  O_35
REMARK                            x       y       z     vdW  Elec       q    Type
REMARK                         _______ _______ _______ _____ _____    ______ ____
ROOT
ATOM      1  N   UNL     1      62.149  37.430  74.948  0.00  0.00    +0.000 N 
ATOM      2  N   UNL     1      61.145  37.525  75.890  0.00  0.00    +0.000 NA
ATOM      3  C   UNL     1      60.544  35.965  74.336  0.00  0.00    +0.000 A 
ATOM      4  C   UNL     1      60.203  36.634  75.544  0.00  0.00    +0.000 A 
ATOM      5  C   UNL     1      61.767  36.493  73.998  0.00  0.00    +0.000 A 
ENDROOT
BRANCH   4   8
ATOM      6 CL   UNL     1      55.672  38.618  76.982  0.00  0.00    +0.000 Cl
ATOM      7  F   UNL     1      59.768  34.493  77.389  0.00  0.00    +0.000 F 
ATOM      8  C   UNL     1      59.008  36.514  76.369  0.00  0.00    +0.000 A 
ATOM      9  C   UNL     1      58.842  35.460  77.277  0.00  0.00    +0.000 A 
ATOM     10  C   UNL     1      58.024  37.503  76.302  0.00  0.00    +0.000 A 
ATOM     11  C   UNL     1      57.704  35.380  78.086  0.00  0.00    +0.000 A 
ATOM     12  C   UNL     1      56.895  37.424  77.109  0.00  0.00    +0.000 A 
ATOM     13  C   UNL     1      56.737  36.379  78.012  0.00  0.00    +0.000 A 
BRANCH  11  14
ATOM     14  N   UNL     1      57.605  34.347  79.079  0.00  0.00    +0.000 N 
ATOM     15  H   UNL     1      56.646  34.191  79.403  0.00  0.00    +0.000 HD
BRANCH  14  16
ATOM     16  S   UNL     1      58.590  34.461  80.430  0.00  0.00    +0.000 S 
ATOM     17  O   UNL     1      59.710  33.563  80.342  0.00  0.00    +0.000 OA
ATOM     18  O   UNL     1      58.600  35.768  81.049  0.00  0.00    +0.000 OA
ATOM     19  C   UNL     1      57.719  33.611  81.712  0.00  0.00    +0.000 C 
ENDBRANCH  14  16
ENDBRANCH  11  14
ENDBRANCH   4   8
BRANCH   3  23
ATOM     20  N   UNL     1      60.700  31.637  72.376  0.00  0.00    +0.000 N 
ATOM     21  N   UNL     1      60.592  33.803  73.341  0.00  0.00    +0.000 NA
ATOM     22  N   UNL     1      58.782  32.921  72.108  0.00  0.00    +0.000 NA
ATOM     23  C   UNL     1      59.887  34.929  73.554  0.00  0.00    +0.000 A 
ATOM     24  C   UNL     1      60.013  32.827  72.620  0.00  0.00    +0.000 A 
ATOM     25  C   UNL     1      58.615  35.121  73.065  0.00  0.00    +0.000 A 
ATOM     26  C   UNL     1      58.116  34.066  72.344  0.00  0.00    +0.000 A 
ATOM     27  H   UNL     1      60.218  31.136  71.638  0.00  0.00    +0.000 HD
BRANCH  20  28
ATOM     28  C   UNL     1      62.156  31.712  72.334  0.00  0.00    +0.000 C 
BRANCH  28  29
ATOM     29  C   UNL     1      63.571  31.743  72.415  0.00  0.00    +0.000 C 
ATOM     30  C   UNL     1      64.200  32.807  73.262  0.00  0.00    +0.000 C 
ATOM     31  O   UNL     1      62.932  29.490  70.745  0.00  0.00    +0.000 OA
ATOM     32  N   UNL     1      64.396  30.768  71.967  0.00  0.00    +0.000 N 
ATOM     33  C   UNL     1      64.053  29.684  71.202  0.00  0.00    +0.000 C 
ATOM     34  H   UNL     1      65.362  30.850  72.271  0.00  0.00    +0.000 HD
BRANCH  33  35
ATOM     35  O   UNL     1      65.152  28.876  71.023  0.00  0.00    +0.000 OA
ATOM     36  C   UNL     1      66.388  29.311  71.530  0.00  0.00    +0.000 C 
ENDBRANCH  33  35
ENDBRANCH  28  29
ENDBRANCH  20  28
ENDBRANCH   3  23
BRANCH   1  37
ATOM     37  C   UNL     1      63.371  38.146  74.900  0.00  0.00    +0.000 C 
ATOM     38  C   UNL     1      63.781  38.958  73.683  0.00  0.00    +0.000 C 
ATOM     39  C   UNL     1      64.342  38.165  76.062  0.00  0.00    +0.000 C 
ENDBRANCH   1  37
TORSDOF 8
ENDMDL
MODEL 5
REMARK VINA RESULT:      -6.0      3.304      5.314
REMARK  Name = 50922675_Encorafenib.pdbqt.pdb
REMARK  8 active torsions:
REMARK  status: ('A' for Active; 'I' for Inactive)
REMARK    1  A    between atoms: N_1  and  C_37
REMARK    2  A    between atoms: C_3  and  C_23
REMARK    3  A    between atoms: C_4  and  C_8
REMARK    4  A    between atoms: C_11  and  N_14
REMARK    5  A    between atoms: N_14  and  S_16
REMARK    6  A    between atoms: N_20  and  C_28
REMARK    7  A    between atoms: C_28  and  C_29
REMARK    8  A    between atoms: C_33  and  O_35
REMARK                            x       y       z     vdW  Elec       q    Type
REMARK                         _______ _______ _______ _____ _____    ______ ____
ROOT
ATOM      1  N   UNL     1      62.583  35.437  76.194  0.00  0.00    +0.000 N 
ATOM      2  N   UNL     1      61.526  36.148  76.726  0.00  0.00    +0.000 NA
ATOM      3  C   UNL     1      60.774  34.953  74.932  0.00  0.00    +0.000 A 
ATOM      4  C   UNL     1      60.444  35.840  75.994  0.00  0.00    +0.000 A 
ATOM      5  C   UNL     1      62.120  34.728  75.093  0.00  0.00    +0.000 A 
ENDROOT
BRANCH   4   8
ATOM      6 CL   UNL     1      56.036  35.572  78.643  0.00  0.00    +0.000 Cl
ATOM      7  F   UNL     1      59.539  38.313  74.880  0.00  0.00    +0.000 F 
ATOM      8  C   UNL     1      59.166  36.454  76.332  0.00  0.00    +0.000 A 
ATOM      9  C   UNL     1      58.750  37.657  75.747  0.00  0.00    +0.000 A 
ATOM     10  C   UNL     1      58.304  35.803  77.215  0.00  0.00    +0.000 A 
ATOM     11  C   UNL     1      57.505  38.215  76.057  0.00  0.00    +0.000 A 
ATOM     12  C   UNL     1      57.065  36.356  77.521  0.00  0.00    +0.000 A 
ATOM     13  C   UNL     1      56.654  37.547  76.935  0.00  0.00    +0.000 A 
BRANCH  11  14
ATOM     14  N   UNL     1      57.059  39.394  75.369  0.00  0.00    +0.000 N 
ATOM     15  H   UNL     1      56.568  40.054  75.979  0.00  0.00    +0.000 HD
BRANCH  14  16
ATOM     16  S   UNL     1      56.139  39.193  73.984  0.00  0.00    +0.000 S 
ATOM     17  O   UNL     1      55.756  37.819  73.801  0.00  0.00    +0.000 OA
ATOM     18  O   UNL     1      55.345  40.347  73.627  0.00  0.00    +0.000 OA
ATOM     19  C   UNL     1      57.289  39.288  72.645  0.00  0.00    +0.000 C 
ENDBRANCH  14  16
ENDBRANCH  11  14
ENDBRANCH   4   8
BRANCH   3  23
ATOM     20  N   UNL     1      60.343  31.502  71.693  0.00  0.00    +0.000 N 
ATOM     21  N   UNL     1      60.529  33.239  73.300  0.00  0.00    +0.000 NA
ATOM     22  N   UNL     1      58.631  33.057  71.909  0.00  0.00    +0.000 NA
ATOM     23  C   UNL     1      59.988  34.324  73.883  0.00  0.00    +0.000 A 
ATOM     24  C   UNL     1      59.828  32.634  72.325  0.00  0.00    +0.000 A 
ATOM     25  C   UNL     1      58.764  34.837  73.520  0.00  0.00    +0.000 A 
ATOM     26  C   UNL     1      58.131  34.148  72.517  0.00  0.00    +0.000 A 
ATOM     27  H   UNL     1      59.806  31.335  70.849  0.00  0.00    +0.000 HD
BRANCH  20  28
ATOM     28  C   UNL     1      61.795  31.383  71.631  0.00  0.00    +0.000 C 
BRANCH  28  29
ATOM     29  C   UNL     1      63.212  31.368  71.652  0.00  0.00    +0.000 C 
ATOM     30  C   UNL     1      63.891  30.142  72.182  0.00  0.00    +0.000 C 
ATOM     31  O   UNL     1      62.474  33.891  70.486  0.00  0.00    +0.000 OA
ATOM     32  N   UNL     1      64.008  32.276  71.040  0.00  0.00    +0.000 N 
ATOM     33  C   UNL     1      63.620  33.455  70.459  0.00  0.00    +0.000 C 
ATOM     34  H   UNL     1      64.990  32.019  70.986  0.00  0.00    +0.000 HD
BRANCH  33  35
ATOM     35  O   UNL     1      64.704  34.060  69.867  0.00  0.00    +0.000 OA
ATOM     36  C   UNL     1      65.986  33.566  70.163  0.00  0.00    +0.000 C 
ENDBRANCH  33  35
ENDBRANCH  28  29
ENDBRANCH  20  28
ENDBRANCH   3  23
BRANCH   1  37
ATOM     37  C   UNL     1      63.927  35.405  76.642  0.00  0.00    +0.000 C 
ATOM     38  C   UNL     1      64.534  34.168  77.282  0.00  0.00    +0.000 C 
ATOM     39  C   UNL     1      64.855  36.594  76.497  0.00  0.00    +0.000 C 
ENDBRANCH   1  37
TORSDOF 8
ENDMDL
MODEL 6
REMARK VINA RESULT:      -5.9      4.010      6.026
REMARK  Name = 50922675_Encorafenib.pdbqt.pdb
REMARK  8 active torsions:
REMARK  status: ('A' for Active; 'I' for Inactive)
REMARK    1  A    between atoms: N_1  and  C_37
REMARK    2  A    between atoms: C_3  and  C_23
REMARK    3  A    between atoms: C_4  and  C_8
REMARK    4  A    between atoms: C_11  and  N_14
REMARK    5  A    between atoms: N_14  and  S_16
REMARK    6  A    between atoms: N_20  and  C_28
REMARK    7  A    between atoms: C_28  and  C_29
REMARK    8  A    between atoms: C_33  and  O_35
REMARK                            x       y       z     vdW  Elec       q    Type
REMARK                         _______ _______ _______ _____ _____    ______ ____
ROOT
ATOM      1  N   UNL     1      62.936  35.131  75.813  0.00  0.00    +0.000 N 
ATOM      2  N   UNL     1      62.081  36.190  76.039  0.00  0.00    +0.000 NA
ATOM      3  C   UNL     1      61.090  34.753  74.569  0.00  0.00    +0.000 A 
ATOM      4  C   UNL     1      60.972  35.953  75.323  0.00  0.00    +0.000 A 
ATOM      5  C   UNL     1      62.334  34.272  74.904  0.00  0.00    +0.000 A 
ENDROOT
BRANCH   4   8
ATOM      6 CL   UNL     1      58.756  40.134  73.290  0.00  0.00    +0.000 Cl
ATOM      7  F   UNL     1      58.912  35.916  77.306  0.00  0.00    +0.000 F 
ATOM      8  C   UNL     1      59.882  36.920  75.369  0.00  0.00    +0.000 A 
ATOM      9  C   UNL     1      58.904  36.880  76.370  0.00  0.00    +0.000 A 
ATOM     10  C   UNL     1      59.838  37.950  74.428  0.00  0.00    +0.000 A 
ATOM     11  C   UNL     1      57.884  37.837  76.419  0.00  0.00    +0.000 A 
ATOM     12  C   UNL     1      58.827  38.903  74.479  0.00  0.00    +0.000 A 
ATOM     13  C   UNL     1      57.861  38.863  75.477  0.00  0.00    +0.000 A 
BRANCH  11  14
ATOM     14  N   UNL     1      56.954  37.834  77.513  0.00  0.00    +0.000 N 
ATOM     15  H   UNL     1      57.346  37.440  78.373  0.00  0.00    +0.000 HD
BRANCH  14  16
ATOM     16  S   UNL     1      55.453  37.132  77.265  0.00  0.00    +0.000 S 
ATOM     17  O   UNL     1      55.098  36.251  78.345  0.00  0.00    +0.000 OA
ATOM     18  O   UNL     1      54.534  37.949  76.503  0.00  0.00    +0.000 OA
ATOM     19  C   UNL     1      55.719  35.889  76.037  0.00  0.00    +0.000 C 
ENDBRANCH  14  16
ENDBRANCH  11  14
ENDBRANCH   4   8
BRANCH   3  23
ATOM     20  N   UNL     1      60.242  31.005  71.771  0.00  0.00    +0.000 N 
ATOM     21  N   UNL     1      60.636  32.890  73.159  0.00  0.00    +0.000 NA
ATOM     22  N   UNL     1      58.623  32.661  71.948  0.00  0.00    +0.000 NA
ATOM     23  C   UNL     1      60.194  34.058  73.659  0.00  0.00    +0.000 A 
ATOM     24  C   UNL     1      59.831  32.223  72.313  0.00  0.00    +0.000 A 
ATOM     25  C   UNL     1      58.966  34.593  73.339  0.00  0.00    +0.000 A 
ATOM     26  C   UNL     1      58.223  33.835  72.471  0.00  0.00    +0.000 A 
ATOM     27  H   UNL     1      59.630  30.778  70.996  0.00  0.00    +0.000 HD
BRANCH  20  28
ATOM     28  C   UNL     1      61.677  30.805  71.609  0.00  0.00    +0.000 C 
BRANCH  28  29
ATOM     29  C   UNL     1      63.057  30.641  71.327  0.00  0.00    +0.000 C 
ATOM     30  C   UNL     1      63.966  30.282  72.463  0.00  0.00    +0.000 C 
ATOM     31  O   UNL     1      61.809  31.239  68.806  0.00  0.00    +0.000 OA
ATOM     32  N   UNL     1      63.594  30.572  70.087  0.00  0.00    +0.000 N 
ATOM     33  C   UNL     1      62.960  30.828  68.898  0.00  0.00    +0.000 C 
ATOM     34  H   UNL     1      64.561  30.261  70.054  0.00  0.00    +0.000 HD
BRANCH  33  35
ATOM     35  O   UNL     1      63.814  30.566  67.852  0.00  0.00    +0.000 OA
ATOM     36  C   UNL     1      64.401  31.654  67.184  0.00  0.00    +0.000 C 
ENDBRANCH  33  35
ENDBRANCH  28  29
ENDBRANCH  20  28
ENDBRANCH   3  23
BRANCH   1  37
ATOM     37  C   UNL     1      64.220  34.911  76.371  0.00  0.00    +0.000 C 
ATOM     38  C   UNL     1      64.545  33.665  77.177  0.00  0.00    +0.000 C 
ATOM     39  C   UNL     1      65.360  35.892  76.187  0.00  0.00    +0.000 C 
ENDBRANCH   1  37
TORSDOF 8
ENDMDL
MODEL 7
REMARK VINA RESULT:      -5.5      4.534      7.153
REMARK  Name = 50922675_Encorafenib.pdbqt.pdb
REMARK  8 active torsions:
REMARK  status: ('A' for Active; 'I' for Inactive)
REMARK    1  A    between atoms: N_1  and  C_37
REMARK    2  A    between atoms: C_3  and  C_23
REMARK    3  A    between atoms: C_4  and  C_8
REMARK    4  A    between atoms: C_11  and  N_14
REMARK    5  A    between atoms: N_14  and  S_16
REMARK    6  A    between atoms: N_20  and  C_28
REMARK    7  A    between atoms: C_28  and  C_29
REMARK    8  A    between atoms: C_33  and  O_35
REMARK                            x       y       z     vdW  Elec       q    Type
REMARK                         _______ _______ _______ _____ _____    ______ ____
ROOT
ATOM      1  N   UNL     1      60.584  31.939  70.154  0.00  0.00    +0.000 N 
ATOM      2  N   UNL     1      61.669  32.569  70.728  0.00  0.00    +0.000 NA
ATOM      3  C   UNL     1      59.969  34.079  70.531  0.00  0.00    +0.000 A 
ATOM      4  C   UNL     1      61.296  33.834  70.979  0.00  0.00    +0.000 A 
ATOM      5  C   UNL     1      59.561  32.869  70.021  0.00  0.00    +0.000 A 
ENDROOT
BRANCH   4   8
ATOM      6 CL   UNL     1      65.324  36.986  70.375  0.00  0.00    +0.000 Cl
ATOM      7  F   UNL     1      61.368  34.398  73.781  0.00  0.00    +0.000 F 
ATOM      8  C   UNL     1      62.255  34.744  71.592  0.00  0.00    +0.000 A 
ATOM      9  C   UNL     1      62.271  34.978  72.972  0.00  0.00    +0.000 A 
ATOM     10  C   UNL     1      63.224  35.358  70.796  0.00  0.00    +0.000 A 
ATOM     11  C   UNL     1      63.221  35.828  73.548  0.00  0.00    +0.000 A 
ATOM     12  C   UNL     1      64.171  36.201  71.368  0.00  0.00    +0.000 A 
ATOM     13  C   UNL     1      64.185  36.426  72.740  0.00  0.00    +0.000 A 
BRANCH  11  14
ATOM     14  N   UNL     1      63.280  35.972  74.975  0.00  0.00    +0.000 N 
ATOM     15  H   UNL     1      63.401  36.943  75.277  0.00  0.00    +0.000 HD
BRANCH  14  16
ATOM     16  S   UNL     1      64.385  35.032  75.813  0.00  0.00    +0.000 S 
ATOM     17  O   UNL     1      64.708  33.830  75.093  0.00  0.00    +0.000 OA
ATOM     18  O   UNL     1      65.293  35.787  76.649  0.00  0.00    +0.000 OA
ATOM     19  C   UNL     1      63.459  34.274  77.114  0.00  0.00    +0.000 C 
ENDBRANCH  14  16
ENDBRANCH  11  14
ENDBRANCH   4   8
BRANCH   3  23
ATOM     20  N   UNL     1      58.074  37.650  73.030  0.00  0.00    +0.000 N 
ATOM     21  N   UNL     1      59.002  35.877  71.755  0.00  0.00    +0.000 NA
ATOM     22  N   UNL     1      57.532  37.445  70.781  0.00  0.00    +0.000 NA
ATOM     23  C   UNL     1      59.108  35.250  70.569  0.00  0.00    +0.000 A 
ATOM     24  C   UNL     1      58.212  36.962  71.824  0.00  0.00    +0.000 A 
ATOM     25  C   UNL     1      58.443  35.669  69.439  0.00  0.00    +0.000 A 
ATOM     26  C   UNL     1      57.665  36.785  69.616  0.00  0.00    +0.000 A 
ATOM     27  H   UNL     1      57.278  38.274  72.953  0.00  0.00    +0.000 HD
BRANCH  20  28
ATOM     28  C   UNL     1      58.236  36.876  74.255  0.00  0.00    +0.000 C 
BRANCH  28  29
ATOM     29  C   UNL     1      58.290  36.055  75.410  0.00  0.00    +0.000 C 
ATOM     30  C   UNL     1      59.640  35.718  75.966  0.00  0.00    +0.000 C 
ATOM     31  O   UNL     1      55.495  36.427  74.844  0.00  0.00    +0.000 OA
ATOM     32  N   UNL     1      57.226  35.723  76.178  0.00  0.00    +0.000 N 
ATOM     33  C   UNL     1      55.904  35.948  75.897  0.00  0.00    +0.000 C 
ATOM     34  H   UNL     1      57.458  35.294  77.069  0.00  0.00    +0.000 HD
BRANCH  33  35
ATOM     35  O   UNL     1      55.129  35.546  76.960  0.00  0.00    +0.000 OA
ATOM     36  C   UNL     1      55.705  35.546  78.241  0.00  0.00    +0.000 C 
ENDBRANCH  33  35
ENDBRANCH  28  29
ENDBRANCH  20  28
ENDBRANCH   3  23
BRANCH   1  37
ATOM     37  C   UNL     1      60.477  30.588  69.740  0.00  0.00    +0.000 C 
ATOM     38  C   UNL     1      59.600  30.171  68.572  0.00  0.00    +0.000 C 
ATOM     39  C   UNL     1      61.241  29.472  70.422  0.00  0.00    +0.000 C 
ENDBRANCH   1  37
TORSDOF 8
ENDMDL
MODEL 8
REMARK VINA RESULT:      -5.3      4.548      7.487
REMARK  Name = 50922675_Encorafenib.pdbqt.pdb
REMARK  8 active torsions:
REMARK  status: ('A' for Active; 'I' for Inactive)
REMARK    1  A    between atoms: N_1  and  C_37
REMARK    2  A    between atoms: C_3  and  C_23
REMARK    3  A    between atoms: C_4  and  C_8
REMARK    4  A    between atoms: C_11  and  N_14
REMARK    5  A    between atoms: N_14  and  S_16
REMARK    6  A    between atoms: N_20  and  C_28
REMARK    7  A    between atoms: C_28  and  C_29
REMARK    8  A    between atoms: C_33  and  O_35
REMARK                            x       y       z     vdW  Elec       q    Type
REMARK                         _______ _______ _______ _____ _____    ______ ____
ROOT
ATOM      1  N   UNL     1      60.841  32.915  72.765  0.00  0.00    +0.000 N 
ATOM      2  N   UNL     1      61.906  33.602  73.313  0.00  0.00    +0.000 NA
ATOM      3  C   UNL     1      60.027  34.881  73.520  0.00  0.00    +0.000 A 
ATOM      4  C   UNL     1      61.418  34.758  73.788  0.00  0.00    +0.000 A 
ATOM      5  C   UNL     1      59.707  33.708  72.878  0.00  0.00    +0.000 A 
ENDROOT
BRANCH   4   8
ATOM      6 CL   UNL     1      63.215  39.575  74.101  0.00  0.00    +0.000 Cl
ATOM      7  F   UNL     1      63.266  34.014  75.840  0.00  0.00    +0.000 F 
ATOM      8  C   UNL     1      62.330  35.698  74.429  0.00  0.00    +0.000 A 
ATOM      9  C   UNL     1      63.235  35.289  75.416  0.00  0.00    +0.000 A 
ATOM     10  C   UNL     1      62.348  37.030  74.012  0.00  0.00    +0.000 A 
ATOM     11  C   UNL     1      64.126  36.198  75.996  0.00  0.00    +0.000 A 
ATOM     12  C   UNL     1      63.236  37.932  74.586  0.00  0.00    +0.000 A 
ATOM     13  C   UNL     1      64.136  37.521  75.562  0.00  0.00    +0.000 A 
BRANCH  11  14
ATOM     14  N   UNL     1      65.112  35.733  76.932  0.00  0.00    +0.000 N 
ATOM     15  H   UNL     1      65.271  36.386  77.705  0.00  0.00    +0.000 HD
BRANCH  14  16
ATOM     16  S   UNL     1      66.608  35.274  76.333  0.00  0.00    +0.000 S 
ATOM     17  O   UNL     1      66.479  34.535  75.105  0.00  0.00    +0.000 OA
ATOM     18  O   UNL     1      67.684  36.180  76.665  0.00  0.00    +0.000 OA
ATOM     19  C   UNL     1      67.123  33.926  77.354  0.00  0.00    +0.000 C 
ENDBRANCH  14  16
ENDBRANCH  11  14
ENDBRANCH   4   8
BRANCH   3  23
ATOM     20  N   UNL     1      58.022  37.776  76.713  0.00  0.00    +0.000 N 
ATOM     21  N   UNL     1      59.001  36.341  75.095  0.00  0.00    +0.000 NA
ATOM     22  N   UNL     1      57.255  37.822  74.520  0.00  0.00    +0.000 NA
ATOM     23  C   UNL     1      59.044  35.910  73.821  0.00  0.00    +0.000 A 
ATOM     24  C   UNL     1      58.102  37.291  75.407  0.00  0.00    +0.000 A 
ATOM     25  C   UNL     1      58.211  36.393  72.838  0.00  0.00    +0.000 A 
ATOM     26  C   UNL     1      57.332  37.359  73.259  0.00  0.00    +0.000 A 
ATOM     27  H   UNL     1      57.155  38.292  76.809  0.00  0.00    +0.000 HD
BRANCH  20  28
ATOM     28  C   UNL     1      58.413  36.863  77.781  0.00  0.00    +0.000 C 
BRANCH  28  29
ATOM     29  C   UNL     1      58.753  35.879  78.743  0.00  0.00    +0.000 C 
ATOM     30  C   UNL     1      60.099  35.230  78.635  0.00  0.00    +0.000 C 
ATOM     31  O   UNL     1      56.133  36.816  79.473  0.00  0.00    +0.000 OA
ATOM     32  N   UNL     1      58.055  35.625  79.875  0.00  0.00    +0.000 N 
ATOM     33  C   UNL     1      56.821  36.118  80.211  0.00  0.00    +0.000 C 
ATOM     34  H   UNL     1      58.530  35.032  80.549  0.00  0.00    +0.000 HD
BRANCH  33  35
ATOM     35  O   UNL     1      56.483  35.700  81.477  0.00  0.00    +0.000 OA
ATOM     36  C   UNL     1      57.518  35.356  82.363  0.00  0.00    +0.000 C 
ENDBRANCH  33  35
ENDBRANCH  28  29
ENDBRANCH  20  28
ENDBRANCH   3  23
BRANCH   1  37
ATOM     37  C   UNL     1      60.846  31.631  72.166  0.00  0.00    +0.000 C 
ATOM     38  C   UNL     1      59.620  31.061  71.474  0.00  0.00    +0.000 C 
ATOM     39  C   UNL     1      62.076  30.747  72.160  0.00  0.00    +0.000 C 
ENDBRANCH   1  37
TORSDOF 8
ENDMDL
MODEL 9
REMARK VINA RESULT:      -5.2     57.437     60.262
REMARK  Name = 50922675_Encorafenib.pdbqt.pdb
REMARK  8 active torsions:
REMARK  status: ('A' for Active; 'I' for Inactive)
REMARK    1  A    between atoms: N_1  and  C_37
REMARK    2  A    between atoms: C_3  and  C_23
REMARK    3  A    between atoms: C_4  and  C_8
REMARK    4  A    between atoms: C_11  and  N_14
REMARK    5  A    between atoms: N_14  and  S_16
REMARK    6  A    between atoms: N_20  and  C_28
REMARK    7  A    between atoms: C_28  and  C_29
REMARK    8  A    between atoms: C_33  and  O_35
REMARK                            x       y       z     vdW  Elec       q    Type
REMARK                         _______ _______ _______ _____ _____    ______ ____
ROOT
ATOM      1  N   UNL     1      11.183   5.802 101.860  0.00  0.00    +0.000 N 
ATOM      2  N   UNL     1      11.628   4.529 101.567  0.00  0.00    +0.000 NA
ATOM      3  C   UNL     1      12.623   6.000 100.133  0.00  0.00    +0.000 A 
ATOM      4  C   UNL     1      12.505   4.648 100.558  0.00  0.00    +0.000 A 
ATOM      5  C   UNL     1      11.779   6.687 100.972  0.00  0.00    +0.000 A 
ENDROOT
BRANCH   4   8
ATOM      6 CL   UNL     1      16.721   1.701 100.298  0.00  0.00    +0.000 Cl
ATOM      7  F   UNL     1      11.204   2.815  98.790  0.00  0.00    +0.000 F 
ATOM      8  C   UNL     1      13.143   3.448 100.033  0.00  0.00    +0.000 A 
ATOM      9  C   UNL     1      12.477   2.586  99.152  0.00  0.00    +0.000 A 
ATOM     10  C   UNL     1      14.470   3.173 100.365  0.00  0.00    +0.000 A 
ATOM     11  C   UNL     1      13.117   1.456  98.630  0.00  0.00    +0.000 A 
ATOM     12  C   UNL     1      15.107   2.052  99.844  0.00  0.00    +0.000 A 
ATOM     13  C   UNL     1      14.444   1.203  98.966  0.00  0.00    +0.000 A 
BRANCH  11  14
ATOM     14  N   UNL     1      12.448   0.645  97.651  0.00  0.00    +0.000 N 
ATOM     15  H   UNL     1      12.302  -0.320  97.961  0.00  0.00    +0.000 HD
BRANCH  14  16
ATOM     16  S   UNL     1      13.089   0.596  96.104  0.00  0.00    +0.000 S 
ATOM     17  O   UNL     1      12.793   1.799  95.373  0.00  0.00    +0.000 OA
ATOM     18  O   UNL     1      14.297  -0.190  95.986  0.00  0.00    +0.000 OA
ATOM     19  C   UNL     1      12.026  -0.486  95.196  0.00  0.00    +0.000 C 
ENDBRANCH  14  16
ENDBRANCH  11  14
ENDBRANCH   4   8
BRANCH   3  23
ATOM     20  N   UNL     1      15.697   9.426  98.947  0.00  0.00    +0.000 N 
ATOM     21  N   UNL     1      14.160   7.706  99.506  0.00  0.00    +0.000 NA
ATOM     22  N   UNL     1      14.956   7.965  97.299  0.00  0.00    +0.000 NA
ATOM     23  C   UNL     1      13.422   6.653  99.109  0.00  0.00    +0.000 A 
ATOM     24  C   UNL     1      14.910   8.333  98.583  0.00  0.00    +0.000 A 
ATOM     25  C   UNL     1      13.400   6.203  97.808  0.00  0.00    +0.000 A 
ATOM     26  C   UNL     1      14.199   6.910  96.946  0.00  0.00    +0.000 A 
ATOM     27  H   UNL     1      15.992   9.902  98.102  0.00  0.00    +0.000 HD
BRANCH  20  28
ATOM     28  C   UNL     1      15.235  10.227 100.074  0.00  0.00    +0.000 C 
BRANCH  28  29
ATOM     29  C   UNL     1      14.896  11.071 101.162  0.00  0.00    +0.000 C 
ATOM     30  C   UNL     1      13.711  10.694 101.998  0.00  0.00    +0.000 C 
ATOM     31  O   UNL     1      17.252  12.223  99.981  0.00  0.00    +0.000 OA
ATOM     32  N   UNL     1      15.673  12.071 101.640  0.00  0.00    +0.000 N 
ATOM     33  C   UNL     1      16.814  12.574 101.071  0.00  0.00    +0.000 C 
ATOM     34  H   UNL     1      15.379  12.452 102.535  0.00  0.00    +0.000 HD
BRANCH  33  35
ATOM     35  O   UNL     1      17.366  13.524 101.899  0.00  0.00    +0.000 OA
ATOM     36  C   UNL     1      18.766  13.629 101.951  0.00  0.00    +0.000 C 
ENDBRANCH  33  35
ENDBRANCH  28  29
ENDBRANCH  20  28
ENDBRANCH   3  23
BRANCH   1  37
ATOM     37  C   UNL     1      10.270   6.197 102.870  0.00  0.00    +0.000 C 
ATOM     38  C   UNL     1       8.837   6.588 102.552  0.00  0.00    +0.000 C 
ATOM     39  C   UNL     1      10.655   6.238 104.335  0.00  0.00    +0.000 C 
ENDBRANCH   1  37
TORSDOF 8
ENDMDL
