MODEL 1
REMARK VINA RESULT:      -7.3      0.000      0.000
REMARK  Name = 5109870_Ethoxyphenyl.pdbqt.pdb
REMARK  6 active torsions:
REMARK  status: ('A' for Active; 'I' for Inactive)
REMARK    1  A    between atoms: N_2  and  C_22
REMARK    2  A    between atoms: C_3  and  O_11
REMARK    3  A    between atoms: C_3  and  C_13
REMARK    4  A    between atoms: C_16  and  N_19
REMARK    5  A    between atoms: C_25  and  O_28
REMARK    6  A    between atoms: O_28  and  C_29
REMARK                            x       y       z     vdW  Elec       q    Type
REMARK                         _______ _______ _______ _____ _____    ______ ____
ROOT
ATOM      1  N   UNL     1      57.204  37.762  75.350  0.00  0.00    +0.000 N 
ATOM      2  N   UNL     1      58.444  36.118  74.118  0.00  0.00    +0.000 N 
ATOM      3  C   UNL     1      56.596  36.468  75.741  0.00  0.00    +0.000 C 
ATOM      4  C   UNL     1      58.177  37.467  74.251  0.00  0.00    +0.000 C 
ATOM      5  C   UNL     1      57.498  35.549  75.042  0.00  0.00    +0.000 C 
ATOM      6  C   UNL     1      56.314  38.875  75.023  0.00  0.00    +0.000 C 
ATOM      7  C   UNL     1      58.390  38.404  73.198  0.00  0.00    +0.000 C 
ATOM      8  C   UNL     1      55.939  40.073  74.133  0.00  0.00    +0.000 C 
ATOM      9  C   UNL     1      57.906  39.667  72.469  0.00  0.00    +0.000 C 
ATOM     10  C   UNL     1      56.699  40.505  72.883  0.00  0.00    +0.000 C 
ENDROOT
BRANCH   3  11
ATOM     11  C   UNL     1      56.560  36.301  77.242  0.00  0.00    +0.000 A 
ATOM     12  C   UNL     1      55.748  35.334  77.852  0.00  0.00    +0.000 A 
ATOM     13  C   UNL     1      55.753  35.158  79.233  0.00  0.00    +0.000 A 
ATOM     14  C   UNL     1      56.592  35.950  80.010  0.00  0.00    +0.000 A 
ATOM     15  C   UNL     1      57.423  36.908  79.437  0.00  0.00    +0.000 A 
ATOM     16  C   UNL     1      57.406  37.071  78.055  0.00  0.00    +0.000 A 
BRANCH  14  17
ATOM     17  N   UNL     1      56.602  35.773  81.449  0.00  0.00    +0.000 N 
ATOM     18  O   UNL     1      57.181  34.776  81.901  0.00  0.00    +0.000 OA
ATOM     19  O   UNL     1      56.031  36.631  82.139  0.00  0.00    +0.000 OA
ENDBRANCH  14  17
ENDBRANCH   3  11
BRANCH   2  20
ATOM     20  C   UNL     1      59.091  35.381  73.114  0.00  0.00    +0.000 A 
ATOM     21  C   UNL     1      60.483  35.381  72.974  0.00  0.00    +0.000 A 
ATOM     22  C   UNL     1      61.118  34.627  71.988  0.00  0.00    +0.000 A 
ATOM     23  C   UNL     1      60.368  33.843  71.115  0.00  0.00    +0.000 A 
ATOM     24  C   UNL     1      58.982  33.818  71.242  0.00  0.00    +0.000 A 
ATOM     25  C   UNL     1      58.357  34.576  72.232  0.00  0.00    +0.000 A 
BRANCH  23  26
ATOM     26  O   UNL     1      60.893  33.067  70.114  0.00  0.00    +0.000 OA
BRANCH  26  27
ATOM     27  C   UNL     1      60.571  31.777  70.178  0.00  0.00    +0.000 C 
ATOM     28  C   UNL     1      60.216  30.287  70.256  0.00  0.00    +0.000 C 
ENDBRANCH  26  27
ENDBRANCH  23  26
ENDBRANCH   2  20
BRANCH   3  29
ATOM     29  O   UNL     1      55.290  36.281  75.211  0.00  0.00    +0.000 OA
ATOM     30  H   UNL     1      55.370  36.481  74.264  0.00  0.00    +0.000 HD
ENDBRANCH   3  29
TORSDOF 6
ENDMDL
MODEL 2
REMARK VINA RESULT:      -7.1      3.068      4.297
REMARK  Name = 5109870_Ethoxyphenyl.pdbqt.pdb
REMARK  6 active torsions:
REMARK  status: ('A' for Active; 'I' for Inactive)
REMARK    1  A    between atoms: N_2  and  C_22
REMARK    2  A    between atoms: C_3  and  O_11
REMARK    3  A    between atoms: C_3  and  C_13
REMARK    4  A    between atoms: C_16  and  N_19
REMARK    5  A    between atoms: C_25  and  O_28
REMARK    6  A    between atoms: O_28  and  C_29
REMARK                            x       y       z     vdW  Elec       q    Type
REMARK                         _______ _______ _______ _____ _____    ______ ____
ROOT
ATOM      1  N   UNL     1      61.358  35.466  76.713  0.00  0.00    +0.000 N 
ATOM      2  N   UNL     1      60.553  33.839  75.144  0.00  0.00    +0.000 N 
ATOM      3  C   UNL     1      59.931  35.815  76.513  0.00  0.00    +0.000 C 
ATOM      4  C   UNL     1      61.679  34.387  75.726  0.00  0.00    +0.000 C 
ATOM      5  C   UNL     1      59.521  34.702  75.655  0.00  0.00    +0.000 C 
ATOM      6  C   UNL     1      62.344  36.545  76.700  0.00  0.00    +0.000 C 
ATOM      7  C   UNL     1      62.973  34.307  75.132  0.00  0.00    +0.000 C 
ATOM      8  C   UNL     1      63.712  37.103  76.272  0.00  0.00    +0.000 C 
ATOM      9  C   UNL     1      64.320  34.996  74.860  0.00  0.00    +0.000 C 
ATOM     10  C   UNL     1      64.716  36.373  75.385  0.00  0.00    +0.000 C 
ENDROOT
BRANCH   3  11
ATOM     11  C   UNL     1      59.192  35.909  77.827  0.00  0.00    +0.000 A 
ATOM     12  C   UNL     1      57.912  36.476  77.909  0.00  0.00    +0.000 A 
ATOM     13  C   UNL     1      57.219  36.520  79.116  0.00  0.00    +0.000 A 
ATOM     14  C   UNL     1      57.812  35.976  80.252  0.00  0.00    +0.000 A 
ATOM     15  C   UNL     1      59.074  35.392  80.204  0.00  0.00    +0.000 A 
ATOM     16  C   UNL     1      59.752  35.357  78.989  0.00  0.00    +0.000 A 
BRANCH  14  17
ATOM     17  N   UNL     1      57.098  36.019  81.513  0.00  0.00    +0.000 N 
ATOM     18  O   UNL     1      56.276  36.932  81.677  0.00  0.00    +0.000 OA
ATOM     19  O   UNL     1      57.352  35.141  82.349  0.00  0.00    +0.000 OA
ENDBRANCH  14  17
ENDBRANCH   3  11
BRANCH   2  20
ATOM     20  C   UNL     1      60.383  32.991  74.038  0.00  0.00    +0.000 A 
ATOM     21  C   UNL     1      59.833  33.444  72.834  0.00  0.00    +0.000 A 
ATOM     22  C   UNL     1      59.690  32.600  71.733  0.00  0.00    +0.000 A 
ATOM     23  C   UNL     1      60.106  31.273  71.810  0.00  0.00    +0.000 A 
ATOM     24  C   UNL     1      60.666  30.802  72.994  0.00  0.00    +0.000 A 
ATOM     25  C   UNL     1      60.804  31.655  74.089  0.00  0.00    +0.000 A 
BRANCH  23  26
ATOM     26  O   UNL     1      60.010  30.364  70.789  0.00  0.00    +0.000 OA
BRANCH  26  27
ATOM     27  C   UNL     1      61.149  29.749  70.477  0.00  0.00    +0.000 C 
ATOM     28  C   UNL     1      62.455  29.027  70.127  0.00  0.00    +0.000 C 
ENDBRANCH  26  27
ENDBRANCH  23  26
ENDBRANCH   2  20
BRANCH   3  29
ATOM     29  O   UNL     1      59.748  37.019  75.779  0.00  0.00    +0.000 OA
ATOM     30  H   UNL     1      59.348  36.744  74.938  0.00  0.00    +0.000 HD
ENDBRANCH   3  29
TORSDOF 6
ENDMDL
MODEL 3
REMARK VINA RESULT:      -6.9      2.000      7.915
REMARK  Name = 5109870_Ethoxyphenyl.pdbqt.pdb
REMARK  6 active torsions:
REMARK  status: ('A' for Active; 'I' for Inactive)
REMARK    1  A    between atoms: N_2  and  C_22
REMARK    2  A    between atoms: C_3  and  O_11
REMARK    3  A    between atoms: C_3  and  C_13
REMARK    4  A    between atoms: C_16  and  N_19
REMARK    5  A    between atoms: C_25  and  O_28
REMARK    6  A    between atoms: O_28  and  C_29
REMARK                            x       y       z     vdW  Elec       q    Type
REMARK                         _______ _______ _______ _____ _____    ______ ____
ROOT
ATOM      1  N   UNL     1      57.945  36.686  73.217  0.00  0.00    +0.000 N 
ATOM      2  N   UNL     1      57.743  36.212  75.561  0.00  0.00    +0.000 N 
ATOM      3  C   UNL     1      59.212  36.001  73.569  0.00  0.00    +0.000 C 
ATOM      4  C   UNL     1      57.212  36.921  74.501  0.00  0.00    +0.000 C 
ATOM      5  C   UNL     1      58.926  35.653  74.963  0.00  0.00    +0.000 C 
ATOM      6  C   UNL     1      58.015  37.888  72.387  0.00  0.00    +0.000 C 
ATOM      7  C   UNL     1      56.408  38.086  74.676  0.00  0.00    +0.000 C 
ATOM      8  C   UNL     1      57.561  39.322  72.067  0.00  0.00    +0.000 C 
ATOM      9  C   UNL     1      56.022  39.484  74.167  0.00  0.00    +0.000 C 
ATOM     10  C   UNL     1      56.576  40.134  72.902  0.00  0.00    +0.000 C 
ENDROOT
BRANCH   3  11
ATOM     11  C   UNL     1      59.477  34.822  72.663  0.00  0.00    +0.000 A 
ATOM     12  C   UNL     1      60.698  34.675  71.991  0.00  0.00    +0.000 A 
ATOM     13  C   UNL     1      60.951  33.563  71.191  0.00  0.00    +0.000 A 
ATOM     14  C   UNL     1      59.971  32.581  71.075  0.00  0.00    +0.000 A 
ATOM     15  C   UNL     1      58.754  32.687  71.740  0.00  0.00    +0.000 A 
ATOM     16  C   UNL     1      58.518  33.804  72.535  0.00  0.00    +0.000 A 
BRANCH  14  17
ATOM     17  N   UNL     1      60.226  31.421  70.243  0.00  0.00    +0.000 N 
ATOM     18  O   UNL     1      59.909  30.311  70.692  0.00  0.00    +0.000 OA
ATOM     19  O   UNL     1      60.744  31.611  69.133  0.00  0.00    +0.000 OA
ENDBRANCH  14  17
ENDBRANCH   3  11
BRANCH   2  20
ATOM     20  C   UNL     1      57.534  36.293  76.947  0.00  0.00    +0.000 A 
ATOM     21  C   UNL     1      58.446  36.925  77.799  0.00  0.00    +0.000 A 
ATOM     22  C   UNL     1      58.219  37.021  79.171  0.00  0.00    +0.000 A 
ATOM     23  C   UNL     1      57.057  36.489  79.726  0.00  0.00    +0.000 A 
ATOM     24  C   UNL     1      56.129  35.866  78.897  0.00  0.00    +0.000 A 
ATOM     25  C   UNL     1      56.367  35.775  77.526  0.00  0.00    +0.000 A 
BRANCH  23  26
ATOM     26  O   UNL     1      56.738  36.531  81.059  0.00  0.00    +0.000 OA
BRANCH  26  27
ATOM     27  C   UNL     1      57.337  35.607  81.808  0.00  0.00    +0.000 C 
ATOM     28  C   UNL     1      58.014  34.544  82.681  0.00  0.00    +0.000 C 
ENDBRANCH  26  27
ENDBRANCH  23  26
ENDBRANCH   2  20
BRANCH   3  29
ATOM     29  O   UNL     1      60.338  36.868  73.561  0.00  0.00    +0.000 OA
ATOM     30  H   UNL     1      60.628  36.916  74.486  0.00  0.00    +0.000 HD
ENDBRANCH   3  29
TORSDOF 6
ENDMDL
MODEL 4
REMARK VINA RESULT:      -6.6      2.775      8.465
REMARK  Name = 5109870_Ethoxyphenyl.pdbqt.pdb
REMARK  6 active torsions:
REMARK  status: ('A' for Active; 'I' for Inactive)
REMARK    1  A    between atoms: N_2  and  C_22
REMARK    2  A    between atoms: C_3  and  O_11
REMARK    3  A    between atoms: C_3  and  C_13
REMARK    4  A    between atoms: C_16  and  N_19
REMARK    5  A    between atoms: C_25  and  O_28
REMARK    6  A    between atoms: O_28  and  C_29
REMARK                            x       y       z     vdW  Elec       q    Type
REMARK                         _______ _______ _______ _____ _____    ______ ____
ROOT
ATOM      1  N   UNL     1      58.493  36.418  75.724  0.00  0.00    +0.000 N 
ATOM      2  N   UNL     1      58.451  35.616  77.985  0.00  0.00    +0.000 N 
ATOM      3  C   UNL     1      59.914  36.144  76.048  0.00  0.00    +0.000 C 
ATOM      4  C   UNL     1      57.720  36.240  76.994  0.00  0.00    +0.000 C 
ATOM      5  C   UNL     1      59.754  35.551  77.378  0.00  0.00    +0.000 C 
ATOM      6  C   UNL     1      58.167  37.671  75.044  0.00  0.00    +0.000 C 
ATOM      7  C   UNL     1      56.578  37.049  77.268  0.00  0.00    +0.000 C 
ATOM      8  C   UNL     1      57.269  38.908  74.874  0.00  0.00    +0.000 C 
ATOM      9  C   UNL     1      55.756  38.297  76.909  0.00  0.00    +0.000 C 
ATOM     10  C   UNL     1      56.070  39.245  75.755  0.00  0.00    +0.000 C 
ENDROOT
BRANCH   3  11
ATOM     11  C   UNL     1      60.553  35.238  75.023  0.00  0.00    +0.000 A 
ATOM     12  C   UNL     1      61.919  34.924  75.073  0.00  0.00    +0.000 A 
ATOM     13  C   UNL     1      62.492  34.054  74.149  0.00  0.00    +0.000 A 
ATOM     14  C   UNL     1      61.683  33.481  73.172  0.00  0.00    +0.000 A 
ATOM     15  C   UNL     1      60.321  33.758  73.103  0.00  0.00    +0.000 A 
ATOM     16  C   UNL     1      59.765  34.630  74.034  0.00  0.00    +0.000 A 
BRANCH  14  17
ATOM     17  N   UNL     1      62.273  32.575  72.206  0.00  0.00    +0.000 N 
ATOM     18  O   UNL     1      61.840  31.415  72.169  0.00  0.00    +0.000 OA
ATOM     19  O   UNL     1      63.172  33.017  71.476  0.00  0.00    +0.000 OA
ENDBRANCH  14  17
ENDBRANCH   3  11
BRANCH   2  20
ATOM     20  C   UNL     1      58.223  35.452  79.361  0.00  0.00    +0.000 A 
ATOM     21  C   UNL     1      57.333  36.267  80.068  0.00  0.00    +0.000 A 
ATOM     22  C   UNL     1      57.096  36.081  81.430  0.00  0.00    +0.000 A 
ATOM     23  C   UNL     1      57.745  35.059  82.119  0.00  0.00    +0.000 A 
ATOM     24  C   UNL     1      58.627  34.228  81.434  0.00  0.00    +0.000 A 
ATOM     25  C   UNL     1      58.856  34.423  80.072  0.00  0.00    +0.000 A 
BRANCH  23  26
ATOM     26  O   UNL     1      57.583  34.792  83.454  0.00  0.00    +0.000 OA
BRANCH  26  27
ATOM     27  C   UNL     1      57.789  35.829  84.262  0.00  0.00    +0.000 C 
ATOM     28  C   UNL     1      58.037  37.014  85.203  0.00  0.00    +0.000 C 
ENDBRANCH  26  27
ENDBRANCH  23  26
ENDBRANCH   2  20
BRANCH   3  29
ATOM     29  O   UNL     1      60.693  37.324  76.190  0.00  0.00    +0.000 OA
ATOM     30  H   UNL     1      60.707  37.506  77.144  0.00  0.00    +0.000 HD
ENDBRANCH   3  29
TORSDOF 6
ENDMDL
MODEL 5
REMARK VINA RESULT:      -6.5      3.009      6.710
REMARK  Name = 5109870_Ethoxyphenyl.pdbqt.pdb
REMARK  6 active torsions:
REMARK  status: ('A' for Active; 'I' for Inactive)
REMARK    1  A    between atoms: N_2  and  C_22
REMARK    2  A    between atoms: C_3  and  O_11
REMARK    3  A    between atoms: C_3  and  C_13
REMARK    4  A    between atoms: C_16  and  N_19
REMARK    5  A    between atoms: C_25  and  O_28
REMARK    6  A    between atoms: O_28  and  C_29
REMARK                            x       y       z     vdW  Elec       q    Type
REMARK                         _______ _______ _______ _____ _____    ______ ____
ROOT
ATOM      1  N   UNL     1      58.086  36.631  73.311  0.00  0.00    +0.000 N 
ATOM      2  N   UNL     1      57.269  38.886  73.361  0.00  0.00    +0.000 N 
ATOM      3  C   UNL     1      58.912  37.303  74.343  0.00  0.00    +0.000 C 
ATOM      4  C   UNL     1      57.258  37.695  72.661  0.00  0.00    +0.000 C 
ATOM      5  C   UNL     1      58.251  38.610  74.376  0.00  0.00    +0.000 C 
ATOM      6  C   UNL     1      58.758  35.774  72.335  0.00  0.00    +0.000 C 
ATOM      7  C   UNL     1      56.928  37.616  71.277  0.00  0.00    +0.000 C 
ATOM      8  C   UNL     1      58.943  35.281  70.890  0.00  0.00    +0.000 C 
ATOM      9  C   UNL     1      57.197  36.955  69.915  0.00  0.00    +0.000 C 
ATOM     10  C   UNL     1      58.188  35.819  69.678  0.00  0.00    +0.000 C 
ENDROOT
BRANCH   3  11
ATOM     11  C   UNL     1      58.890  36.548  75.651  0.00  0.00    +0.000 A 
ATOM     12  C   UNL     1      60.070  36.076  76.244  0.00  0.00    +0.000 A 
ATOM     13  C   UNL     1      60.047  35.420  77.471  0.00  0.00    +0.000 A 
ATOM     14  C   UNL     1      58.827  35.245  78.118  0.00  0.00    +0.000 A 
ATOM     15  C   UNL     1      57.638  35.714  77.566  0.00  0.00    +0.000 A 
ATOM     16  C   UNL     1      57.680  36.369  76.339  0.00  0.00    +0.000 A 
BRANCH  14  17
ATOM     17  N   UNL     1      58.793  34.561  79.396  0.00  0.00    +0.000 N 
ATOM     18  O   UNL     1      57.683  34.311  79.884  0.00  0.00    +0.000 OA
ATOM     19  O   UNL     1      59.877  34.267  79.919  0.00  0.00    +0.000 OA
ENDBRANCH  14  17
ENDBRANCH   3  11
BRANCH   2  20
ATOM     20  C   UNL     1      56.839  40.180  73.024  0.00  0.00    +0.000 A 
ATOM     21  C   UNL     1      57.681  41.099  72.390  0.00  0.00    +0.000 A 
ATOM     22  C   UNL     1      57.237  42.374  72.039  0.00  0.00    +0.000 A 
ATOM     23  C   UNL     1      55.926  42.758  72.310  0.00  0.00    +0.000 A 
ATOM     24  C   UNL     1      55.067  41.856  72.930  0.00  0.00    +0.000 A 
ATOM     25  C   UNL     1      55.521  40.584  73.278  0.00  0.00    +0.000 A 
BRANCH  23  26
ATOM     26  O   UNL     1      55.392  43.984  72.006  0.00  0.00    +0.000 OA
BRANCH  26  27
ATOM     27  C   UNL     1      54.770  44.589  73.014  0.00  0.00    +0.000 C 
ATOM     28  C   UNL     1      54.043  45.295  74.165  0.00  0.00    +0.000 C 
ENDBRANCH  26  27
ENDBRANCH  23  26
ENDBRANCH   2  20
BRANCH   3  29
ATOM     29  O   UNL     1      60.259  37.508  73.935  0.00  0.00    +0.000 OA
ATOM     30  H   UNL     1      60.200  38.050  73.131  0.00  0.00    +0.000 HD
ENDBRANCH   3  29
TORSDOF 6
ENDMDL
MODEL 6
REMARK VINA RESULT:      -5.8     42.760     45.770
REMARK  Name = 5109870_Ethoxyphenyl.pdbqt.pdb
REMARK  6 active torsions:
REMARK  status: ('A' for Active; 'I' for Inactive)
REMARK    1  A    between atoms: N_2  and  C_22
REMARK    2  A    between atoms: C_3  and  O_11
REMARK    3  A    between atoms: C_3  and  C_13
REMARK    4  A    between atoms: C_16  and  N_19
REMARK    5  A    between atoms: C_25  and  O_28
REMARK    6  A    between atoms: O_28  and  C_29
REMARK                            x       y       z     vdW  Elec       q    Type
REMARK                         _______ _______ _______ _____ _____    ______ ____
ROOT
ATOM      1  N   UNL     1      17.528  19.010  89.226  0.00  0.00    +0.000 N 
ATOM      2  N   UNL     1      19.511  18.535  90.491  0.00  0.00    +0.000 N 
ATOM      3  C   UNL     1      18.477  18.449  88.234  0.00  0.00    +0.000 C 
ATOM      4  C   UNL     1      18.292  19.184  90.502  0.00  0.00    +0.000 C 
ATOM      5  C   UNL     1      19.581  18.086  89.125  0.00  0.00    +0.000 C 
ATOM      6  C   UNL     1      16.771  20.207  88.862  0.00  0.00    +0.000 C 
ATOM      7  C   UNL     1      18.002  20.268  91.381  0.00  0.00    +0.000 C 
ATOM      8  C   UNL     1      16.200  21.590  89.218  0.00  0.00    +0.000 C 
ATOM      9  C   UNL     1      17.298  21.620  91.584  0.00  0.00    +0.000 C 
ATOM     10  C   UNL     1      16.420  22.311  90.544  0.00  0.00    +0.000 C 
ENDROOT
BRANCH   3  11
ATOM     11  C   UNL     1      17.869  17.294  87.474  0.00  0.00    +0.000 A 
ATOM     12  C   UNL     1      17.158  17.495  86.282  0.00  0.00    +0.000 A 
ATOM     13  C   UNL     1      16.638  16.421  85.564  0.00  0.00    +0.000 A 
ATOM     14  C   UNL     1      16.844  15.130  86.040  0.00  0.00    +0.000 A 
ATOM     15  C   UNL     1      17.558  14.893  87.211  0.00  0.00    +0.000 A 
ATOM     16  C   UNL     1      18.072  15.978  87.916  0.00  0.00    +0.000 A 
BRANCH  14  17
ATOM     17  N   UNL     1      16.304  14.007  85.300  0.00  0.00    +0.000 N 
ATOM     18  O   UNL     1      16.721  13.826  84.147  0.00  0.00    +0.000 OA
ATOM     19  O   UNL     1      15.461  13.296  85.865  0.00  0.00    +0.000 OA
ENDBRANCH  14  17
ENDBRANCH   3  11
BRANCH   2  20
ATOM     20  C   UNL     1      20.623  18.606  91.345  0.00  0.00    +0.000 A 
ATOM     21  C   UNL     1      21.778  19.315  91.002  0.00  0.00    +0.000 A 
ATOM     22  C   UNL     1      22.869  19.399  91.867  0.00  0.00    +0.000 A 
ATOM     23  C   UNL     1      22.823  18.776  93.112  0.00  0.00    +0.000 A 
ATOM     24  C   UNL     1      21.679  18.074  93.481  0.00  0.00    +0.000 A 
ATOM     25  C   UNL     1      20.594  17.996  92.607  0.00  0.00    +0.000 A 
BRANCH  23  26
ATOM     26  O   UNL     1      23.837  18.798  94.035  0.00  0.00    +0.000 OA
BRANCH  26  27
ATOM     27  C   UNL     1      23.471  19.164  95.261  0.00  0.00    +0.000 C 
ATOM     28  C   UNL     1      23.034  19.587  96.668  0.00  0.00    +0.000 C 
ENDBRANCH  26  27
ENDBRANCH  23  26
ENDBRANCH   2  20
BRANCH   3  29
ATOM     29  O   UNL     1      18.963  19.419  87.315  0.00  0.00    +0.000 OA
ATOM     30  H   UNL     1      18.414  20.207  87.465  0.00  0.00    +0.000 HD
ENDBRANCH   3  29
TORSDOF 6
ENDMDL
MODEL 7
REMARK VINA RESULT:      -5.7      5.285      8.747
REMARK  Name = 5109870_Ethoxyphenyl.pdbqt.pdb
REMARK  6 active torsions:
REMARK  status: ('A' for Active; 'I' for Inactive)
REMARK    1  A    between atoms: N_2  and  C_22
REMARK    2  A    between atoms: C_3  and  O_11
REMARK    3  A    between atoms: C_3  and  C_13
REMARK    4  A    between atoms: C_16  and  N_19
REMARK    5  A    between atoms: C_25  and  O_28
REMARK    6  A    between atoms: O_28  and  C_29
REMARK                            x       y       z     vdW  Elec       q    Type
REMARK                         _______ _______ _______ _____ _____    ______ ____
ROOT
ATOM      1  N   UNL     1      62.553  34.657  74.923  0.00  0.00    +0.000 N 
ATOM      2  N   UNL     1      60.922  35.229  76.588  0.00  0.00    +0.000 N 
ATOM      3  C   UNL     1      63.246  35.625  75.806  0.00  0.00    +0.000 C 
ATOM      4  C   UNL     1      61.122  34.619  75.365  0.00  0.00    +0.000 C 
ATOM      5  C   UNL     1      62.219  35.802  76.835  0.00  0.00    +0.000 C 
ATOM      6  C   UNL     1      62.684  34.821  73.476  0.00  0.00    +0.000 C 
ATOM      7  C   UNL     1      60.074  34.420  74.419  0.00  0.00    +0.000 C 
ATOM      8  C   UNL     1      62.067  34.823  72.067  0.00  0.00    +0.000 C 
ATOM      9  C   UNL     1      59.648  34.392  72.943  0.00  0.00    +0.000 C 
ATOM     10  C   UNL     1      60.589  34.601  71.760  0.00  0.00    +0.000 C 
ENDROOT
BRANCH   3  11
ATOM     11  C   UNL     1      64.560  35.077  76.310  0.00  0.00    +0.000 A 
ATOM     12  C   UNL     1      65.779  35.699  76.004  0.00  0.00    +0.000 A 
ATOM     13  C   UNL     1      66.982  35.212  76.508  0.00  0.00    +0.000 A 
ATOM     14  C   UNL     1      66.962  34.095  77.338  0.00  0.00    +0.000 A 
ATOM     15  C   UNL     1      65.769  33.462  77.674  0.00  0.00    +0.000 A 
ATOM     16  C   UNL     1      64.575  33.962  77.162  0.00  0.00    +0.000 A 
BRANCH  14  17
ATOM     17  N   UNL     1      68.210  33.581  77.865  0.00  0.00    +0.000 N 
ATOM     18  O   UNL     1      68.283  32.364  78.085  0.00  0.00    +0.000 OA
ATOM     19  O   UNL     1      69.129  34.390  78.062  0.00  0.00    +0.000 OA
ENDBRANCH  14  17
ENDBRANCH   3  11
BRANCH   2  20
ATOM     20  C   UNL     1      59.755  35.621  77.264  0.00  0.00    +0.000 A 
ATOM     21  C   UNL     1      59.002  36.729  76.862  0.00  0.00    +0.000 A 
ATOM     22  C   UNL     1      57.832  37.097  77.527  0.00  0.00    +0.000 A 
ATOM     23  C   UNL     1      57.381  36.351  78.613  0.00  0.00    +0.000 A 
ATOM     24  C   UNL     1      58.108  35.238  79.024  0.00  0.00    +0.000 A 
ATOM     25  C   UNL     1      59.277  34.879  78.352  0.00  0.00    +0.000 A 
BRANCH  23  26
ATOM     26  O   UNL     1      56.246  36.626  79.332  0.00  0.00    +0.000 OA
BRANCH  26  27
ATOM     27  C   UNL     1      56.403  36.612  80.654  0.00  0.00    +0.000 C 
ATOM     28  C   UNL     1      56.601  36.599  82.174  0.00  0.00    +0.000 C 
ENDBRANCH  26  27
ENDBRANCH  23  26
ENDBRANCH   2  20
BRANCH   3  29
ATOM     29  O   UNL     1      63.464  36.888  75.189  0.00  0.00    +0.000 OA
ATOM     30  H   UNL     1      64.423  36.936  75.044  0.00  0.00    +0.000 HD
ENDBRANCH   3  29
TORSDOF 6
ENDMDL
MODEL 8
REMARK VINA RESULT:      -5.6     57.393     58.953
REMARK  Name = 5109870_Ethoxyphenyl.pdbqt.pdb
REMARK  6 active torsions:
REMARK  status: ('A' for Active; 'I' for Inactive)
REMARK    1  A    between atoms: N_2  and  C_22
REMARK    2  A    between atoms: C_3  and  O_11
REMARK    3  A    between atoms: C_3  and  C_13
REMARK    4  A    between atoms: C_16  and  N_19
REMARK    5  A    between atoms: C_25  and  O_28
REMARK    6  A    between atoms: O_28  and  C_29
REMARK                            x       y       z     vdW  Elec       q    Type
REMARK                         _______ _______ _______ _____ _____    ______ ____
ROOT
ATOM      1  N   UNL     1      13.568   8.271 101.325  0.00  0.00    +0.000 N 
ATOM      2  N   UNL     1      13.027   6.632  99.657  0.00  0.00    +0.000 N 
ATOM      3  C   UNL     1      13.097   9.063 100.164  0.00  0.00    +0.000 C 
ATOM      4  C   UNL     1      13.656   6.847 100.868  0.00  0.00    +0.000 C 
ATOM      5  C   UNL     1      12.683   7.976  99.274  0.00  0.00    +0.000 C 
ATOM      6  C   UNL     1      14.778   8.709 102.018  0.00  0.00    +0.000 C 
ATOM      7  C   UNL     1      14.668   5.982 101.378  0.00  0.00    +0.000 C 
ATOM      8  C   UNL     1      16.123   8.393 102.695  0.00  0.00    +0.000 C 
ATOM      9  C   UNL     1      15.991   5.846 102.149  0.00  0.00    +0.000 C 
ATOM     10  C   UNL     1      16.746   7.004 102.796  0.00  0.00    +0.000 C 
ENDROOT
BRANCH   3  11
ATOM     11  C   UNL     1      11.994  10.018 100.553  0.00  0.00    +0.000 A 
ATOM     12  C   UNL     1      10.651   9.615 100.581  0.00  0.00    +0.000 A 
ATOM     13  C   UNL     1       9.645  10.490 100.983  0.00  0.00    +0.000 A 
ATOM     14  C   UNL     1       9.991  11.780 101.374  0.00  0.00    +0.000 A 
ATOM     15  C   UNL     1      11.315  12.208 101.374  0.00  0.00    +0.000 A 
ATOM     16  C   UNL     1      12.308  11.321 100.970  0.00  0.00    +0.000 A 
BRANCH  14  17
ATOM     17  N   UNL     1       8.949  12.697 101.792  0.00  0.00    +0.000 N 
ATOM     18  O   UNL     1       9.299  13.763 102.318  0.00  0.00    +0.000 OA
ATOM     19  O   UNL     1       7.772  12.360 101.597  0.00  0.00    +0.000 OA
ENDBRANCH  14  17
ENDBRANCH   3  11
BRANCH   2  20
ATOM     20  C   UNL     1      13.050   5.549  98.765  0.00  0.00    +0.000 A 
ATOM     21  C   UNL     1      13.890   5.525  97.648  0.00  0.00    +0.000 A 
ATOM     22  C   UNL     1      13.922   4.433  96.780  0.00  0.00    +0.000 A 
ATOM     23  C   UNL     1      13.110   3.327  97.018  0.00  0.00    +0.000 A 
ATOM     24  C   UNL     1      12.273   3.323  98.129  0.00  0.00    +0.000 A 
ATOM     25  C   UNL     1      12.250   4.420  98.991  0.00  0.00    +0.000 A 
BRANCH  23  26
ATOM     26  O   UNL     1      13.066   2.206  96.229  0.00  0.00    +0.000 OA
BRANCH  26  27
ATOM     27  C   UNL     1      13.126   2.440  94.920  0.00  0.00    +0.000 C 
ATOM     28  C   UNL     1      13.185   2.696  93.410  0.00  0.00    +0.000 C 
ENDBRANCH  26  27
ENDBRANCH  23  26
ENDBRANCH   2  20
BRANCH   3  29
ATOM     29  O   UNL     1      14.140   9.780  99.516  0.00  0.00    +0.000 OA
ATOM     30  H   UNL     1      14.958   9.482  99.947  0.00  0.00    +0.000 HD
ENDBRANCH   3  29
TORSDOF 6
ENDMDL
MODEL 9
REMARK VINA RESULT:      -5.6      4.401      8.054
REMARK  Name = 5109870_Ethoxyphenyl.pdbqt.pdb
REMARK  6 active torsions:
REMARK  status: ('A' for Active; 'I' for Inactive)
REMARK    1  A    between atoms: N_2  and  C_22
REMARK    2  A    between atoms: C_3  and  O_11
REMARK    3  A    between atoms: C_3  and  C_13
REMARK    4  A    between atoms: C_16  and  N_19
REMARK    5  A    between atoms: C_25  and  O_28
REMARK    6  A    between atoms: O_28  and  C_29
REMARK                            x       y       z     vdW  Elec       q    Type
REMARK                         _______ _______ _______ _____ _____    ______ ____
ROOT
ATOM      1  N   UNL     1      61.831  33.431  73.704  0.00  0.00    +0.000 N 
ATOM      2  N   UNL     1      60.191  35.069  74.327  0.00  0.00    +0.000 N 
ATOM      3  C   UNL     1      62.619  34.647  74.017  0.00  0.00    +0.000 C 
ATOM      4  C   UNL     1      60.388  33.830  73.748  0.00  0.00    +0.000 C 
ATOM      5  C   UNL     1      61.546  35.521  74.497  0.00  0.00    +0.000 C 
ATOM      6  C   UNL     1      62.165  32.681  72.494  0.00  0.00    +0.000 C 
ATOM      7  C   UNL     1      59.440  33.228  72.869  0.00  0.00    +0.000 C 
ATOM      8  C   UNL     1      61.733  31.912  71.234  0.00  0.00    +0.000 C 
ATOM      9  C   UNL     1      59.195  32.372  71.616  0.00  0.00    +0.000 C 
ATOM     10  C   UNL     1      60.291  31.723  70.776  0.00  0.00    +0.000 C 
ENDROOT
BRANCH   3  11
ATOM     11  C   UNL     1      63.705  34.362  75.028  0.00  0.00    +0.000 A 
ATOM     12  C   UNL     1      65.054  34.291  74.653  0.00  0.00    +0.000 A 
ATOM     13  C   UNL     1      66.053  34.070  75.597  0.00  0.00    +0.000 A 
ATOM     14  C   UNL     1      65.696  33.932  76.935  0.00  0.00    +0.000 A 
ATOM     15  C   UNL     1      64.368  34.012  77.345  0.00  0.00    +0.000 A 
ATOM     16  C   UNL     1      63.382  34.234  76.388  0.00  0.00    +0.000 A 
BRANCH  14  17
ATOM     17  N   UNL     1      66.730  33.700  77.924  0.00  0.00    +0.000 N 
ATOM     18  O   UNL     1      66.478  32.908  78.844  0.00  0.00    +0.000 OA
ATOM     19  O   UNL     1      67.802  34.306  77.789  0.00  0.00    +0.000 OA
ENDBRANCH  14  17
ENDBRANCH   3  11
BRANCH   2  20
ATOM     20  C   UNL     1      59.074  35.918  74.374  0.00  0.00    +0.000 A 
ATOM     21  C   UNL     1      58.224  35.965  75.483  0.00  0.00    +0.000 A 
ATOM     22  C   UNL     1      57.130  36.829  75.530  0.00  0.00    +0.000 A 
ATOM     23  C   UNL     1      56.865  37.680  74.459  0.00  0.00    +0.000 A 
ATOM     24  C   UNL     1      57.703  37.660  73.349  0.00  0.00    +0.000 A 
ATOM     25  C   UNL     1      58.795  36.791  73.313  0.00  0.00    +0.000 A 
BRANCH  23  26
ATOM     26  O   UNL     1      55.820  38.566  74.406  0.00  0.00    +0.000 OA
BRANCH  26  27
ATOM     27  C   UNL     1      55.700  39.357  75.469  0.00  0.00    +0.000 C 
ATOM     28  C   UNL     1      55.579  40.271  76.694  0.00  0.00    +0.000 C 
ENDBRANCH  26  27
ENDBRANCH  23  26
ENDBRANCH   2  20
BRANCH   3  29
ATOM     29  O   UNL     1      63.190  35.255  72.865  0.00  0.00    +0.000 OA
ATOM     30  H   UNL     1      63.260  36.199  73.085  0.00  0.00    +0.000 HD
ENDBRANCH   3  29
TORSDOF 6
ENDMDL
