MODEL 1
REMARK VINA RESULT:      -7.6      0.000      0.000
REMARK  Name = 5280445_Luteolin.pdbqt.pdb
REMARK  5 active torsions:
REMARK  status: ('A' for Active; 'I' for Inactive)
REMARK    1  A    between atoms: C_5  and  C_12
REMARK    2  A    between atoms: C_8  and  O_22
REMARK    3  A    between atoms: C_10  and  O_24
REMARK    4  A    between atoms: C_15  and  O_18
REMARK    5  A    between atoms: C_17  and  O_20
REMARK                            x       y       z     vdW  Elec       q    Type
REMARK                         _______ _______ _______ _____ _____    ______ ____
ROOT
ATOM      1  O   UNL     1      58.203  37.194  77.246  0.00  0.00    +0.000 OA
ATOM      2  O   UNL     1      54.426  36.761  75.676  0.00  0.00    +0.000 OA
ATOM      3  C   UNL     1      56.636  37.645  75.365  0.00  0.00    +0.000 A 
ATOM      4  C   UNL     1      57.903  37.739  75.994  0.00  0.00    +0.000 A 
ATOM      5  C   UNL     1      57.201  36.508  77.943  0.00  0.00    +0.000 A 
ATOM      6  C   UNL     1      55.563  36.927  76.079  0.00  0.00    +0.000 A 
ATOM      7  C   UNL     1      56.074  36.459  77.316  0.00  0.00    +0.000 A 
ATOM      8  C   UNL     1      56.421  38.217  74.112  0.00  0.00    +0.000 A 
ATOM      9  C   UNL     1      58.940  38.407  75.353  0.00  0.00    +0.000 A 
ATOM     10  C   UNL     1      58.709  38.974  74.101  0.00  0.00    +0.000 A 
ATOM     11  C   UNL     1      57.463  38.885  73.477  0.00  0.00    +0.000 A 
ENDROOT
BRANCH   5  12
ATOM     12  C   UNL     1      57.517  35.941  79.248  0.00  0.00    +0.000 A 
ATOM     13  C   UNL     1      58.390  34.854  79.354  0.00  0.00    +0.000 A 
ATOM     14  C   UNL     1      56.954  36.474  80.415  0.00  0.00    +0.000 A 
ATOM     15  C   UNL     1      58.684  34.321  80.603  0.00  0.00    +0.000 A 
ATOM     16  C   UNL     1      57.249  35.938  81.669  0.00  0.00    +0.000 A 
ATOM     17  C   UNL     1      58.119  34.859  81.753  0.00  0.00    +0.000 A 
BRANCH  15  18
ATOM     18  O   UNL     1      59.539  33.260  80.692  0.00  0.00    +0.000 OA
ATOM     19  H   UNL     1      59.093  32.532  80.215  0.00  0.00    +0.000 HD
ENDBRANCH  15  18
BRANCH  17  20
ATOM     20  O   UNL     1      58.440  34.298  82.959  0.00  0.00    +0.000 OA
ATOM     21  H   UNL     1      59.208  33.715  82.818  0.00  0.00    +0.000 HD
ENDBRANCH  17  20
ENDBRANCH   5  12
BRANCH   8  22
ATOM     22  O   UNL     1      55.222  38.161  73.457  0.00  0.00    +0.000 OA
ATOM     23  H   UNL     1      55.356  37.785  72.559  0.00  0.00    +0.000 HD
ENDBRANCH   8  22
BRANCH  10  24
ATOM     24  O   UNL     1      59.741  39.627  73.489  0.00  0.00    +0.000 OA
ATOM     25  H   UNL     1      59.387  40.098  72.714  0.00  0.00    +0.000 HD
ENDBRANCH  10  24
TORSDOF 5
ENDMDL
MODEL 2
REMARK VINA RESULT:      -7.4      1.677      7.329
REMARK  Name = 5280445_Luteolin.pdbqt.pdb
REMARK  5 active torsions:
REMARK  status: ('A' for Active; 'I' for Inactive)
REMARK    1  A    between atoms: C_5  and  C_12
REMARK    2  A    between atoms: C_8  and  O_22
REMARK    3  A    between atoms: C_10  and  O_24
REMARK    4  A    between atoms: C_15  and  O_18
REMARK    5  A    between atoms: C_17  and  O_20
REMARK                            x       y       z     vdW  Elec       q    Type
REMARK                         _______ _______ _______ _____ _____    ______ ____
ROOT
ATOM      1  O   UNL     1      57.423  37.177  77.307  0.00  0.00    +0.000 OA
ATOM      2  O   UNL     1      60.722  34.793  77.900  0.00  0.00    +0.000 OA
ATOM      3  C   UNL     1      58.678  35.652  78.822  0.00  0.00    +0.000 A 
ATOM      4  C   UNL     1      57.581  36.496  78.518  0.00  0.00    +0.000 A 
ATOM      5  C   UNL     1      58.401  37.031  76.316  0.00  0.00    +0.000 A 
ATOM      6  C   UNL     1      59.723  35.480  77.794  0.00  0.00    +0.000 A 
ATOM      7  C   UNL     1      59.371  36.250  76.656  0.00  0.00    +0.000 A 
ATOM      8  C   UNL     1      58.759  35.007  80.056  0.00  0.00    +0.000 A 
ATOM      9  C   UNL     1      56.576  36.682  79.461  0.00  0.00    +0.000 A 
ATOM     10  C   UNL     1      56.671  36.032  80.690  0.00  0.00    +0.000 A 
ATOM     11  C   UNL     1      57.750  35.199  80.994  0.00  0.00    +0.000 A 
ENDROOT
BRANCH   5  12
ATOM     12  C   UNL     1      58.233  37.741  75.055  0.00  0.00    +0.000 A 
ATOM     13  C   UNL     1      58.977  38.895  74.789  0.00  0.00    +0.000 A 
ATOM     14  C   UNL     1      57.326  37.283  74.090  0.00  0.00    +0.000 A 
ATOM     15  C   UNL     1      58.809  39.565  73.584  0.00  0.00    +0.000 A 
ATOM     16  C   UNL     1      57.157  37.956  72.880  0.00  0.00    +0.000 A 
ATOM     17  C   UNL     1      57.906  39.099  72.635  0.00  0.00    +0.000 A 
BRANCH  15  18
ATOM     18  O   UNL     1      59.542  40.690  73.336  0.00  0.00    +0.000 OA
ATOM     19  H   UNL     1      58.895  41.424  73.350  0.00  0.00    +0.000 HD
ENDBRANCH  15  18
BRANCH  17  20
ATOM     20  O   UNL     1      57.777  39.795  71.464  0.00  0.00    +0.000 OA
ATOM     21  H   UNL     1      57.320  39.218  70.826  0.00  0.00    +0.000 HD
ENDBRANCH  17  20
ENDBRANCH   5  12
BRANCH   8  22
ATOM     22  O   UNL     1      59.791  34.183  80.407  0.00  0.00    +0.000 OA
ATOM     23  H   UNL     1      59.830  34.103  81.385  0.00  0.00    +0.000 HD
ENDBRANCH   8  22
BRANCH  10  24
ATOM     24  O   UNL     1      55.674  36.229  81.601  0.00  0.00    +0.000 OA
ATOM     25  H   UNL     1      56.082  36.465  82.454  0.00  0.00    +0.000 HD
ENDBRANCH  10  24
TORSDOF 5
ENDMDL
MODEL 3
REMARK VINA RESULT:      -7.4      1.779      2.455
REMARK  Name = 5280445_Luteolin.pdbqt.pdb
REMARK  5 active torsions:
REMARK  status: ('A' for Active; 'I' for Inactive)
REMARK    1  A    between atoms: C_5  and  C_12
REMARK    2  A    between atoms: C_8  and  O_22
REMARK    3  A    between atoms: C_10  and  O_24
REMARK    4  A    between atoms: C_15  and  O_18
REMARK    5  A    between atoms: C_17  and  O_20
REMARK                            x       y       z     vdW  Elec       q    Type
REMARK                         _______ _______ _______ _____ _____    ______ ____
ROOT
ATOM      1  O   UNL     1      56.616  37.764  77.192  0.00  0.00    +0.000 OA
ATOM      2  O   UNL     1      57.242  35.268  73.983  0.00  0.00    +0.000 OA
ATOM      3  C   UNL     1      56.660  37.478  74.720  0.00  0.00    +0.000 A 
ATOM      4  C   UNL     1      56.468  38.253  75.891  0.00  0.00    +0.000 A 
ATOM      5  C   UNL     1      56.977  36.424  77.374  0.00  0.00    +0.000 A 
ATOM      6  C   UNL     1      57.041  36.062  74.884  0.00  0.00    +0.000 A 
ATOM      7  C   UNL     1      57.136  35.775  76.269  0.00  0.00    +0.000 A 
ATOM      8  C   UNL     1      56.493  38.044  73.457  0.00  0.00    +0.000 A 
ATOM      9  C   UNL     1      56.109  39.591  75.776  0.00  0.00    +0.000 A 
ATOM     10  C   UNL     1      55.945  40.143  74.507  0.00  0.00    +0.000 A 
ATOM     11  C   UNL     1      56.132  39.384  73.351  0.00  0.00    +0.000 A 
ENDROOT
BRANCH   5  12
ATOM     12  C   UNL     1      57.131  35.917  78.732  0.00  0.00    +0.000 A 
ATOM     13  C   UNL     1      56.357  36.438  79.773  0.00  0.00    +0.000 A 
ATOM     14  C   UNL     1      58.054  34.902  79.017  0.00  0.00    +0.000 A 
ATOM     15  C   UNL     1      56.512  35.949  81.064  0.00  0.00    +0.000 A 
ATOM     16  C   UNL     1      58.210  34.410  80.313  0.00  0.00    +0.000 A 
ATOM     17  C   UNL     1      57.432  34.941  81.333  0.00  0.00    +0.000 A 
BRANCH  15  18
ATOM     18  O   UNL     1      55.749  36.466  82.071  0.00  0.00    +0.000 OA
ATOM     19  H   UNL     1      56.387  36.725  82.767  0.00  0.00    +0.000 HD
ENDBRANCH  15  18
BRANCH  17  20
ATOM     20  O   UNL     1      57.546  34.494  82.620  0.00  0.00    +0.000 OA
ATOM     21  H   UNL     1      56.876  33.799  82.753  0.00  0.00    +0.000 HD
ENDBRANCH  17  20
ENDBRANCH   5  12
BRANCH   8  22
ATOM     22  O   UNL     1      56.663  37.348  72.292  0.00  0.00    +0.000 OA
ATOM     23  H   UNL     1      56.596  36.385  72.472  0.00  0.00    +0.000 HD
ENDBRANCH   8  22
BRANCH  10  24
ATOM     24  O   UNL     1      55.591  41.459  74.418  0.00  0.00    +0.000 OA
ATOM     25  H   UNL     1      55.993  41.829  73.612  0.00  0.00    +0.000 HD
ENDBRANCH  10  24
TORSDOF 5
ENDMDL
MODEL 4
REMARK VINA RESULT:      -6.8      1.617      2.954
REMARK  Name = 5280445_Luteolin.pdbqt.pdb
REMARK  5 active torsions:
REMARK  status: ('A' for Active; 'I' for Inactive)
REMARK    1  A    between atoms: C_5  and  C_12
REMARK    2  A    between atoms: C_8  and  O_22
REMARK    3  A    between atoms: C_10  and  O_24
REMARK    4  A    between atoms: C_15  and  O_18
REMARK    5  A    between atoms: C_17  and  O_20
REMARK                            x       y       z     vdW  Elec       q    Type
REMARK                         _______ _______ _______ _____ _____    ______ ____
ROOT
ATOM      1  O   UNL     1      57.003  37.222  76.247  0.00  0.00    +0.000 OA
ATOM      2  O   UNL     1      60.850  38.271  75.236  0.00  0.00    +0.000 OA
ATOM      3  C   UNL     1      58.509  38.576  74.799  0.00  0.00    +0.000 A 
ATOM      4  C   UNL     1      57.226  38.147  75.223  0.00  0.00    +0.000 A 
ATOM      5  C   UNL     1      58.105  36.669  76.910  0.00  0.00    +0.000 A 
ATOM      6  C   UNL     1      59.687  38.008  75.481  0.00  0.00    +0.000 A 
ATOM      7  C   UNL     1      59.242  37.100  76.476  0.00  0.00    +0.000 A 
ATOM      8  C   UNL     1      58.643  39.505  73.768  0.00  0.00    +0.000 A 
ATOM      9  C   UNL     1      56.092  38.661  74.604  0.00  0.00    +0.000 A 
ATOM     10  C   UNL     1      56.242  39.589  73.575  0.00  0.00    +0.000 A 
ATOM     11  C   UNL     1      57.503  40.014  73.153  0.00  0.00    +0.000 A 
ENDROOT
BRANCH   5  12
ATOM     12  C   UNL     1      57.870  35.705  77.977  0.00  0.00    +0.000 A 
ATOM     13  C   UNL     1      58.945  35.117  78.650  0.00  0.00    +0.000 A 
ATOM     14  C   UNL     1      56.565  35.352  78.348  0.00  0.00    +0.000 A 
ATOM     15  C   UNL     1      58.710  34.199  79.665  0.00  0.00    +0.000 A 
ATOM     16  C   UNL     1      56.328  34.430  79.367  0.00  0.00    +0.000 A 
ATOM     17  C   UNL     1      57.410  33.857  80.023  0.00  0.00    +0.000 A 
BRANCH  15  18
ATOM     18  O   UNL     1      59.769  33.632  80.314  0.00  0.00    +0.000 OA
ATOM     19  H   UNL     1      60.525  33.728  79.699  0.00  0.00    +0.000 HD
ENDBRANCH  15  18
BRANCH  17  20
ATOM     20  O   UNL     1      57.231  32.948  81.029  0.00  0.00    +0.000 OA
ATOM     21  H   UNL     1      56.477  32.382  80.786  0.00  0.00    +0.000 HD
ENDBRANCH  17  20
ENDBRANCH   5  12
BRANCH   8  22
ATOM     22  O   UNL     1      59.852  39.956  73.315  0.00  0.00    +0.000 OA
ATOM     23  H   UNL     1      60.020  40.857  73.667  0.00  0.00    +0.000 HD
ENDBRANCH   8  22
BRANCH  10  24
ATOM     24  O   UNL     1      55.115  40.079  72.981  0.00  0.00    +0.000 OA
ATOM     25  H   UNL     1      54.351  39.574  73.312  0.00  0.00    +0.000 HD
ENDBRANCH  10  24
TORSDOF 5
ENDMDL
MODEL 5
REMARK VINA RESULT:      -6.5      2.964      6.401
REMARK  Name = 5280445_Luteolin.pdbqt.pdb
REMARK  5 active torsions:
REMARK  status: ('A' for Active; 'I' for Inactive)
REMARK    1  A    between atoms: C_5  and  C_12
REMARK    2  A    between atoms: C_8  and  O_22
REMARK    3  A    between atoms: C_10  and  O_24
REMARK    4  A    between atoms: C_15  and  O_18
REMARK    5  A    between atoms: C_17  and  O_20
REMARK                            x       y       z     vdW  Elec       q    Type
REMARK                         _______ _______ _______ _____ _____    ______ ____
ROOT
ATOM      1  O   UNL     1      59.001  36.842  76.130  0.00  0.00    +0.000 OA
ATOM      2  O   UNL     1      59.053  34.208  79.289  0.00  0.00    +0.000 OA
ATOM      3  C   UNL     1      57.706  35.483  77.765  0.00  0.00    +0.000 A 
ATOM      4  C   UNL     1      57.798  36.389  76.679  0.00  0.00    +0.000 A 
ATOM      5  C   UNL     1      60.207  36.384  76.675  0.00  0.00    +0.000 A 
ATOM      6  C   UNL     1      58.962  34.986  78.357  0.00  0.00    +0.000 A 
ATOM      7  C   UNL     1      60.053  35.563  77.659  0.00  0.00    +0.000 A 
ATOM      8  C   UNL     1      56.463  35.081  78.251  0.00  0.00    +0.000 A 
ATOM      9  C   UNL     1      56.635  36.880  76.094  0.00  0.00    +0.000 A 
ATOM     10  C   UNL     1      55.400  36.468  76.591  0.00  0.00    +0.000 A 
ATOM     11  C   UNL     1      55.304  35.577  77.661  0.00  0.00    +0.000 A 
ENDROOT
BRANCH   5  12
ATOM     12  C   UNL     1      61.460  36.858  76.100  0.00  0.00    +0.000 A 
ATOM     13  C   UNL     1      61.456  37.838  75.104  0.00  0.00    +0.000 A 
ATOM     14  C   UNL     1      62.688  36.341  76.537  0.00  0.00    +0.000 A 
ATOM     15  C   UNL     1      62.656  38.281  74.563  0.00  0.00    +0.000 A 
ATOM     16  C   UNL     1      63.893  36.786  75.994  0.00  0.00    +0.000 A 
ATOM     17  C   UNL     1      63.867  37.761  75.004  0.00  0.00    +0.000 A 
BRANCH  15  18
ATOM     18  O   UNL     1      62.637  39.239  73.590  0.00  0.00    +0.000 OA
ATOM     19  H   UNL     1      62.482  40.081  74.064  0.00  0.00    +0.000 HD
ENDBRANCH  15  18
BRANCH  17  20
ATOM     20  O   UNL     1      65.021  38.231  74.440  0.00  0.00    +0.000 OA
ATOM     21  H   UNL     1      64.859  39.150  74.158  0.00  0.00    +0.000 HD
ENDBRANCH  17  20
ENDBRANCH   5  12
BRANCH   8  22
ATOM     22  O   UNL     1      56.310  34.212  79.296  0.00  0.00    +0.000 OA
ATOM     23  H   UNL     1      55.948  34.691  80.073  0.00  0.00    +0.000 HD
ENDBRANCH   8  22
BRANCH  10  24
ATOM     24  O   UNL     1      54.272  36.963  76.003  0.00  0.00    +0.000 OA
ATOM     25  H   UNL     1      54.204  37.910  76.220  0.00  0.00    +0.000 HD
ENDBRANCH  10  24
TORSDOF 5
ENDMDL
MODEL 6
REMARK VINA RESULT:      -6.4      3.809      5.942
REMARK  Name = 5280445_Luteolin.pdbqt.pdb
REMARK  5 active torsions:
REMARK  status: ('A' for Active; 'I' for Inactive)
REMARK    1  A    between atoms: C_5  and  C_12
REMARK    2  A    between atoms: C_8  and  O_22
REMARK    3  A    between atoms: C_10  and  O_24
REMARK    4  A    between atoms: C_15  and  O_18
REMARK    5  A    between atoms: C_17  and  O_20
REMARK                            x       y       z     vdW  Elec       q    Type
REMARK                         _______ _______ _______ _____ _____    ______ ____
ROOT
ATOM      1  O   UNL     1      58.778  35.757  76.370  0.00  0.00    +0.000 OA
ATOM      2  O   UNL     1      58.614  35.767  80.480  0.00  0.00    +0.000 OA
ATOM      3  C   UNL     1      57.420  36.111  78.426  0.00  0.00    +0.000 A 
ATOM      4  C   UNL     1      57.583  36.079  77.018  0.00  0.00    +0.000 A 
ATOM      5  C   UNL     1      59.903  35.444  77.143  0.00  0.00    +0.000 A 
ATOM      6  C   UNL     1      58.590  35.784  79.263  0.00  0.00    +0.000 A 
ATOM      7  C   UNL     1      59.688  35.491  78.415  0.00  0.00    +0.000 A 
ATOM      8  C   UNL     1      56.190  36.441  78.992  0.00  0.00    +0.000 A 
ATOM      9  C   UNL     1      56.502  36.381  76.196  0.00  0.00    +0.000 A 
ATOM     10  C   UNL     1      55.279  36.709  76.777  0.00  0.00    +0.000 A 
ATOM     11  C   UNL     1      55.114  36.743  78.163  0.00  0.00    +0.000 A 
ENDROOT
BRANCH   5  12
ATOM     12  C   UNL     1      61.149  35.109  76.464  0.00  0.00    +0.000 A 
ATOM     13  C   UNL     1      62.356  35.678  76.879  0.00  0.00    +0.000 A 
ATOM     14  C   UNL     1      61.158  34.211  75.388  0.00  0.00    +0.000 A 
ATOM     15  C   UNL     1      63.537  35.353  76.225  0.00  0.00    +0.000 A 
ATOM     16  C   UNL     1      62.344  33.884  74.731  0.00  0.00    +0.000 A 
ATOM     17  C   UNL     1      63.533  34.461  75.159  0.00  0.00    +0.000 A 
BRANCH  15  18
ATOM     18  O   UNL     1      64.709  35.916  76.641  0.00  0.00    +0.000 OA
ATOM     19  H   UNL     1      65.317  35.834  75.878  0.00  0.00    +0.000 HD
ENDBRANCH  15  18
BRANCH  17  20
ATOM     20  O   UNL     1      64.723  34.173  74.548  0.00  0.00    +0.000 OA
ATOM     21  H   UNL     1      65.416  34.695  74.991  0.00  0.00    +0.000 HD
ENDBRANCH  17  20
ENDBRANCH   5  12
BRANCH   8  22
ATOM     22  O   UNL     1      55.972  36.490  80.341  0.00  0.00    +0.000 OA
ATOM     23  H   UNL     1      55.688  35.605  80.660  0.00  0.00    +0.000 HD
ENDBRANCH   8  22
BRANCH  10  24
ATOM     24  O   UNL     1      54.232  37.003  75.951  0.00  0.00    +0.000 OA
ATOM     25  H   UNL     1      53.405  36.803  76.424  0.00  0.00    +0.000 HD
ENDBRANCH  10  24
TORSDOF 5
ENDMDL
MODEL 7
REMARK VINA RESULT:      -6.4      3.686      6.561
REMARK  Name = 5280445_Luteolin.pdbqt.pdb
REMARK  5 active torsions:
REMARK  status: ('A' for Active; 'I' for Inactive)
REMARK    1  A    between atoms: C_5  and  C_12
REMARK    2  A    between atoms: C_8  and  O_22
REMARK    3  A    between atoms: C_10  and  O_24
REMARK    4  A    between atoms: C_15  and  O_18
REMARK    5  A    between atoms: C_17  and  O_20
REMARK                            x       y       z     vdW  Elec       q    Type
REMARK                         _______ _______ _______ _____ _____    ______ ____
ROOT
ATOM      1  O   UNL     1      59.879  34.873  78.571  0.00  0.00    +0.000 OA
ATOM      2  O   UNL     1      56.702  36.924  76.952  0.00  0.00    +0.000 OA
ATOM      3  C   UNL     1      57.581  35.781  78.872  0.00  0.00    +0.000 A 
ATOM      4  C   UNL     1      58.728  35.088  79.334  0.00  0.00    +0.000 A 
ATOM      5  C   UNL     1      59.923  35.364  77.260  0.00  0.00    +0.000 A 
ATOM      6  C   UNL     1      57.602  36.309  77.495  0.00  0.00    +0.000 A 
ATOM      7  C   UNL     1      58.849  35.984  76.903  0.00  0.00    +0.000 A 
ATOM      8  C   UNL     1      56.473  35.953  79.700  0.00  0.00    +0.000 A 
ATOM      9  C   UNL     1      58.745  34.576  80.627  0.00  0.00    +0.000 A 
ATOM     10  C   UNL     1      57.630  34.756  81.443  0.00  0.00    +0.000 A 
ATOM     11  C   UNL     1      56.498  35.437  80.992  0.00  0.00    +0.000 A 
ENDROOT
BRANCH   5  12
ATOM     12  C   UNL     1      61.125  35.138  76.467  0.00  0.00    +0.000 A 
ATOM     13  C   UNL     1      61.120  34.206  75.426  0.00  0.00    +0.000 A 
ATOM     14  C   UNL     1      62.302  35.850  76.733  0.00  0.00    +0.000 A 
ATOM     15  C   UNL     1      62.271  33.997  74.676  0.00  0.00    +0.000 A 
ATOM     16  C   UNL     1      63.458  35.641  75.981  0.00  0.00    +0.000 A 
ATOM     17  C   UNL     1      63.432  34.710  74.950  0.00  0.00    +0.000 A 
BRANCH  15  18
ATOM     18  O   UNL     1      62.252  33.084  73.662  0.00  0.00    +0.000 OA
ATOM     19  H   UNL     1      61.496  33.344  73.098  0.00  0.00    +0.000 HD
ENDBRANCH  15  18
BRANCH  17  20
ATOM     20  O   UNL     1      64.539  34.469  74.183  0.00  0.00    +0.000 OA
ATOM     21  H   UNL     1      65.174  35.190  74.345  0.00  0.00    +0.000 HD
ENDBRANCH  17  20
ENDBRANCH   5  12
BRANCH   8  22
ATOM     22  O   UNL     1      55.339  36.611  79.311  0.00  0.00    +0.000 OA
ATOM     23  H   UNL     1      55.416  36.868  78.366  0.00  0.00    +0.000 HD
ENDBRANCH   8  22
BRANCH  10  24
ATOM     24  O   UNL     1      57.668  34.244  82.708  0.00  0.00    +0.000 OA
ATOM     25  H   UNL     1      56.823  34.448  83.145  0.00  0.00    +0.000 HD
ENDBRANCH  10  24
TORSDOF 5
ENDMDL
MODEL 8
REMARK VINA RESULT:      -6.3      3.285      4.995
REMARK  Name = 5280445_Luteolin.pdbqt.pdb
REMARK  5 active torsions:
REMARK  status: ('A' for Active; 'I' for Inactive)
REMARK    1  A    between atoms: C_5  and  C_12
REMARK    2  A    between atoms: C_8  and  O_22
REMARK    3  A    between atoms: C_10  and  O_24
REMARK    4  A    between atoms: C_15  and  O_18
REMARK    5  A    between atoms: C_17  and  O_20
REMARK                            x       y       z     vdW  Elec       q    Type
REMARK                         _______ _______ _______ _____ _____    ______ ____
ROOT
ATOM      1  O   UNL     1      60.647  36.262  76.937  0.00  0.00    +0.000 OA
ATOM      2  O   UNL     1      60.182  39.015  73.916  0.00  0.00    +0.000 OA
ATOM      3  C   UNL     1      61.716  37.676  75.189  0.00  0.00    +0.000 A 
ATOM      4  C   UNL     1      61.766  36.730  76.244  0.00  0.00    +0.000 A 
ATOM      5  C   UNL     1      59.381  36.747  76.584  0.00  0.00    +0.000 A 
ATOM      6  C   UNL     1      60.394  38.202  74.797  0.00  0.00    +0.000 A 
ATOM      7  C   UNL     1      59.405  37.603  75.618  0.00  0.00    +0.000 A 
ATOM      8  C   UNL     1      62.882  38.089  74.548  0.00  0.00    +0.000 A 
ATOM      9  C   UNL     1      62.994  36.211  76.641  0.00  0.00    +0.000 A 
ATOM     10  C   UNL     1      64.151  36.634  75.991  0.00  0.00    +0.000 A 
ATOM     11  C   UNL     1      64.107  37.565  74.952  0.00  0.00    +0.000 A 
ENDROOT
BRANCH   5  12
ATOM     12  C   UNL     1      58.216  36.257  77.309  0.00  0.00    +0.000 A 
ATOM     13  C   UNL     1      57.135  35.701  76.618  0.00  0.00    +0.000 A 
ATOM     14  C   UNL     1      58.158  36.333  78.707  0.00  0.00    +0.000 A 
ATOM     15  C   UNL     1      56.029  35.238  77.318  0.00  0.00    +0.000 A 
ATOM     16  C   UNL     1      57.047  35.868  79.411  0.00  0.00    +0.000 A 
ATOM     17  C   UNL     1      55.984  35.320  78.705  0.00  0.00    +0.000 A 
BRANCH  15  18
ATOM     18  O   UNL     1      54.980  34.697  76.631  0.00  0.00    +0.000 OA
ATOM     19  H   UNL     1      54.250  35.341  76.730  0.00  0.00    +0.000 HD
ENDBRANCH  15  18
BRANCH  17  20
ATOM     20  O   UNL     1      54.872  34.849  79.348  0.00  0.00    +0.000 OA
ATOM     21  H   UNL     1      55.158  34.481  80.204  0.00  0.00    +0.000 HD
ENDBRANCH  17  20
ENDBRANCH   5  12
BRANCH   8  22
ATOM     22  O   UNL     1      62.897  38.998  73.526  0.00  0.00    +0.000 OA
ATOM     23  H   UNL     1      63.570  39.688  73.710  0.00  0.00    +0.000 HD
ENDBRANCH   8  22
BRANCH  10  24
ATOM     24  O   UNL     1      65.346  36.112  76.398  0.00  0.00    +0.000 OA
ATOM     25  H   UNL     1      65.775  35.696  75.629  0.00  0.00    +0.000 HD
ENDBRANCH  10  24
TORSDOF 5
ENDMDL
MODEL 9
REMARK VINA RESULT:      -6.1      3.501      6.643
REMARK  Name = 5280445_Luteolin.pdbqt.pdb
REMARK  5 active torsions:
REMARK  status: ('A' for Active; 'I' for Inactive)
REMARK    1  A    between atoms: C_5  and  C_12
REMARK    2  A    between atoms: C_8  and  O_22
REMARK    3  A    between atoms: C_10  and  O_24
REMARK    4  A    between atoms: C_15  and  O_18
REMARK    5  A    between atoms: C_17  and  O_20
REMARK                            x       y       z     vdW  Elec       q    Type
REMARK                         _______ _______ _______ _____ _____    ______ ____
ROOT
ATOM      1  O   UNL     1      60.430  35.912  76.445  0.00  0.00    +0.000 OA
ATOM      2  O   UNL     1      62.425  38.903  74.447  0.00  0.00    +0.000 OA
ATOM      3  C   UNL     1      62.608  36.894  75.748  0.00  0.00    +0.000 A 
ATOM      4  C   UNL     1      61.827  35.912  76.408  0.00  0.00    +0.000 A 
ATOM      5  C   UNL     1      59.735  36.940  75.796  0.00  0.00    +0.000 A 
ATOM      6  C   UNL     1      61.901  37.988  75.056  0.00  0.00    +0.000 A 
ATOM      7  C   UNL     1      60.505  37.799  75.216  0.00  0.00    +0.000 A 
ATOM      8  C   UNL     1      64.001  36.819  75.759  0.00  0.00    +0.000 A 
ATOM      9  C   UNL     1      62.458  34.865  77.071  0.00  0.00    +0.000 A 
ATOM     10  C   UNL     1      63.850  34.804  77.073  0.00  0.00    +0.000 A 
ATOM     11  C   UNL     1      64.624  35.769  76.425  0.00  0.00    +0.000 A 
ENDROOT
BRANCH   5  12
ATOM     12  C   UNL     1      58.279  36.936  75.836  0.00  0.00    +0.000 A 
ATOM     13  C   UNL     1      57.540  37.362  74.728  0.00  0.00    +0.000 A 
ATOM     14  C   UNL     1      57.595  36.507  76.981  0.00  0.00    +0.000 A 
ATOM     15  C   UNL     1      56.151  37.356  74.778  0.00  0.00    +0.000 A 
ATOM     16  C   UNL     1      56.201  36.500  77.031  0.00  0.00    +0.000 A 
ATOM     17  C   UNL     1      55.486  36.927  75.920  0.00  0.00    +0.000 A 
BRANCH  15  18
ATOM     18  O   UNL     1      55.442  37.774  73.689  0.00  0.00    +0.000 OA
ATOM     19  H   UNL     1      55.555  37.066  73.023  0.00  0.00    +0.000 HD
ENDBRANCH  15  18
BRANCH  17  20
ATOM     20  O   UNL     1      54.118  36.940  75.918  0.00  0.00    +0.000 OA
ATOM     21  H   UNL     1      53.818  36.440  75.137  0.00  0.00    +0.000 HD
ENDBRANCH  17  20
ENDBRANCH   5  12
BRANCH   8  22
ATOM     22  O   UNL     1      64.807  37.735  75.142  0.00  0.00    +0.000 OA
ATOM     23  H   UNL     1      65.145  38.375  75.806  0.00  0.00    +0.000 HD
ENDBRANCH   8  22
BRANCH  10  24
ATOM     24  O   UNL     1      64.448  33.768  77.731  0.00  0.00    +0.000 OA
ATOM     25  H   UNL     1      65.151  33.410  77.160  0.00  0.00    +0.000 HD
ENDBRANCH  10  24
TORSDOF 5
ENDMDL
