MODEL 1
REMARK VINA RESULT:      -6.8      0.000      0.000
REMARK  Name = 5281239_Fucoxanthin.pdbqt.pdb
REMARK  19 active torsions:
REMARK  status: ('A' for Active; 'I' for Inactive)
REMARK    1  A    between atoms: C_1  and  C_5
REMARK    2  A    between atoms: C_2  and  C_26
REMARK    3  A    between atoms: C_3  and  C_5
REMARK    4  A    between atoms: C_3  and  C_7
REMARK    5  A    between atoms: C_6  and  C_10
REMARK    6  A    between atoms: C_8  and  C_10
REMARK    7  A    between atoms: C_8  and  C_12
REMARK    8  A    between atoms: C_12  and  C_13
REMARK    9  A    between atoms: C_13  and  C_15
REMARK   10  A    between atoms: C_20  and  O_24
REMARK   11  A    between atoms: C_26  and  C_27
REMARK   12  A    between atoms: C_27  and  C_30
REMARK   13  A    between atoms: C_29  and  C_33
REMARK   14  A    between atoms: C_31  and  C_33
REMARK   15  A    between atoms: C_31  and  C_44
REMARK   16  A    between atoms: C_35  and  O_45
REMARK   17  A    between atoms: C_37  and  O_47
REMARK   18  A    between atoms: C_39  and  C_43
REMARK   19  A    between atoms: O_47  and  C_49
REMARK                            x       y       z     vdW  Elec       q    Type
REMARK                         _______ _______ _______ _____ _____    ______ ____
ROOT
ATOM      1  C   UNL     1      55.670  39.926  84.860  0.00  0.00    +0.000 C 
ATOM      2  C   UNL     1      54.957  40.874  84.678  0.00  0.00    +0.000 C 
ENDROOT
BRANCH   2   3
ATOM      3  C   UNL     1      54.041  42.082  84.446  0.00  0.00    +0.000 C 
BRANCH   3   4
ATOM      4  C   UNL     1      53.266  43.102  84.253  0.00  0.00    +0.000 C 
ATOM      5  C   UNL     1      53.509  44.377  85.003  0.00  0.00    +0.000 C 
BRANCH   4   7
ATOM      6  C   UNL     1      51.339  42.967  82.489  0.00  0.00    +0.000 C 
ATOM      7  C   UNL     1      52.223  43.027  83.299  0.00  0.00    +0.000 C 
BRANCH   6   8
ATOM      8  C   UNL     1      50.213  42.893  81.452  0.00  0.00    +0.000 C 
BRANCH   8   9
ATOM      9  C   UNL     1      49.253  42.829  80.582  0.00  0.00    +0.000 C 
ATOM     10  C   UNL     1      49.012  43.969  79.640  0.00  0.00    +0.000 C 
BRANCH   9  12
ATOM     11  C   UNL     1      47.603  40.794  80.618  0.00  0.00    +0.000 C 
ATOM     12  C   UNL     1      48.358  41.730  80.600  0.00  0.00    +0.000 C 
BRANCH  11  18
ATOM     13  C   UNL     1      46.916  38.614  81.645  0.00  0.00    +0.000 C 
ATOM     14  C   UNL     1      45.665  39.635  79.605  0.00  0.00    +0.000 C 
ATOM     15  C   UNL     1      45.719  37.763  81.649  0.00  0.00    +0.000 C 
ATOM     16  C   UNL     1      44.509  37.618  80.943  0.00  0.00    +0.000 C 
ATOM     17  C   UNL     1      44.671  38.637  79.982  0.00  0.00    +0.000 C 
ATOM     18  C   UNL     1      46.778  39.766  80.634  0.00  0.00    +0.000 C 
ATOM     19  C   UNL     1      48.164  37.772  81.266  0.00  0.00    +0.000 C 
ATOM     20  C   UNL     1      47.093  39.209  83.075  0.00  0.00    +0.000 C 
ATOM     21  C   UNL     1      46.239  39.354  78.213  0.00  0.00    +0.000 C 
BRANCH  14  22
ATOM     22  O   UNL     1      45.002  40.874  79.481  0.00  0.00    +0.000 OA
ATOM     23  H   UNL     1      45.753  41.485  79.366  0.00  0.00    +0.000 HD
ENDBRANCH  14  22
BRANCH  16  24
ATOM     24  O   UNL     1      44.098  36.348  80.559  0.00  0.00    +0.000 OA
BRANCH  24  26
ATOM     25  O   UNL     1      41.792  36.178  80.161  0.00  0.00    +0.000 OA
ATOM     26  C   UNL     1      42.787  36.175  80.862  0.00  0.00    +0.000 C 
ATOM     27  C   UNL     1      42.521  35.954  82.309  0.00  0.00    +0.000 C 
ENDBRANCH  24  26
ENDBRANCH  16  24
ENDBRANCH  11  18
ENDBRANCH   9  12
ENDBRANCH   8   9
ENDBRANCH   6   8
ENDBRANCH   4   7
ENDBRANCH   3   4
ENDBRANCH   2   3
BRANCH   1  28
ATOM     28  C   UNL     1      56.571  38.709  85.095  0.00  0.00    +0.000 C 
BRANCH  28  29
ATOM     29  C   UNL     1      57.341  37.687  85.297  0.00  0.00    +0.000 C 
ATOM     30  C   UNL     1      58.017  37.508  86.623  0.00  0.00    +0.000 C 
BRANCH  29  32
ATOM     31  C   UNL     1      57.783  35.980  83.364  0.00  0.00    +0.000 C 
ATOM     32  C   UNL     1      57.573  36.762  84.251  0.00  0.00    +0.000 C 
BRANCH  31  33
ATOM     33  C   UNL     1      58.067  34.985  82.233  0.00  0.00    +0.000 C 
BRANCH  33  34
ATOM     34  C   UNL     1      58.299  34.140  81.272  0.00  0.00    +0.000 C 
ATOM     35  C   UNL     1      57.936  32.693  81.533  0.00  0.00    +0.000 C 
BRANCH  34  37
ATOM     36  O   UNL     1      60.089  34.301  79.697  0.00  0.00    +0.000 OA
ATOM     37  C   UNL     1      58.938  34.599  80.000  0.00  0.00    +0.000 C 
BRANCH  37  38
ATOM     38  C   UNL     1      58.214  35.420  79.059  0.00  0.00    +0.000 C 
BRANCH  38  40
ATOM     39  O   UNL     1      58.093  37.524  77.962  0.00  0.00    +0.000 OA
ATOM     40  C   UNL     1      57.469  36.218  78.104  0.00  0.00    +0.000 C 
ATOM     41  C   UNL     1      58.165  36.688  76.809  0.00  0.00    +0.000 C 
ATOM     42  C   UNL     1      55.899  36.190  78.130  0.00  0.00    +0.000 C 
ATOM     43  C   UNL     1      57.329  37.156  75.751  0.00  0.00    +0.000 C 
ATOM     44  C   UNL     1      55.439  36.832  76.897  0.00  0.00    +0.000 C 
ATOM     45  C   UNL     1      55.934  37.315  75.670  0.00  0.00    +0.000 C 
ATOM     46  C   UNL     1      59.596  36.286  76.439  0.00  0.00    +0.000 C 
ATOM     47  C   UNL     1      55.513  34.691  78.157  0.00  0.00    +0.000 C 
ATOM     48  C   UNL     1      55.483  36.931  79.420  0.00  0.00    +0.000 C 
BRANCH  45  49
ATOM     49  O   UNL     1      55.241  37.151  74.509  0.00  0.00    +0.000 OA
ATOM     50  H   UNL     1      55.091  37.993  74.044  0.00  0.00    +0.000 HD
ENDBRANCH  45  49
ENDBRANCH  38  40
ENDBRANCH  37  38
ENDBRANCH  34  37
ENDBRANCH  33  34
ENDBRANCH  31  33
ENDBRANCH  29  32
ENDBRANCH  28  29
ENDBRANCH   1  28
TORSDOF 19
ENDMDL
MODEL 2
REMARK VINA RESULT:      -5.7     38.647     43.966
REMARK  Name = 5281239_Fucoxanthin.pdbqt.pdb
REMARK  19 active torsions:
REMARK  status: ('A' for Active; 'I' for Inactive)
REMARK    1  A    between atoms: C_1  and  C_5
REMARK    2  A    between atoms: C_2  and  C_26
REMARK    3  A    between atoms: C_3  and  C_5
REMARK    4  A    between atoms: C_3  and  C_7
REMARK    5  A    between atoms: C_6  and  C_10
REMARK    6  A    between atoms: C_8  and  C_10
REMARK    7  A    between atoms: C_8  and  C_12
REMARK    8  A    between atoms: C_12  and  C_13
REMARK    9  A    between atoms: C_13  and  C_15
REMARK   10  A    between atoms: C_20  and  O_24
REMARK   11  A    between atoms: C_26  and  C_27
REMARK   12  A    between atoms: C_27  and  C_30
REMARK   13  A    between atoms: C_29  and  C_33
REMARK   14  A    between atoms: C_31  and  C_33
REMARK   15  A    between atoms: C_31  and  C_44
REMARK   16  A    between atoms: C_35  and  O_45
REMARK   17  A    between atoms: C_37  and  O_47
REMARK   18  A    between atoms: C_39  and  C_43
REMARK   19  A    between atoms: O_47  and  C_49
REMARK                            x       y       z     vdW  Elec       q    Type
REMARK                         _______ _______ _______ _____ _____    ______ ____
ROOT
ATOM      1  C   UNL     1      28.186   6.587  94.679  0.00  0.00    +0.000 C 
ATOM      2  C   UNL     1      28.413   7.437  93.863  0.00  0.00    +0.000 C 
ENDROOT
BRANCH   2   3
ATOM      3  C   UNL     1      28.709   8.526  92.825  0.00  0.00    +0.000 C 
BRANCH   3   4
ATOM      4  C   UNL     1      28.962   9.444  91.945  0.00  0.00    +0.000 C 
ATOM      5  C   UNL     1      30.337  10.032  91.853  0.00  0.00    +0.000 C 
BRANCH   4   7
ATOM      6  C   UNL     1      27.099  10.198  90.270  0.00  0.00    +0.000 C 
ATOM      7  C   UNL     1      27.953   9.851  91.041  0.00  0.00    +0.000 C 
BRANCH   6   8
ATOM      8  C   UNL     1      26.011  10.637  89.284  0.00  0.00    +0.000 C 
BRANCH   8   9
ATOM      9  C   UNL     1      25.088  11.016  88.456  0.00  0.00    +0.000 C 
ATOM     10  C   UNL     1      24.710  12.462  88.359  0.00  0.00    +0.000 C 
BRANCH   9  12
ATOM     11  C   UNL     1      23.733   9.221  87.111  0.00  0.00    +0.000 C 
ATOM     12  C   UNL     1      24.355  10.047  87.726  0.00  0.00    +0.000 C 
BRANCH  11  18
ATOM     13  C   UNL     1      23.732   7.090  85.794  0.00  0.00    +0.000 C 
ATOM     14  C   UNL     1      21.558   8.457  86.212  0.00  0.00    +0.000 C 
ATOM     15  C   UNL     1      22.738   6.093  85.371  0.00  0.00    +0.000 C 
ATOM     16  C   UNL     1      21.340   5.949  85.287  0.00  0.00    +0.000 C 
ATOM     17  C   UNL     1      20.941   7.218  85.754  0.00  0.00    +0.000 C 
ATOM     18  C   UNL     1      23.055   8.313  86.438  0.00  0.00    +0.000 C 
ATOM     19  C   UNL     1      24.556   7.569  84.569  0.00  0.00    +0.000 C 
ATOM     20  C   UNL     1      24.675   6.420  86.838  0.00  0.00    +0.000 C 
ATOM     21  C   UNL     1      21.260   9.616  85.256  0.00  0.00    +0.000 C 
BRANCH  14  22
ATOM     22  O   UNL     1      20.940   8.820  87.427  0.00  0.00    +0.000 OA
ATOM     23  H   UNL     1      20.001   8.662  87.220  0.00  0.00    +0.000 HD
ENDBRANCH  14  22
BRANCH  16  24
ATOM     24  O   UNL     1      20.783   5.417  84.132  0.00  0.00    +0.000 OA
BRANCH  24  26
ATOM     25  O   UNL     1      21.817   3.313  84.211  0.00  0.00    +0.000 OA
ATOM     26  C   UNL     1      20.861   4.064  84.160  0.00  0.00    +0.000 C 
ATOM     27  C   UNL     1      19.541   3.377  84.107  0.00  0.00    +0.000 C 
ENDBRANCH  24  26
ENDBRANCH  16  24
ENDBRANCH  11  18
ENDBRANCH   9  12
ENDBRANCH   8   9
ENDBRANCH   6   8
ENDBRANCH   4   7
ENDBRANCH   3   4
ENDBRANCH   2   3
BRANCH   1  28
ATOM     28  C   UNL     1      27.903   5.505  95.727  0.00  0.00    +0.000 C 
BRANCH  28  29
ATOM     29  C   UNL     1      27.666   4.598  96.622  0.00  0.00    +0.000 C 
ATOM     30  C   UNL     1      28.451   3.322  96.623  0.00  0.00    +0.000 C 
BRANCH  29  32
ATOM     31  C   UNL     1      25.766   4.986  98.378  0.00  0.00    +0.000 C 
ATOM     32  C   UNL     1      26.637   4.800  97.572  0.00  0.00    +0.000 C 
BRANCH  31  33
ATOM     33  C   UNL     1      24.657   5.239  99.406  0.00  0.00    +0.000 C 
BRANCH  33  34
ATOM     34  C   UNL     1      23.711   5.456 100.271  0.00  0.00    +0.000 C 
ATOM     35  C   UNL     1      23.609   4.486 101.430  0.00  0.00    +0.000 C 
BRANCH  34  37
ATOM     36  O   UNL     1      21.555   6.487 100.312  0.00  0.00    +0.000 OA
ATOM     37  C   UNL     1      22.755   6.591 100.079  0.00  0.00    +0.000 C 
BRANCH  37  38
ATOM     38  C   UNL     1      23.213   7.876  99.607  0.00  0.00    +0.000 C 
BRANCH  38  40
ATOM     39  O   UNL     1      22.903   9.509  97.910  0.00  0.00    +0.000 OA
ATOM     40  C   UNL     1      23.662   9.158  99.100  0.00  0.00    +0.000 C 
ATOM     41  C   UNL     1      22.667  10.338  99.047  0.00  0.00    +0.000 C 
ATOM     42  C   UNL     1      25.198   9.486  99.074  0.00  0.00    +0.000 C 
ATOM     43  C   UNL     1      23.214  11.646  98.883  0.00  0.00    +0.000 C 
ATOM     44  C   UNL     1      25.324  10.920  98.806  0.00  0.00    +0.000 C 
ATOM     45  C   UNL     1      24.538  12.085  98.715  0.00  0.00    +0.000 C 
ATOM     46  C   UNL     1      21.234  10.243  99.579  0.00  0.00    +0.000 C 
ATOM     47  C   UNL     1      25.719   9.135 100.489  0.00  0.00    +0.000 C 
ATOM     48  C   UNL     1      25.806   8.583  97.979  0.00  0.00    +0.000 C 
BRANCH  45  49
ATOM     49  O   UNL     1      24.983  13.282  99.189  0.00  0.00    +0.000 OA
ATOM     50  H   UNL     1      24.521  13.555 100.001  0.00  0.00    +0.000 HD
ENDBRANCH  45  49
ENDBRANCH  38  40
ENDBRANCH  37  38
ENDBRANCH  34  37
ENDBRANCH  33  34
ENDBRANCH  31  33
ENDBRANCH  29  32
ENDBRANCH  28  29
ENDBRANCH   1  28
TORSDOF 19
ENDMDL
MODEL 3
REMARK VINA RESULT:      -5.5     10.149     16.094
REMARK  Name = 5281239_Fucoxanthin.pdbqt.pdb
REMARK  19 active torsions:
REMARK  status: ('A' for Active; 'I' for Inactive)
REMARK    1  A    between atoms: C_1  and  C_5
REMARK    2  A    between atoms: C_2  and  C_26
REMARK    3  A    between atoms: C_3  and  C_5
REMARK    4  A    between atoms: C_3  and  C_7
REMARK    5  A    between atoms: C_6  and  C_10
REMARK    6  A    between atoms: C_8  and  C_10
REMARK    7  A    between atoms: C_8  and  C_12
REMARK    8  A    between atoms: C_12  and  C_13
REMARK    9  A    between atoms: C_13  and  C_15
REMARK   10  A    between atoms: C_20  and  O_24
REMARK   11  A    between atoms: C_26  and  C_27
REMARK   12  A    between atoms: C_27  and  C_30
REMARK   13  A    between atoms: C_29  and  C_33
REMARK   14  A    between atoms: C_31  and  C_33
REMARK   15  A    between atoms: C_31  and  C_44
REMARK   16  A    between atoms: C_35  and  O_45
REMARK   17  A    between atoms: C_37  and  O_47
REMARK   18  A    between atoms: C_39  and  C_43
REMARK   19  A    between atoms: O_47  and  C_49
REMARK                            x       y       z     vdW  Elec       q    Type
REMARK                         _______ _______ _______ _____ _____    ______ ____
ROOT
ATOM      1  C   UNL     1      59.334  33.450  72.351  0.00  0.00    +0.000 C 
ATOM      2  C   UNL     1      59.613  32.528  71.635  0.00  0.00    +0.000 C 
ENDROOT
BRANCH   2   3
ATOM      3  C   UNL     1      59.964  31.345  70.725  0.00  0.00    +0.000 C 
BRANCH   3   4
ATOM      4  C   UNL     1      60.258  30.346  69.954  0.00  0.00    +0.000 C 
ATOM      5  C   UNL     1      61.229  29.304  70.417  0.00  0.00    +0.000 C 
BRANCH   4   7
ATOM      6  C   UNL     1      59.086  30.103  67.627  0.00  0.00    +0.000 C 
ATOM      7  C   UNL     1      59.622  30.215  68.696  0.00  0.00    +0.000 C 
BRANCH   6   8
ATOM      8  C   UNL     1      58.402  29.954  66.264  0.00  0.00    +0.000 C 
BRANCH   8   9
ATOM      9  C   UNL     1      57.832  29.824  65.106  0.00  0.00    +0.000 C 
ATOM     10  C   UNL     1      58.640  29.430  63.908  0.00  0.00    +0.000 C 
BRANCH   9  12
ATOM     11  C   UNL     1      55.305  30.453  64.819  0.00  0.00    +0.000 C 
ATOM     12  C   UNL     1      56.466  30.167  64.951  0.00  0.00    +0.000 C 
BRANCH  11  18
ATOM     13  C   UNL     1      52.904  29.737  64.861  0.00  0.00    +0.000 C 
ATOM     14  C   UNL     1      53.612  32.162  64.239  0.00  0.00    +0.000 C 
ATOM     15  C   UNL     1      51.592  30.394  64.933  0.00  0.00    +0.000 C 
ATOM     16  C   UNL     1      51.031  31.678  64.788  0.00  0.00    +0.000 C 
ATOM     17  C   UNL     1      52.191  32.407  64.453  0.00  0.00    +0.000 C 
ATOM     18  C   UNL     1      54.033  30.765  64.669  0.00  0.00    +0.000 C 
ATOM     19  C   UNL     1      52.934  28.743  63.669  0.00  0.00    +0.000 C 
ATOM     20  C   UNL     1      53.136  28.969  66.197  0.00  0.00    +0.000 C 
ATOM     21  C   UNL     1      54.011  32.428  62.784  0.00  0.00    +0.000 C 
BRANCH  14  22
ATOM     22  O   UNL     1      54.329  33.114  64.992  0.00  0.00    +0.000 OA
ATOM     23  H   UNL     1      53.734  33.884  64.948  0.00  0.00    +0.000 HD
ENDBRANCH  14  22
BRANCH  16  24
ATOM     24  O   UNL     1      49.867  31.827  64.046  0.00  0.00    +0.000 OA
BRANCH  24  26
ATOM     25  O   UNL     1      48.580  32.662  65.821  0.00  0.00    +0.000 OA
ATOM     26  C   UNL     1      49.015  32.667  64.684  0.00  0.00    +0.000 C 
ATOM     27  C   UNL     1      48.517  33.787  63.840  0.00  0.00    +0.000 C 
ENDBRANCH  24  26
ENDBRANCH  16  24
ENDBRANCH  11  18
ENDBRANCH   9  12
ENDBRANCH   8   9
ENDBRANCH   6   8
ENDBRANCH   4   7
ENDBRANCH   3   4
ENDBRANCH   2   3
BRANCH   1  28
ATOM     28  C   UNL     1      58.972  34.623  73.270  0.00  0.00    +0.000 C 
BRANCH  28  29
ATOM     29  C   UNL     1      58.665  35.606  74.056  0.00  0.00    +0.000 C 
ATOM     30  C   UNL     1      59.168  35.623  75.467  0.00  0.00    +0.000 C 
BRANCH  29  32
ATOM     31  C   UNL     1      57.097  37.512  73.188  0.00  0.00    +0.000 C 
ATOM     32  C   UNL     1      57.822  36.642  73.589  0.00  0.00    +0.000 C 
BRANCH  31  33
ATOM     33  C   UNL     1      56.161  38.611  72.672  0.00  0.00    +0.000 C 
BRANCH  33  34
ATOM     34  C   UNL     1      55.367  39.547  72.242  0.00  0.00    +0.000 C 
ATOM     35  C   UNL     1      55.540  40.923  72.852  0.00  0.00    +0.000 C 
BRANCH  34  37
ATOM     36  O   UNL     1      53.201  39.757  71.255  0.00  0.00    +0.000 OA
ATOM     37  C   UNL     1      54.312  39.237  71.228  0.00  0.00    +0.000 C 
BRANCH  37  38
ATOM     38  C   UNL     1      54.562  38.302  70.158  0.00  0.00    +0.000 C 
BRANCH  38  40
ATOM     39  O   UNL     1      54.206  36.083  69.388  0.00  0.00    +0.000 OA
ATOM     40  C   UNL     1      54.845  37.356  69.096  0.00  0.00    +0.000 C 
ATOM     41  C   UNL     1      53.678  36.784  68.264  0.00  0.00    +0.000 C 
ATOM     42  C   UNL     1      56.290  37.290  68.483  0.00  0.00    +0.000 C 
ATOM     43  C   UNL     1      54.006  36.147  67.029  0.00  0.00    +0.000 C 
ATOM     44  C   UNL     1      56.201  36.484  67.263  0.00  0.00    +0.000 C 
ATOM     45  C   UNL     1      55.244  35.895  66.414  0.00  0.00    +0.000 C 
ATOM     46  C   UNL     1      52.225  37.228  68.454  0.00  0.00    +0.000 C 
ATOM     47  C   UNL     1      56.668  38.756  68.157  0.00  0.00    +0.000 C 
ATOM     48  C   UNL     1      57.189  36.678  69.580  0.00  0.00    +0.000 C 
BRANCH  45  49
ATOM     49  O   UNL     1      55.406  35.882  65.062  0.00  0.00    +0.000 OA
ATOM     50  H   UNL     1      55.736  35.025  64.736  0.00  0.00    +0.000 HD
ENDBRANCH  45  49
ENDBRANCH  38  40
ENDBRANCH  37  38
ENDBRANCH  34  37
ENDBRANCH  33  34
ENDBRANCH  31  33
ENDBRANCH  29  32
ENDBRANCH  28  29
ENDBRANCH   1  28
TORSDOF 19
ENDMDL
MODEL 4
REMARK VINA RESULT:      -5.5      1.769      2.607
REMARK  Name = 5281239_Fucoxanthin.pdbqt.pdb
REMARK  19 active torsions:
REMARK  status: ('A' for Active; 'I' for Inactive)
REMARK    1  A    between atoms: C_1  and  C_5
REMARK    2  A    between atoms: C_2  and  C_26
REMARK    3  A    between atoms: C_3  and  C_5
REMARK    4  A    between atoms: C_3  and  C_7
REMARK    5  A    between atoms: C_6  and  C_10
REMARK    6  A    between atoms: C_8  and  C_10
REMARK    7  A    between atoms: C_8  and  C_12
REMARK    8  A    between atoms: C_12  and  C_13
REMARK    9  A    between atoms: C_13  and  C_15
REMARK   10  A    between atoms: C_20  and  O_24
REMARK   11  A    between atoms: C_26  and  C_27
REMARK   12  A    between atoms: C_27  and  C_30
REMARK   13  A    between atoms: C_29  and  C_33
REMARK   14  A    between atoms: C_31  and  C_33
REMARK   15  A    between atoms: C_31  and  C_44
REMARK   16  A    between atoms: C_35  and  O_45
REMARK   17  A    between atoms: C_37  and  O_47
REMARK   18  A    between atoms: C_39  and  C_43
REMARK   19  A    between atoms: O_47  and  C_49
REMARK                            x       y       z     vdW  Elec       q    Type
REMARK                         _______ _______ _______ _____ _____    ______ ____
ROOT
ATOM      1  C   UNL     1      56.366  39.519  85.224  0.00  0.00    +0.000 C 
ATOM      2  C   UNL     1      55.964  40.639  85.073  0.00  0.00    +0.000 C 
ENDROOT
BRANCH   2   3
ATOM      3  C   UNL     1      55.445  42.069  84.881  0.00  0.00    +0.000 C 
BRANCH   3   4
ATOM      4  C   UNL     1      55.005  43.278  84.724  0.00  0.00    +0.000 C 
ATOM      5  C   UNL     1      55.818  44.439  85.212  0.00  0.00    +0.000 C 
BRANCH   4   7
ATOM      6  C   UNL     1      52.748  43.695  83.468  0.00  0.00    +0.000 C 
ATOM      7  C   UNL     1      53.783  43.502  84.045  0.00  0.00    +0.000 C 
BRANCH   6   8
ATOM      8  C   UNL     1      51.428  43.943  82.729  0.00  0.00    +0.000 C 
BRANCH   8   9
ATOM      9  C   UNL     1      50.307  44.155  82.112  0.00  0.00    +0.000 C 
ATOM     10  C   UNL     1      50.036  45.483  81.476  0.00  0.00    +0.000 C 
BRANCH   9  12
ATOM     11  C   UNL     1      48.433  42.325  82.166  0.00  0.00    +0.000 C 
ATOM     12  C   UNL     1      49.291  43.167  82.140  0.00  0.00    +0.000 C 
BRANCH  11  18
ATOM     13  C   UNL     1      47.558  40.137  81.313  0.00  0.00    +0.000 C 
ATOM     14  C   UNL     1      46.254  41.561  83.056  0.00  0.00    +0.000 C 
ATOM     15  C   UNL     1      46.567  39.141  81.740  0.00  0.00    +0.000 C 
ATOM     16  C   UNL     1      45.502  39.018  82.653  0.00  0.00    +0.000 C 
ATOM     17  C   UNL     1      45.514  40.314  83.208  0.00  0.00    +0.000 C 
ATOM     18  C   UNL     1      47.494  41.400  82.190  0.00  0.00    +0.000 C 
ATOM     19  C   UNL     1      47.298  40.546  79.838  0.00  0.00    +0.000 C 
ATOM     20  C   UNL     1      48.974  39.498  81.443  0.00  0.00    +0.000 C 
ATOM     21  C   UNL     1      45.357  42.681  82.521  0.00  0.00    +0.000 C 
BRANCH  14  22
ATOM     22  O   UNL     1      46.641  41.989  84.343  0.00  0.00    +0.000 OA
ATOM     23  H   UNL     1      47.231  42.735  84.129  0.00  0.00    +0.000 HD
ENDBRANCH  14  22
BRANCH  16  24
ATOM     24  O   UNL     1      44.310  38.446  82.229  0.00  0.00    +0.000 OA
BRANCH  24  26
ATOM     25  O   UNL     1      43.170  37.640  84.116  0.00  0.00    +0.000 OA
ATOM     26  C   UNL     1      43.886  37.531  83.137  0.00  0.00    +0.000 C 
ATOM     27  C   UNL     1      44.398  36.155  82.899  0.00  0.00    +0.000 C 
ENDBRANCH  24  26
ENDBRANCH  16  24
ENDBRANCH  11  18
ENDBRANCH   9  12
ENDBRANCH   8   9
ENDBRANCH   6   8
ENDBRANCH   4   7
ENDBRANCH   3   4
ENDBRANCH   2   3
BRANCH   1  28
ATOM     28  C   UNL     1      56.869  38.083  85.418  0.00  0.00    +0.000 C 
BRANCH  28  29
ATOM     29  C   UNL     1      57.303  36.875  85.587  0.00  0.00    +0.000 C 
ATOM     30  C   UNL     1      57.532  36.348  86.971  0.00  0.00    +0.000 C 
BRANCH  29  32
ATOM     31  C   UNL     1      57.859  35.384  83.510  0.00  0.00    +0.000 C 
ATOM     32  C   UNL     1      57.596  36.068  84.462  0.00  0.00    +0.000 C 
BRANCH  31  33
ATOM     33  C   UNL     1      58.211  34.512  82.299  0.00  0.00    +0.000 C 
BRANCH  33  34
ATOM     34  C   UNL     1      58.500  33.772  81.270  0.00  0.00    +0.000 C 
ATOM     35  C   UNL     1      58.263  32.282  81.412  0.00  0.00    +0.000 C 
BRANCH  34  37
ATOM     36  O   UNL     1      60.280  34.336  79.779  0.00  0.00    +0.000 OA
ATOM     37  C   UNL     1      59.081  34.385  80.036  0.00  0.00    +0.000 C 
BRANCH  37  38
ATOM     38  C   UNL     1      58.243  35.069  79.081  0.00  0.00    +0.000 C 
BRANCH  38  40
ATOM     39  O   UNL     1      56.754  34.841  77.244  0.00  0.00    +0.000 OA
ATOM     40  C   UNL     1      57.415  35.786  78.130  0.00  0.00    +0.000 C 
ATOM     41  C   UNL     1      55.890  35.550  78.129  0.00  0.00    +0.000 C 
ATOM     42  C   UNL     1      57.959  37.104  77.470  0.00  0.00    +0.000 C 
ATOM     43  C   UNL     1      55.082  36.506  77.443  0.00  0.00    +0.000 C 
ATOM     44  C   UNL     1      56.824  37.750  76.808  0.00  0.00    +0.000 C 
ATOM     45  C   UNL     1      55.423  37.651  76.702  0.00  0.00    +0.000 C 
ATOM     46  C   UNL     1      55.187  34.645  79.145  0.00  0.00    +0.000 C 
ATOM     47  C   UNL     1      58.486  37.966  78.643  0.00  0.00    +0.000 C 
ATOM     48  C   UNL     1      59.084  36.663  76.507  0.00  0.00    +0.000 C 
BRANCH  45  49
ATOM     49  O   UNL     1      54.633  38.759  76.654  0.00  0.00    +0.000 OA
ATOM     50  H   UNL     1      54.047  38.764  75.876  0.00  0.00    +0.000 HD
ENDBRANCH  45  49
ENDBRANCH  38  40
ENDBRANCH  37  38
ENDBRANCH  34  37
ENDBRANCH  33  34
ENDBRANCH  31  33
ENDBRANCH  29  32
ENDBRANCH  28  29
ENDBRANCH   1  28
TORSDOF 19
ENDMDL
MODEL 5
REMARK VINA RESULT:      -5.4     42.709     49.542
REMARK  Name = 5281239_Fucoxanthin.pdbqt.pdb
REMARK  19 active torsions:
REMARK  status: ('A' for Active; 'I' for Inactive)
REMARK    1  A    between atoms: C_1  and  C_5
REMARK    2  A    between atoms: C_2  and  C_26
REMARK    3  A    between atoms: C_3  and  C_5
REMARK    4  A    between atoms: C_3  and  C_7
REMARK    5  A    between atoms: C_6  and  C_10
REMARK    6  A    between atoms: C_8  and  C_10
REMARK    7  A    between atoms: C_8  and  C_12
REMARK    8  A    between atoms: C_12  and  C_13
REMARK    9  A    between atoms: C_13  and  C_15
REMARK   10  A    between atoms: C_20  and  O_24
REMARK   11  A    between atoms: C_26  and  C_27
REMARK   12  A    between atoms: C_27  and  C_30
REMARK   13  A    between atoms: C_29  and  C_33
REMARK   14  A    between atoms: C_31  and  C_33
REMARK   15  A    between atoms: C_31  and  C_44
REMARK   16  A    between atoms: C_35  and  O_45
REMARK   17  A    between atoms: C_37  and  O_47
REMARK   18  A    between atoms: C_39  and  C_43
REMARK   19  A    between atoms: O_47  and  C_49
REMARK                            x       y       z     vdW  Elec       q    Type
REMARK                         _______ _______ _______ _____ _____    ______ ____
ROOT
ATOM      1  C   UNL     1      14.567  10.362  79.518  0.00  0.00    +0.000 C 
ATOM      2  C   UNL     1      13.516   9.837  79.271  0.00  0.00    +0.000 C 
ENDROOT
BRANCH   2   3
ATOM      3  C   UNL     1      12.175   9.168  78.948  0.00  0.00    +0.000 C 
BRANCH   3   4
ATOM      4  C   UNL     1      11.043   8.599  78.675  0.00  0.00    +0.000 C 
ATOM      5  C   UNL     1      11.001   7.137  78.346  0.00  0.00    +0.000 C 
BRANCH   4   7
ATOM      6  C   UNL     1       8.824   9.979  78.792  0.00  0.00    +0.000 C 
ATOM      7  C   UNL     1       9.844   9.347  78.738  0.00  0.00    +0.000 C 
BRANCH   6   8
ATOM      8  C   UNL     1       7.521  10.783  78.866  0.00  0.00    +0.000 C 
BRANCH   8   9
ATOM      9  C   UNL     1       6.414  11.455  78.930  0.00  0.00    +0.000 C 
ATOM     10  C   UNL     1       6.001  12.340  77.794  0.00  0.00    +0.000 C 
BRANCH   9  12
ATOM     11  C   UNL     1       4.999  11.432  81.136  0.00  0.00    +0.000 C 
ATOM     12  C   UNL     1       5.651  11.442  80.125  0.00  0.00    +0.000 C 
BRANCH  11  18
ATOM     13  C   UNL     1       2.902  10.753  82.328  0.00  0.00    +0.000 C 
ATOM     14  C   UNL     1       4.766  12.143  83.494  0.00  0.00    +0.000 C 
ATOM     15  C   UNL     1       2.457  10.626  83.722  0.00  0.00    +0.000 C 
ATOM     16  C   UNL     1       2.864  11.017  85.012  0.00  0.00    +0.000 C 
ATOM     17  C   UNL     1       4.024  11.748  84.685  0.00  0.00    +0.000 C 
ATOM     18  C   UNL     1       4.283  11.427  82.243  0.00  0.00    +0.000 C 
ATOM     19  C   UNL     1       1.886  11.606  81.522  0.00  0.00    +0.000 C 
ATOM     20  C   UNL     1       2.995   9.321  81.717  0.00  0.00    +0.000 C 
ATOM     21  C   UNL     1       4.740  13.662  83.298  0.00  0.00    +0.000 C 
BRANCH  14  22
ATOM     22  O   UNL     1       6.124  11.829  83.712  0.00  0.00    +0.000 OA
ATOM     23  H   UNL     1       6.293  12.279  84.560  0.00  0.00    +0.000 HD
ENDBRANCH  14  22
BRANCH  16  24
ATOM     24  O   UNL     1       1.923  11.544  85.888  0.00  0.00    +0.000 OA
BRANCH  24  26
ATOM     25  O   UNL     1       2.383  10.099  87.678  0.00  0.00    +0.000 OA
ATOM     26  C   UNL     1       1.656  10.652  86.873  0.00  0.00    +0.000 C 
ATOM     27  C   UNL     1       0.220  10.276  86.980  0.00  0.00    +0.000 C 
ENDBRANCH  24  26
ENDBRANCH  16  24
ENDBRANCH  11  18
ENDBRANCH   9  12
ENDBRANCH   8   9
ENDBRANCH   6   8
ENDBRANCH   4   7
ENDBRANCH   3   4
ENDBRANCH   2   3
BRANCH   1  28
ATOM     28  C   UNL     1      15.910  11.035  79.824  0.00  0.00    +0.000 C 
BRANCH  28  29
ATOM     29  C   UNL     1      17.050  11.593  80.082  0.00  0.00    +0.000 C 
ATOM     30  C   UNL     1      17.451  12.846  79.364  0.00  0.00    +0.000 C 
BRANCH  29  32
ATOM     31  C   UNL     1      18.667  10.486  81.815  0.00  0.00    +0.000 C 
ATOM     32  C   UNL     1      17.931  10.996  81.015  0.00  0.00    +0.000 C 
BRANCH  31  33
ATOM     33  C   UNL     1      19.594   9.832  82.846  0.00  0.00    +0.000 C 
BRANCH  33  34
ATOM     34  C   UNL     1      20.377   9.282  83.727  0.00  0.00    +0.000 C 
ATOM     35  C   UNL     1      21.088  10.216  84.686  0.00  0.00    +0.000 C 
BRANCH  34  37
ATOM     36  O   UNL     1      20.077   7.061  82.900  0.00  0.00    +0.000 OA
ATOM     37  C   UNL     1      20.582   7.801  83.738  0.00  0.00    +0.000 C 
BRANCH  37  38
ATOM     38  C   UNL     1      21.398   7.172  84.750  0.00  0.00    +0.000 C 
BRANCH  38  40
ATOM     39  O   UNL     1      21.337   6.180  86.907  0.00  0.00    +0.000 OA
ATOM     40  C   UNL     1      22.188   6.526  85.780  0.00  0.00    +0.000 C 
ATOM     41  C   UNL     1      21.863   5.071  86.179  0.00  0.00    +0.000 C 
ATOM     42  C   UNL     1      23.615   7.085  86.124  0.00  0.00    +0.000 C 
ATOM     43  C   UNL     1      22.854   4.361  86.921  0.00  0.00    +0.000 C 
ATOM     44  C   UNL     1      24.277   6.080  86.960  0.00  0.00    +0.000 C 
ATOM     45  C   UNL     1      24.109   4.758  87.413  0.00  0.00    +0.000 C 
ATOM     46  C   UNL     1      20.784   4.238  85.482  0.00  0.00    +0.000 C 
ATOM     47  C   UNL     1      24.337   7.243  84.764  0.00  0.00    +0.000 C 
ATOM     48  C   UNL     1      23.382   8.439  86.830  0.00  0.00    +0.000 C 
BRANCH  45  49
ATOM     49  O   UNL     1      25.163   3.903  87.519  0.00  0.00    +0.000 OA
ATOM     50  H   UNL     1      25.753   4.130  88.259  0.00  0.00    +0.000 HD
ENDBRANCH  45  49
ENDBRANCH  38  40
ENDBRANCH  37  38
ENDBRANCH  34  37
ENDBRANCH  33  34
ENDBRANCH  31  33
ENDBRANCH  29  32
ENDBRANCH  28  29
ENDBRANCH   1  28
TORSDOF 19
ENDMDL
MODEL 6
REMARK VINA RESULT:      -5.3      4.799      7.741
REMARK  Name = 5281239_Fucoxanthin.pdbqt.pdb
REMARK  19 active torsions:
REMARK  status: ('A' for Active; 'I' for Inactive)
REMARK    1  A    between atoms: C_1  and  C_5
REMARK    2  A    between atoms: C_2  and  C_26
REMARK    3  A    between atoms: C_3  and  C_5
REMARK    4  A    between atoms: C_3  and  C_7
REMARK    5  A    between atoms: C_6  and  C_10
REMARK    6  A    between atoms: C_8  and  C_10
REMARK    7  A    between atoms: C_8  and  C_12
REMARK    8  A    between atoms: C_12  and  C_13
REMARK    9  A    between atoms: C_13  and  C_15
REMARK   10  A    between atoms: C_20  and  O_24
REMARK   11  A    between atoms: C_26  and  C_27
REMARK   12  A    between atoms: C_27  and  C_30
REMARK   13  A    between atoms: C_29  and  C_33
REMARK   14  A    between atoms: C_31  and  C_33
REMARK   15  A    between atoms: C_31  and  C_44
REMARK   16  A    between atoms: C_35  and  O_45
REMARK   17  A    between atoms: C_37  and  O_47
REMARK   18  A    between atoms: C_39  and  C_43
REMARK   19  A    between atoms: O_47  and  C_49
REMARK                            x       y       z     vdW  Elec       q    Type
REMARK                         _______ _______ _______ _____ _____    ______ ____
ROOT
ATOM      1  C   UNL     1      56.742  38.221  84.504  0.00  0.00    +0.000 C 
ATOM      2  C   UNL     1      56.230  39.301  84.397  0.00  0.00    +0.000 C 
ENDROOT
BRANCH   2   3
ATOM      3  C   UNL     1      55.569  40.678  84.259  0.00  0.00    +0.000 C 
BRANCH   3   4
ATOM      4  C   UNL     1      55.010  41.840  84.138  0.00  0.00    +0.000 C 
ATOM      5  C   UNL     1      55.799  43.083  84.419  0.00  0.00    +0.000 C 
BRANCH   4   7
ATOM      6  C   UNL     1      52.533  42.021  83.315  0.00  0.00    +0.000 C 
ATOM      7  C   UNL     1      53.670  41.936  83.693  0.00  0.00    +0.000 C 
BRANCH   6   8
ATOM      8  C   UNL     1      51.083  42.132  82.830  0.00  0.00    +0.000 C 
BRANCH   8   9
ATOM      9  C   UNL     1      49.854  42.217  82.424  0.00  0.00    +0.000 C 
ATOM     10  C   UNL     1      49.340  43.498  81.843  0.00  0.00    +0.000 C 
BRANCH   9  12
ATOM     11  C   UNL     1      48.215  40.211  82.817  0.00  0.00    +0.000 C 
ATOM     12  C   UNL     1      48.966  41.134  82.638  0.00  0.00    +0.000 C 
BRANCH  11  18
ATOM     13  C   UNL     1      46.912  38.299  81.856  0.00  0.00    +0.000 C 
ATOM     14  C   UNL     1      46.823  38.899  84.386  0.00  0.00    +0.000 C 
ATOM     15  C   UNL     1      46.258  37.086  82.366  0.00  0.00    +0.000 C 
ATOM     16  C   UNL     1      45.847  36.530  83.592  0.00  0.00    +0.000 C 
ATOM     17  C   UNL     1      46.220  37.574  84.464  0.00  0.00    +0.000 C 
ATOM     18  C   UNL     1      47.392  39.199  83.008  0.00  0.00    +0.000 C 
ATOM     19  C   UNL     1      45.920  39.108  80.977  0.00  0.00    +0.000 C 
ATOM     20  C   UNL     1      48.142  37.863  81.002  0.00  0.00    +0.000 C 
ATOM     21  C   UNL     1      45.836  39.988  84.817  0.00  0.00    +0.000 C 
BRANCH  14  22
ATOM     22  O   UNL     1      47.862  38.954  85.337  0.00  0.00    +0.000 OA
ATOM     23  H   UNL     1      47.422  38.587  86.126  0.00  0.00    +0.000 HD
ENDBRANCH  14  22
BRANCH  16  24
ATOM     24  O   UNL     1      44.588  35.952  83.685  0.00  0.00    +0.000 OA
BRANCH  24  26
ATOM     25  O   UNL     1      44.024  35.295  81.505  0.00  0.00    +0.000 OA
ATOM     26  C   UNL     1      43.960  36.014  82.485  0.00  0.00    +0.000 C 
ATOM     27  C   UNL     1      43.039  37.174  82.339  0.00  0.00    +0.000 C 
ENDBRANCH  24  26
ENDBRANCH  16  24
ENDBRANCH  11  18
ENDBRANCH   9  12
ENDBRANCH   8   9
ENDBRANCH   6   8
ENDBRANCH   4   7
ENDBRANCH   3   4
ENDBRANCH   2   3
BRANCH   1  28
ATOM     28  C   UNL     1      57.387  36.837  84.639  0.00  0.00    +0.000 C 
BRANCH  28  29
ATOM     29  C   UNL     1      57.940  35.672  84.760  0.00  0.00    +0.000 C 
ATOM     30  C   UNL     1      57.972  34.732  83.594  0.00  0.00    +0.000 C 
BRANCH  29  32
ATOM     31  C   UNL     1      58.926  34.926  87.066  0.00  0.00    +0.000 C 
ATOM     32  C   UNL     1      58.478  35.275  86.008  0.00  0.00    +0.000 C 
BRANCH  31  33
ATOM     33  C   UNL     1      59.488  34.468  88.417  0.00  0.00    +0.000 C 
BRANCH  33  34
ATOM     34  C   UNL     1      59.973  34.082  89.560  0.00  0.00    +0.000 C 
ATOM     35  C   UNL     1      58.974  33.659  90.618  0.00  0.00    +0.000 C 
BRANCH  34  37
ATOM     36  O   UNL     1      61.955  34.783  90.696  0.00  0.00    +0.000 OA
ATOM     37  C   UNL     1      61.448  34.110  89.805  0.00  0.00    +0.000 C 
BRANCH  37  38
ATOM     38  C   UNL     1      62.350  33.331  88.991  0.00  0.00    +0.000 C 
BRANCH  38  40
ATOM     39  O   UNL     1      63.573  31.302  88.811  0.00  0.00    +0.000 OA
ATOM     40  C   UNL     1      63.279  32.575  88.172  0.00  0.00    +0.000 C 
ATOM     41  C   UNL     1      62.838  31.214  87.592  0.00  0.00    +0.000 C 
ATOM     42  C   UNL     1      64.487  33.312  87.490  0.00  0.00    +0.000 C 
ATOM     43  C   UNL     1      63.621  30.674  86.528  0.00  0.00    +0.000 C 
ATOM     44  C   UNL     1      65.058  32.383  86.512  0.00  0.00    +0.000 C 
ATOM     45  C   UNL     1      64.790  31.142  85.904  0.00  0.00    +0.000 C 
ATOM     46  C   UNL     1      61.426  30.650  87.773  0.00  0.00    +0.000 C 
ATOM     47  C   UNL     1      63.874  34.550  86.792  0.00  0.00    +0.000 C 
ATOM     48  C   UNL     1      65.451  33.696  88.634  0.00  0.00    +0.000 C 
BRANCH  45  49
ATOM     49  O   UNL     1      65.061  30.923  84.587  0.00  0.00    +0.000 OA
ATOM     50  H   UNL     1      64.270  31.013  84.025  0.00  0.00    +0.000 HD
ENDBRANCH  45  49
ENDBRANCH  38  40
ENDBRANCH  37  38
ENDBRANCH  34  37
ENDBRANCH  33  34
ENDBRANCH  31  33
ENDBRANCH  29  32
ENDBRANCH  28  29
ENDBRANCH   1  28
TORSDOF 19
ENDMDL
MODEL 7
REMARK VINA RESULT:      -5.3     17.201     23.810
REMARK  Name = 5281239_Fucoxanthin.pdbqt.pdb
REMARK  19 active torsions:
REMARK  status: ('A' for Active; 'I' for Inactive)
REMARK    1  A    between atoms: C_1  and  C_5
REMARK    2  A    between atoms: C_2  and  C_26
REMARK    3  A    between atoms: C_3  and  C_5
REMARK    4  A    between atoms: C_3  and  C_7
REMARK    5  A    between atoms: C_6  and  C_10
REMARK    6  A    between atoms: C_8  and  C_10
REMARK    7  A    between atoms: C_8  and  C_12
REMARK    8  A    between atoms: C_12  and  C_13
REMARK    9  A    between atoms: C_13  and  C_15
REMARK   10  A    between atoms: C_20  and  O_24
REMARK   11  A    between atoms: C_26  and  C_27
REMARK   12  A    between atoms: C_27  and  C_30
REMARK   13  A    between atoms: C_29  and  C_33
REMARK   14  A    between atoms: C_31  and  C_33
REMARK   15  A    between atoms: C_31  and  C_44
REMARK   16  A    between atoms: C_35  and  O_45
REMARK   17  A    between atoms: C_37  and  O_47
REMARK   18  A    between atoms: C_39  and  C_43
REMARK   19  A    between atoms: O_47  and  C_49
REMARK                            x       y       z     vdW  Elec       q    Type
REMARK                         _______ _______ _______ _____ _____    ______ ____
ROOT
ATOM      1  C   UNL     1      39.073  23.251  82.746  0.00  0.00    +0.000 C 
ATOM      2  C   UNL     1      38.085  22.981  83.371  0.00  0.00    +0.000 C 
ENDROOT
BRANCH   2   3
ATOM      3  C   UNL     1      36.823  22.628  84.166  0.00  0.00    +0.000 C 
BRANCH   3   4
ATOM      4  C   UNL     1      35.758  22.331  84.842  0.00  0.00    +0.000 C 
ATOM      5  C   UNL     1      35.792  22.355  86.340  0.00  0.00    +0.000 C 
BRANCH   4   7
ATOM      6  C   UNL     1      33.528  21.778  83.590  0.00  0.00    +0.000 C 
ATOM      7  C   UNL     1      34.552  22.033  84.164  0.00  0.00    +0.000 C 
BRANCH   6   8
ATOM      8  C   UNL     1      32.219  21.451  82.862  0.00  0.00    +0.000 C 
BRANCH   8   9
ATOM      9  C   UNL     1      31.108  21.171  82.255  0.00  0.00    +0.000 C 
ATOM     10  C   UNL     1      30.902  21.587  80.831  0.00  0.00    +0.000 C 
BRANCH   9  12
ATOM     11  C   UNL     1      29.135  20.072  83.583  0.00  0.00    +0.000 C 
ATOM     12  C   UNL     1      30.043  20.576  82.975  0.00  0.00    +0.000 C 
BRANCH  11  18
ATOM     13  C   UNL     1      28.314  18.252  85.097  0.00  0.00    +0.000 C 
ATOM     14  C   UNL     1      26.732  20.098  84.171  0.00  0.00    +0.000 C 
ATOM     15  C   UNL     1      27.150  18.025  85.964  0.00  0.00    +0.000 C 
ATOM     16  C   UNL     1      25.870  18.564  86.196  0.00  0.00    +0.000 C 
ATOM     17  C   UNL     1      25.858  19.579  85.217  0.00  0.00    +0.000 C 
ATOM     18  C   UNL     1      28.138  19.525  84.250  0.00  0.00    +0.000 C 
ATOM     19  C   UNL     1      28.507  17.045  84.141  0.00  0.00    +0.000 C 
ATOM     20  C   UNL     1      29.570  18.415  86.006  0.00  0.00    +0.000 C 
ATOM     21  C   UNL     1      26.129  19.878  82.780  0.00  0.00    +0.000 C 
BRANCH  14  22
ATOM     22  O   UNL     1      26.794  21.499  84.322  0.00  0.00    +0.000 OA
ATOM     23  H   UNL     1      26.180  21.641  85.066  0.00  0.00    +0.000 HD
ENDBRANCH  14  22
BRANCH  16  24
ATOM     24  O   UNL     1      24.788  17.704  86.330  0.00  0.00    +0.000 OA
BRANCH  24  26
ATOM     25  O   UNL     1      22.650  18.665  86.220  0.00  0.00    +0.000 OA
ATOM     26  C   UNL     1      23.702  18.390  86.767  0.00  0.00    +0.000 C 
ATOM     27  C   UNL     1      23.827  18.905  88.157  0.00  0.00    +0.000 C 
ENDBRANCH  24  26
ENDBRANCH  16  24
ENDBRANCH  11  18
ENDBRANCH   9  12
ENDBRANCH   8   9
ENDBRANCH   6   8
ENDBRANCH   4   7
ENDBRANCH   3   4
ENDBRANCH   2   3
BRANCH   1  28
ATOM     28  C   UNL     1      40.335  23.587  81.943  0.00  0.00    +0.000 C 
BRANCH  28  29
ATOM     29  C   UNL     1      41.400  23.862  81.258  0.00  0.00    +0.000 C 
ATOM     30  C   UNL     1      41.312  24.034  79.773  0.00  0.00    +0.000 C 
BRANCH  29  32
ATOM     31  C   UNL     1      43.708  24.055  82.476  0.00  0.00    +0.000 C 
ATOM     32  C   UNL     1      42.651  23.961  81.913  0.00  0.00    +0.000 C 
BRANCH  31  33
ATOM     33  C   UNL     1      45.050  24.187  83.205  0.00  0.00    +0.000 C 
BRANCH  33  34
ATOM     34  C   UNL     1      46.192  24.292  83.818  0.00  0.00    +0.000 C 
ATOM     35  C   UNL     1      47.215  23.208  83.546  0.00  0.00    +0.000 C 
BRANCH  34  37
ATOM     36  O   UNL     1      47.549  25.904  84.945  0.00  0.00    +0.000 OA
ATOM     37  C   UNL     1      46.437  25.415  84.775  0.00  0.00    +0.000 C 
BRANCH  37  38
ATOM     38  C   UNL     1      45.357  25.980  85.548  0.00  0.00    +0.000 C 
BRANCH  38  40
ATOM     39  O   UNL     1      44.286  26.035  87.668  0.00  0.00    +0.000 OA
ATOM     40  C   UNL     1      44.249  26.534  86.303  0.00  0.00    +0.000 C 
ATOM     41  C   UNL     1      44.542  27.431  87.524  0.00  0.00    +0.000 C 
ATOM     42  C   UNL     1      42.832  26.639  85.633  0.00  0.00    +0.000 C 
ATOM     43  C   UNL     1      43.468  28.230  88.021  0.00  0.00    +0.000 C 
ATOM     44  C   UNL     1      42.012  27.490  86.498  0.00  0.00    +0.000 C 
ATOM     45  C   UNL     1      42.125  28.335  87.619  0.00  0.00    +0.000 C 
ATOM     46  C   UNL     1      45.960  27.834  87.940  0.00  0.00    +0.000 C 
ATOM     47  C   UNL     1      43.073  27.309  84.258  0.00  0.00    +0.000 C 
ATOM     48  C   UNL     1      42.316  25.189  85.502  0.00  0.00    +0.000 C 
BRANCH  45  49
ATOM     49  O   UNL     1      41.418  29.495  87.709  0.00  0.00    +0.000 OA
ATOM     50  H   UNL     1      40.986  29.733  86.869  0.00  0.00    +0.000 HD
ENDBRANCH  45  49
ENDBRANCH  38  40
ENDBRANCH  37  38
ENDBRANCH  34  37
ENDBRANCH  33  34
ENDBRANCH  31  33
ENDBRANCH  29  32
ENDBRANCH  28  29
ENDBRANCH   1  28
TORSDOF 19
ENDMDL
MODEL 8
REMARK VINA RESULT:      -5.2     18.841     21.240
REMARK  Name = 5281239_Fucoxanthin.pdbqt.pdb
REMARK  19 active torsions:
REMARK  status: ('A' for Active; 'I' for Inactive)
REMARK    1  A    between atoms: C_1  and  C_5
REMARK    2  A    between atoms: C_2  and  C_26
REMARK    3  A    between atoms: C_3  and  C_5
REMARK    4  A    between atoms: C_3  and  C_7
REMARK    5  A    between atoms: C_6  and  C_10
REMARK    6  A    between atoms: C_8  and  C_10
REMARK    7  A    between atoms: C_8  and  C_12
REMARK    8  A    between atoms: C_12  and  C_13
REMARK    9  A    between atoms: C_13  and  C_15
REMARK   10  A    between atoms: C_20  and  O_24
REMARK   11  A    between atoms: C_26  and  C_27
REMARK   12  A    between atoms: C_27  and  C_30
REMARK   13  A    between atoms: C_29  and  C_33
REMARK   14  A    between atoms: C_31  and  C_33
REMARK   15  A    between atoms: C_31  and  C_44
REMARK   16  A    between atoms: C_35  and  O_45
REMARK   17  A    between atoms: C_37  and  O_47
REMARK   18  A    between atoms: C_39  and  C_43
REMARK   19  A    between atoms: O_47  and  C_49
REMARK                            x       y       z     vdW  Elec       q    Type
REMARK                         _______ _______ _______ _____ _____    ______ ____
ROOT
ATOM      1  C   UNL     1      61.592  18.304  78.604  0.00  0.00    +0.000 C 
ATOM      2  C   UNL     1      61.058  17.761  77.677  0.00  0.00    +0.000 C 
ENDROOT
BRANCH   2   3
ATOM      3  C   UNL     1      60.375  17.061  76.496  0.00  0.00    +0.000 C 
BRANCH   3   4
ATOM      4  C   UNL     1      59.801  16.471  75.495  0.00  0.00    +0.000 C 
ATOM      5  C   UNL     1      60.633  15.873  74.402  0.00  0.00    +0.000 C 
BRANCH   4   7
ATOM      6  C   UNL     1      57.196  16.242  75.433  0.00  0.00    +0.000 C 
ATOM      7  C   UNL     1      58.392  16.348  75.463  0.00  0.00    +0.000 C 
BRANCH   6   8
ATOM      8  C   UNL     1      55.670  16.102  75.392  0.00  0.00    +0.000 C 
BRANCH   8   9
ATOM      9  C   UNL     1      54.380  15.976  75.351  0.00  0.00    +0.000 C 
ATOM     10  C   UNL     1      53.735  15.170  74.265  0.00  0.00    +0.000 C 
BRANCH   9  12
ATOM     11  C   UNL     1      52.885  17.302  77.045  0.00  0.00    +0.000 C 
ATOM     12  C   UNL     1      53.572  16.696  76.267  0.00  0.00    +0.000 C 
BRANCH  11  18
ATOM     13  C   UNL     1      50.808  17.393  78.444  0.00  0.00    +0.000 C 
ATOM     14  C   UNL     1      52.493  19.372  78.342  0.00  0.00    +0.000 C 
ATOM     15  C   UNL     1      50.317  18.181  79.583  0.00  0.00    +0.000 C 
ATOM     16  C   UNL     1      50.634  19.365  80.277  0.00  0.00    +0.000 C 
ATOM     17  C   UNL     1      51.739  19.799  79.515  0.00  0.00    +0.000 C 
ATOM     18  C   UNL     1      52.127  17.965  77.896  0.00  0.00    +0.000 C 
ATOM     19  C   UNL     1      49.755  17.397  77.303  0.00  0.00    +0.000 C 
ATOM     20  C   UNL     1      51.051  15.933  78.935  0.00  0.00    +0.000 C 
ATOM     21  C   UNL     1      52.341  20.368  77.188  0.00  0.00    +0.000 C 
BRANCH  14  22
ATOM     22  O   UNL     1      53.862  19.410  78.677  0.00  0.00    +0.000 OA
ATOM     23  H   UNL     1      53.866  20.061  79.402  0.00  0.00    +0.000 HD
ENDBRANCH  14  22
BRANCH  16  24
ATOM     24  O   UNL     1      49.615  20.249  80.606  0.00  0.00    +0.000 OA
BRANCH  24  26
ATOM     25  O   UNL     1      49.983  20.783  82.861  0.00  0.00    +0.000 OA
ATOM     26  C   UNL     1      49.401  20.232  81.945  0.00  0.00    +0.000 C 
ATOM     27  C   UNL     1      48.259  19.377  82.367  0.00  0.00    +0.000 C 
ENDBRANCH  24  26
ENDBRANCH  16  24
ENDBRANCH  11  18
ENDBRANCH   9  12
ENDBRANCH   8   9
ENDBRANCH   6   8
ENDBRANCH   4   7
ENDBRANCH   3   4
ENDBRANCH   2   3
BRANCH   1  28
ATOM     28  C   UNL     1      62.275  18.989  79.794  0.00  0.00    +0.000 C 
BRANCH  28  29
ATOM     29  C   UNL     1      62.853  19.557  80.804  0.00  0.00    +0.000 C 
ATOM     30  C   UNL     1      62.182  19.567  82.144  0.00  0.00    +0.000 C 
BRANCH  29  32
ATOM     31  C   UNL     1      65.159  20.747  80.467  0.00  0.00    +0.000 C 
ATOM     32  C   UNL     1      64.101  20.201  80.630  0.00  0.00    +0.000 C 
BRANCH  31  33
ATOM     33  C   UNL     1      66.507  21.442  80.244  0.00  0.00    +0.000 C 
BRANCH  33  34
ATOM     34  C   UNL     1      67.654  22.023  80.050  0.00  0.00    +0.000 C 
ATOM     35  C   UNL     1      68.662  21.939  81.178  0.00  0.00    +0.000 C 
BRANCH  34  37
ATOM     36  O   UNL     1      68.650  23.756  78.739  0.00  0.00    +0.000 OA
ATOM     37  C   UNL     1      67.918  22.772  78.782  0.00  0.00    +0.000 C 
BRANCH  37  38
ATOM     38  C   UNL     1      67.315  22.360  77.537  0.00  0.00    +0.000 C 
BRANCH  38  40
ATOM     39  O   UNL     1      66.266  23.117  75.545  0.00  0.00    +0.000 OA
ATOM     40  C   UNL     1      66.679  21.946  76.301  0.00  0.00    +0.000 C 
ATOM     41  C   UNL     1      67.313  22.351  74.954  0.00  0.00    +0.000 C 
ATOM     42  C   UNL     1      65.682  20.732  76.313  0.00  0.00    +0.000 C 
ATOM     43  C   UNL     1      66.877  21.650  73.790  0.00  0.00    +0.000 C 
ATOM     44  C   UNL     1      65.439  20.365  74.916  0.00  0.00    +0.000 C 
ATOM     45  C   UNL     1      65.910  20.643  73.619  0.00  0.00    +0.000 C 
ATOM     46  C   UNL     1      68.639  23.111  74.853  0.00  0.00    +0.000 C 
ATOM     47  C   UNL     1      66.420  19.599  77.068  0.00  0.00    +0.000 C 
ATOM     48  C   UNL     1      64.425  21.222  77.065  0.00  0.00    +0.000 C 
BRANCH  45  49
ATOM     49  O   UNL     1      66.024  19.665  72.678  0.00  0.00    +0.000 OA
ATOM     50  H   UNL     1      66.743  19.840  72.045  0.00  0.00    +0.000 HD
ENDBRANCH  45  49
ENDBRANCH  38  40
ENDBRANCH  37  38
ENDBRANCH  34  37
ENDBRANCH  33  34
ENDBRANCH  31  33
ENDBRANCH  29  32
ENDBRANCH  28  29
ENDBRANCH   1  28
TORSDOF 19
ENDMDL
MODEL 9
REMARK VINA RESULT:      -5.2     15.554     23.609
REMARK  Name = 5281239_Fucoxanthin.pdbqt.pdb
REMARK  19 active torsions:
REMARK  status: ('A' for Active; 'I' for Inactive)
REMARK    1  A    between atoms: C_1  and  C_5
REMARK    2  A    between atoms: C_2  and  C_26
REMARK    3  A    between atoms: C_3  and  C_5
REMARK    4  A    between atoms: C_3  and  C_7
REMARK    5  A    between atoms: C_6  and  C_10
REMARK    6  A    between atoms: C_8  and  C_10
REMARK    7  A    between atoms: C_8  and  C_12
REMARK    8  A    between atoms: C_12  and  C_13
REMARK    9  A    between atoms: C_13  and  C_15
REMARK   10  A    between atoms: C_20  and  O_24
REMARK   11  A    between atoms: C_26  and  C_27
REMARK   12  A    between atoms: C_27  and  C_30
REMARK   13  A    between atoms: C_29  and  C_33
REMARK   14  A    between atoms: C_31  and  C_33
REMARK   15  A    between atoms: C_31  and  C_44
REMARK   16  A    between atoms: C_35  and  O_45
REMARK   17  A    between atoms: C_37  and  O_47
REMARK   18  A    between atoms: C_39  and  C_43
REMARK   19  A    between atoms: O_47  and  C_49
REMARK                            x       y       z     vdW  Elec       q    Type
REMARK                         _______ _______ _______ _____ _____    ______ ____
ROOT
ATOM      1  C   UNL     1      49.290  20.335  81.698  0.00  0.00    +0.000 C 
ATOM      2  C   UNL     1      49.856  19.848  80.759  0.00  0.00    +0.000 C 
ENDROOT
BRANCH   2   3
ATOM      3  C   UNL     1      50.576  19.231  79.554  0.00  0.00    +0.000 C 
BRANCH   3   4
ATOM      4  C   UNL     1      51.188  18.708  78.539  0.00  0.00    +0.000 C 
ATOM      5  C   UNL     1      50.672  18.945  77.152  0.00  0.00    +0.000 C 
BRANCH   4   7
ATOM      6  C   UNL     1      53.375  17.320  78.906  0.00  0.00    +0.000 C 
ATOM      7  C   UNL     1      52.370  17.956  78.737  0.00  0.00    +0.000 C 
BRANCH   6   8
ATOM      8  C   UNL     1      54.660  16.513  79.126  0.00  0.00    +0.000 C 
BRANCH   8   9
ATOM      9  C   UNL     1      55.748  15.831  79.302  0.00  0.00    +0.000 C 
ATOM     10  C   UNL     1      56.095  15.301  80.659  0.00  0.00    +0.000 C 
BRANCH   9  12
ATOM     11  C   UNL     1      57.445  15.562  77.324  0.00  0.00    +0.000 C 
ATOM     12  C   UNL     1      56.669  15.686  78.234  0.00  0.00    +0.000 C 
BRANCH  11  18
ATOM     13  C   UNL     1      58.702  14.042  75.778  0.00  0.00    +0.000 C 
ATOM     14  C   UNL     1      58.970  16.629  75.693  0.00  0.00    +0.000 C 
ATOM     15  C   UNL     1      59.411  14.166  74.497  0.00  0.00    +0.000 C 
ATOM     16  C   UNL     1      59.920  15.171  73.652  0.00  0.00    +0.000 C 
ATOM     17  C   UNL     1      59.597  16.311  74.415  0.00  0.00    +0.000 C 
ATOM     18  C   UNL     1      58.295  15.422  76.326  0.00  0.00    +0.000 C 
ATOM     19  C   UNL     1      59.613  13.345  76.823  0.00  0.00    +0.000 C 
ATOM     20  C   UNL     1      57.419  13.189  75.541  0.00  0.00    +0.000 C 
ATOM     21  C   UNL     1      59.970  17.266  76.663  0.00  0.00    +0.000 C 
BRANCH  14  22
ATOM     22  O   UNL     1      58.004  17.629  75.459  0.00  0.00    +0.000 OA
ATOM     23  H   UNL     1      58.402  18.110  74.710  0.00  0.00    +0.000 HD
ENDBRANCH  14  22
BRANCH  16  24
ATOM     24  O   UNL     1      61.192  15.021  73.113  0.00  0.00    +0.000 OA
BRANCH  24  26
ATOM     25  O   UNL     1      60.263  15.344  70.983  0.00  0.00    +0.000 OA
ATOM     26  C   UNL     1      61.119  14.963  71.761  0.00  0.00    +0.000 C 
ATOM     27  C   UNL     1      62.287  14.306  71.116  0.00  0.00    +0.000 C 
ENDBRANCH  24  26
ENDBRANCH  16  24
ENDBRANCH  11  18
ENDBRANCH   9  12
ENDBRANCH   8   9
ENDBRANCH   6   8
ENDBRANCH   4   7
ENDBRANCH   3   4
ENDBRANCH   2   3
BRANCH   1  28
ATOM     28  C   UNL     1      48.563  20.965  82.892  0.00  0.00    +0.000 C 
BRANCH  28  29
ATOM     29  C   UNL     1      47.959  21.499  83.906  0.00  0.00    +0.000 C 
ATOM     30  C   UNL     1      48.636  21.551  85.241  0.00  0.00    +0.000 C 
BRANCH  29  32
ATOM     31  C   UNL     1      45.521  22.412  83.638  0.00  0.00    +0.000 C 
ATOM     32  C   UNL     1      46.643  21.999  83.757  0.00  0.00    +0.000 C 
BRANCH  31  33
ATOM     33  C   UNL     1      44.083  22.925  83.494  0.00  0.00    +0.000 C 
BRANCH  33  34
ATOM     34  C   UNL     1      42.865  23.359  83.363  0.00  0.00    +0.000 C 
ATOM     35  C   UNL     1      41.799  22.323  83.070  0.00  0.00    +0.000 C 
BRANCH  34  37
ATOM     36  O   UNL     1      41.722  25.368  82.755  0.00  0.00    +0.000 OA
ATOM     37  C   UNL     1      42.568  24.822  83.456  0.00  0.00    +0.000 C 
BRANCH  37  38
ATOM     38  C   UNL     1      43.274  25.665  84.392  0.00  0.00    +0.000 C 
BRANCH  38  40
ATOM     39  O   UNL     1      43.033  27.277  86.120  0.00  0.00    +0.000 OA
ATOM     40  C   UNL     1      43.984  26.486  85.354  0.00  0.00    +0.000 C 
ATOM     41  C   UNL     1      43.725  26.274  86.861  0.00  0.00    +0.000 C 
ATOM     42  C   UNL     1      45.312  27.206  84.927  0.00  0.00    +0.000 C 
ATOM     43  C   UNL     1      44.672  26.833  87.771  0.00  0.00    +0.000 C 
ATOM     44  C   UNL     1      45.945  27.698  86.153  0.00  0.00    +0.000 C 
ATOM     45  C   UNL     1      45.825  27.606  87.554  0.00  0.00    +0.000 C 
ATOM     46  C   UNL     1      42.804  25.176  87.402  0.00  0.00    +0.000 C 
ATOM     47  C   UNL     1      46.177  26.113  84.253  0.00  0.00    +0.000 C 
ATOM     48  C   UNL     1      44.894  28.320  83.942  0.00  0.00    +0.000 C 
BRANCH  45  49
ATOM     49  O   UNL     1      46.922  27.536  88.358  0.00  0.00    +0.000 OA
ATOM     50  H   UNL     1      47.269  28.416  88.590  0.00  0.00    +0.000 HD
ENDBRANCH  45  49
ENDBRANCH  38  40
ENDBRANCH  37  38
ENDBRANCH  34  37
ENDBRANCH  33  34
ENDBRANCH  31  33
ENDBRANCH  29  32
ENDBRANCH  28  29
ENDBRANCH   1  28
TORSDOF 19
ENDMDL
