MODEL 1
REMARK VINA RESULT:      -6.3      0.000      0.000
REMARK  Name = 5281224_Astaxanthin.pdbqt.pdb
REMARK  16 active torsions:
REMARK  status: ('A' for Active; 'I' for Inactive)
REMARK    1  A    between atoms: C_1  and  C_5
REMARK    2  A    between atoms: C_2  and  C_27
REMARK    3  A    between atoms: C_3  and  C_5
REMARK    4  A    between atoms: C_3  and  C_7
REMARK    5  A    between atoms: C_6  and  C_10
REMARK    6  A    between atoms: C_8  and  C_10
REMARK    7  A    between atoms: C_8  and  C_12
REMARK    8  A    between atoms: C_11  and  C_16
REMARK    9  A    between atoms: C_17  and  O_23
REMARK   10  A    between atoms: C_25  and  C_27
REMARK   11  A    between atoms: C_25  and  C_29
REMARK   12  A    between atoms: C_28  and  C_32
REMARK   13  A    between atoms: C_30  and  C_32
REMARK   14  A    between atoms: C_30  and  C_34
REMARK   15  A    between atoms: C_33  and  C_38
REMARK   16  A    between atoms: C_39  and  O_45
REMARK                            x       y       z     vdW  Elec       q    Type
REMARK                         _______ _______ _______ _____ _____    ______ ____
ROOT
ATOM      1  C   UNL     1      52.519  39.497  70.807  0.00  0.00    +0.000 C 
ATOM      2  C   UNL     1      51.392  39.208  70.515  0.00  0.00    +0.000 C 
ENDROOT
BRANCH   2   3
ATOM      3  C   UNL     1      49.951  38.845  70.135  0.00  0.00    +0.000 C 
BRANCH   3   4
ATOM      4  C   UNL     1      48.735  38.536  69.809  0.00  0.00    +0.000 C 
ATOM      5  C   UNL     1      48.439  38.014  68.436  0.00  0.00    +0.000 C 
BRANCH   4   7
ATOM      6  C   UNL     1      46.779  38.957  71.494  0.00  0.00    +0.000 C 
ATOM      7  C   UNL     1      47.678  38.765  70.722  0.00  0.00    +0.000 C 
BRANCH   6   8
ATOM      8  C   UNL     1      45.629  39.199  72.479  0.00  0.00    +0.000 C 
BRANCH   8   9
ATOM      9  C   UNL     1      44.660  39.400  73.318  0.00  0.00    +0.000 C 
ATOM     10  C   UNL     1      43.241  39.380  72.840  0.00  0.00    +0.000 C 
BRANCH   9  12
ATOM     11  C   UNL     1      45.182  39.537  75.882  0.00  0.00    +0.000 C 
ATOM     12  C   UNL     1      44.938  39.485  74.705  0.00  0.00    +0.000 C 
BRANCH  11  16
ATOM     13  O   UNL     1      47.321  37.635  79.860  0.00  0.00    +0.000 OA
ATOM     14  C   UNL     1      44.908  40.771  78.116  0.00  0.00    +0.000 C 
ATOM     15  C   UNL     1      45.362  40.552  79.479  0.00  0.00    +0.000 C 
ATOM     16  C   UNL     1      45.478  39.582  77.300  0.00  0.00    +0.000 C 
ATOM     17  C   UNL     1      46.118  39.618  80.179  0.00  0.00    +0.000 C 
ATOM     18  C   UNL     1      45.495  42.091  77.564  0.00  0.00    +0.000 C 
ATOM     19  C   UNL     1      43.365  40.742  78.056  0.00  0.00    +0.000 C 
ATOM     20  C   UNL     1      46.241  38.598  77.863  0.00  0.00    +0.000 C 
ATOM     21  C   UNL     1      46.638  38.510  79.346  0.00  0.00    +0.000 C 
ATOM     22  C   UNL     1      46.770  37.472  76.964  0.00  0.00    +0.000 C 
BRANCH  17  23
ATOM     23  O   UNL     1      46.369  39.714  81.522  0.00  0.00    +0.000 OA
ATOM     24  H   UNL     1      45.664  39.273  82.038  0.00  0.00    +0.000 HD
ENDBRANCH  17  23
ENDBRANCH  11  16
ENDBRANCH   9  12
ENDBRANCH   8   9
ENDBRANCH   6   8
ENDBRANCH   4   7
ENDBRANCH   3   4
ENDBRANCH   2   3
BRANCH   1  25
ATOM     25  C   UNL     1      53.960  39.874  71.173  0.00  0.00    +0.000 C 
BRANCH  25  26
ATOM     26  C   UNL     1      55.176  40.197  71.483  0.00  0.00    +0.000 C 
ATOM     27  C   UNL     1      55.724  41.529  71.066  0.00  0.00    +0.000 C 
BRANCH  26  29
ATOM     28  C   UNL     1      56.724  38.469  72.690  0.00  0.00    +0.000 C 
ATOM     29  C   UNL     1      56.012  39.262  72.137  0.00  0.00    +0.000 C 
BRANCH  28  30
ATOM     30  C   UNL     1      57.635  37.455  73.394  0.00  0.00    +0.000 C 
BRANCH  30  31
ATOM     31  C   UNL     1      58.398  36.595  73.992  0.00  0.00    +0.000 C 
ATOM     32  C   UNL     1      59.640  36.098  73.315  0.00  0.00    +0.000 C 
BRANCH  31  34
ATOM     33  C   UNL     1      57.939  35.971  76.495  0.00  0.00    +0.000 C 
ATOM     34  C   UNL     1      58.143  36.249  75.342  0.00  0.00    +0.000 C 
BRANCH  33  38
ATOM     35  O   UNL     1      59.613  34.661  80.911  0.00  0.00    +0.000 OA
ATOM     36  C   UNL     1      56.246  35.702  78.405  0.00  0.00    +0.000 C 
ATOM     37  C   UNL     1      56.323  35.339  79.810  0.00  0.00    +0.000 C 
ATOM     38  C   UNL     1      57.707  35.649  77.890  0.00  0.00    +0.000 C 
ATOM     39  C   UNL     1      57.301  34.984  80.734  0.00  0.00    +0.000 C 
ATOM     40  C   UNL     1      55.709  37.145  78.256  0.00  0.00    +0.000 C 
ATOM     41  C   UNL     1      55.390  34.672  77.635  0.00  0.00    +0.000 C 
ATOM     42  C   UNL     1      58.763  35.320  78.691  0.00  0.00    +0.000 C 
ATOM     43  C   UNL     1      58.674  34.956  80.183  0.00  0.00    +0.000 C 
ATOM     44  C   UNL     1      60.173  35.312  78.086  0.00  0.00    +0.000 C 
BRANCH  39  45
ATOM     45  O   UNL     1      57.022  34.692  82.041  0.00  0.00    +0.000 OA
ATOM     46  H   UNL     1      57.165  33.740  82.222  0.00  0.00    +0.000 HD
ENDBRANCH  39  45
ENDBRANCH  33  38
ENDBRANCH  31  34
ENDBRANCH  30  31
ENDBRANCH  28  30
ENDBRANCH  26  29
ENDBRANCH  25  26
ENDBRANCH   1  25
TORSDOF 16
ENDMDL
MODEL 2
REMARK VINA RESULT:      -6.1     52.936     57.570
REMARK  Name = 5281224_Astaxanthin.pdbqt.pdb
REMARK  16 active torsions:
REMARK  status: ('A' for Active; 'I' for Inactive)
REMARK    1  A    between atoms: C_1  and  C_5
REMARK    2  A    between atoms: C_2  and  C_27
REMARK    3  A    between atoms: C_3  and  C_5
REMARK    4  A    between atoms: C_3  and  C_7
REMARK    5  A    between atoms: C_6  and  C_10
REMARK    6  A    between atoms: C_8  and  C_10
REMARK    7  A    between atoms: C_8  and  C_12
REMARK    8  A    between atoms: C_11  and  C_16
REMARK    9  A    between atoms: C_17  and  O_23
REMARK   10  A    between atoms: C_25  and  C_27
REMARK   11  A    between atoms: C_25  and  C_29
REMARK   12  A    between atoms: C_28  and  C_32
REMARK   13  A    between atoms: C_30  and  C_32
REMARK   14  A    between atoms: C_30  and  C_34
REMARK   15  A    between atoms: C_33  and  C_38
REMARK   16  A    between atoms: C_39  and  O_45
REMARK                            x       y       z     vdW  Elec       q    Type
REMARK                         _______ _______ _______ _____ _____    ______ ____
ROOT
ATOM      1  C   UNL     1      12.937   8.915  99.663  0.00  0.00    +0.000 C 
ATOM      2  C   UNL     1      13.358   8.168  98.824  0.00  0.00    +0.000 C 
ENDROOT
BRANCH   2   3
ATOM      3  C   UNL     1      13.904   7.215  97.754  0.00  0.00    +0.000 C 
BRANCH   3   4
ATOM      4  C   UNL     1      14.360   6.408  96.847  0.00  0.00    +0.000 C 
ATOM      5  C   UNL     1      15.188   6.944  95.718  0.00  0.00    +0.000 C 
BRANCH   4   7
ATOM      6  C   UNL     1      13.710   3.875  96.902  0.00  0.00    +0.000 C 
ATOM      7  C   UNL     1      14.009   5.038  96.879  0.00  0.00    +0.000 C 
BRANCH   6   8
ATOM      8  C   UNL     1      13.328   2.391  96.928  0.00  0.00    +0.000 C 
BRANCH   8   9
ATOM      9  C   UNL     1      13.011   1.133  96.945  0.00  0.00    +0.000 C 
ATOM     10  C   UNL     1      12.564   0.491  98.223  0.00  0.00    +0.000 C 
BRANCH   9  12
ATOM     11  C   UNL     1      12.905  -0.200  94.692  0.00  0.00    +0.000 C 
ATOM     12  C   UNL     1      12.942   0.409  95.729  0.00  0.00    +0.000 C 
BRANCH  11  16
ATOM     13  O   UNL     1      15.203  -2.635  91.113  0.00  0.00    +0.000 OA
ATOM     14  C   UNL     1      11.498  -1.127  92.755  0.00  0.00    +0.000 C 
ATOM     15  C   UNL     1      11.777  -1.877  91.543  0.00  0.00    +0.000 C 
ATOM     16  C   UNL     1      12.876  -0.927  93.438  0.00  0.00    +0.000 C 
ATOM     17  C   UNL     1      12.883  -2.417  90.893  0.00  0.00    +0.000 C 
ATOM     18  C   UNL     1      10.584  -1.950  93.693  0.00  0.00    +0.000 C 
ATOM     19  C   UNL     1      10.894   0.250  92.404  0.00  0.00    +0.000 C 
ATOM     20  C   UNL     1      14.039  -1.410  92.910  0.00  0.00    +0.000 C 
ATOM     21  C   UNL     1      14.167  -2.197  91.595  0.00  0.00    +0.000 C 
ATOM     22  C   UNL     1      15.349  -1.171  93.673  0.00  0.00    +0.000 C 
BRANCH  17  23
ATOM     23  O   UNL     1      12.794  -3.099  89.709  0.00  0.00    +0.000 OA
ATOM     24  H   UNL     1      13.198  -3.987  89.789  0.00  0.00    +0.000 HD
ENDBRANCH  17  23
ENDBRANCH  11  16
ENDBRANCH   9  12
ENDBRANCH   8   9
ENDBRANCH   6   8
ENDBRANCH   4   7
ENDBRANCH   3   4
ENDBRANCH   2   3
BRANCH   1  25
ATOM     25  C   UNL     1      12.408   9.873 100.737  0.00  0.00    +0.000 C 
BRANCH  25  26
ATOM     26  C   UNL     1      11.961  10.686 101.642  0.00  0.00    +0.000 C 
ATOM     27  C   UNL     1      12.311  10.466 103.083  0.00  0.00    +0.000 C 
BRANCH  26  29
ATOM     28  C   UNL     1      10.322  12.613 100.977  0.00  0.00    +0.000 C 
ATOM     29  C   UNL     1      11.075  11.728 101.281  0.00  0.00    +0.000 C 
BRANCH  28  30
ATOM     30  C   UNL     1       9.359  13.744 100.592  0.00  0.00    +0.000 C 
BRANCH  30  31
ATOM     31  C   UNL     1       8.542  14.693 100.262  0.00  0.00    +0.000 C 
ATOM     32  C   UNL     1       8.853  16.112 100.634  0.00  0.00    +0.000 C 
BRANCH  31  34
ATOM     33  C   UNL     1       6.493  14.166  98.716  0.00  0.00    +0.000 C 
ATOM     34  C   UNL     1       7.440  14.410  99.417  0.00  0.00    +0.000 C 
BRANCH  33  38
ATOM     35  O   UNL     1       1.958  12.384  98.190  0.00  0.00    +0.000 OA
ATOM     36  C   UNL     1       5.423  14.235  96.384  0.00  0.00    +0.000 C 
ATOM     37  C   UNL     1       4.149  13.824  95.820  0.00  0.00    +0.000 C 
ATOM     38  C   UNL     1       5.341  13.865  97.887  0.00  0.00    +0.000 C 
ATOM     39  C   UNL     1       2.968  13.230  96.256  0.00  0.00    +0.000 C 
ATOM     40  C   UNL     1       5.598  15.766  96.248  0.00  0.00    +0.000 C 
ATOM     41  C   UNL     1       6.577  13.449  95.723  0.00  0.00    +0.000 C 
ATOM     42  C   UNL     1       4.241  13.283  98.447  0.00  0.00    +0.000 C 
ATOM     43  C   UNL     1       2.951  12.906  97.699  0.00  0.00    +0.000 C 
ATOM     44  C   UNL     1       4.255  12.971  99.950  0.00  0.00    +0.000 C 
BRANCH  39  45
ATOM     45  O   UNL     1       1.912  12.972  95.426  0.00  0.00    +0.000 OA
ATOM     46  H   UNL     1       1.070  12.966  95.928  0.00  0.00    +0.000 HD
ENDBRANCH  39  45
ENDBRANCH  33  38
ENDBRANCH  31  34
ENDBRANCH  30  31
ENDBRANCH  28  30
ENDBRANCH  26  29
ENDBRANCH  25  26
ENDBRANCH   1  25
TORSDOF 16
ENDMDL
MODEL 3
REMARK VINA RESULT:      -6.0      9.651     16.060
REMARK  Name = 5281224_Astaxanthin.pdbqt.pdb
REMARK  16 active torsions:
REMARK  status: ('A' for Active; 'I' for Inactive)
REMARK    1  A    between atoms: C_1  and  C_5
REMARK    2  A    between atoms: C_2  and  C_27
REMARK    3  A    between atoms: C_3  and  C_5
REMARK    4  A    between atoms: C_3  and  C_7
REMARK    5  A    between atoms: C_6  and  C_10
REMARK    6  A    between atoms: C_8  and  C_10
REMARK    7  A    between atoms: C_8  and  C_12
REMARK    8  A    between atoms: C_11  and  C_16
REMARK    9  A    between atoms: C_17  and  O_23
REMARK   10  A    between atoms: C_25  and  C_27
REMARK   11  A    between atoms: C_25  and  C_29
REMARK   12  A    between atoms: C_28  and  C_32
REMARK   13  A    between atoms: C_30  and  C_32
REMARK   14  A    between atoms: C_30  and  C_34
REMARK   15  A    between atoms: C_33  and  C_38
REMARK   16  A    between atoms: C_39  and  O_45
REMARK                            x       y       z     vdW  Elec       q    Type
REMARK                         _______ _______ _______ _____ _____    ______ ____
ROOT
ATOM      1  C   UNL     1      57.577  35.997  81.572  0.00  0.00    +0.000 C 
ATOM      2  C   UNL     1      57.580  36.029  82.772  0.00  0.00    +0.000 C 
ENDROOT
BRANCH   2   3
ATOM      3  C   UNL     1      57.585  36.079  84.305  0.00  0.00    +0.000 C 
BRANCH   3   4
ATOM      4  C   UNL     1      57.585  36.116  85.600  0.00  0.00    +0.000 C 
ATOM      5  C   UNL     1      56.790  37.164  86.318  0.00  0.00    +0.000 C 
BRANCH   4   7
ATOM      6  C   UNL     1      59.089  34.456  86.953  0.00  0.00    +0.000 C 
ATOM      7  C   UNL     1      58.398  35.219  86.334  0.00  0.00    +0.000 C 
BRANCH   6   8
ATOM      8  C   UNL     1      59.973  33.482  87.740  0.00  0.00    +0.000 C 
BRANCH   8   9
ATOM      9  C   UNL     1      60.719  32.662  88.413  0.00  0.00    +0.000 C 
ATOM     10  C   UNL     1      61.890  33.182  89.191  0.00  0.00    +0.000 C 
BRANCH   9  12
ATOM     11  C   UNL     1      60.030  30.146  88.651  0.00  0.00    +0.000 C 
ATOM     12  C   UNL     1      60.337  31.303  88.534  0.00  0.00    +0.000 C 
BRANCH  11  16
ATOM     13  O   UNL     1      56.745  26.662  89.693  0.00  0.00    +0.000 OA
ATOM     14  C   UNL     1      60.777  27.693  88.523  0.00  0.00    +0.000 C 
ATOM     15  C   UNL     1      60.141  26.407  88.747  0.00  0.00    +0.000 C 
ATOM     16  C   UNL     1      59.675  28.748  88.800  0.00  0.00    +0.000 C 
ATOM     17  C   UNL     1      58.891  25.923  89.119  0.00  0.00    +0.000 C 
ATOM     18  C   UNL     1      61.233  27.814  87.050  0.00  0.00    +0.000 C 
ATOM     19  C   UNL     1      61.942  27.893  89.518  0.00  0.00    +0.000 C 
ATOM     20  C   UNL     1      58.404  28.409  89.168  0.00  0.00    +0.000 C 
ATOM     21  C   UNL     1      57.881  26.977  89.365  0.00  0.00    +0.000 C 
ATOM     22  C   UNL     1      57.382  29.530  89.404  0.00  0.00    +0.000 C 
BRANCH  17  23
ATOM     23  O   UNL     1      58.612  24.588  89.241  0.00  0.00    +0.000 OA
ATOM     24  H   UNL     1      57.990  24.298  88.543  0.00  0.00    +0.000 HD
ENDBRANCH  17  23
ENDBRANCH  11  16
ENDBRANCH   9  12
ENDBRANCH   8   9
ENDBRANCH   6   8
ENDBRANCH   4   7
ENDBRANCH   3   4
ENDBRANCH   2   3
BRANCH   1  25
ATOM     25  C   UNL     1      57.576  35.966  80.040  0.00  0.00    +0.000 C 
BRANCH  25  26
ATOM     26  C   UNL     1      57.576  35.935  78.744  0.00  0.00    +0.000 C 
ATOM     27  C   UNL     1      56.284  36.069  77.994  0.00  0.00    +0.000 C 
BRANCH  26  29
ATOM     28  C   UNL     1      59.799  35.479  77.444  0.00  0.00    +0.000 C 
ATOM     29  C   UNL     1      58.778  35.687  78.042  0.00  0.00    +0.000 C 
BRANCH  28  30
ATOM     30  C   UNL     1      61.103  35.217  76.680  0.00  0.00    +0.000 C 
BRANCH  30  31
ATOM     31  C   UNL     1      62.200  34.992  76.028  0.00  0.00    +0.000 C 
ATOM     32  C   UNL     1      63.522  35.337  76.645  0.00  0.00    +0.000 C 
BRANCH  31  34
ATOM     33  C   UNL     1      62.130  33.656  73.775  0.00  0.00    +0.000 C 
ATOM     34  C   UNL     1      62.156  34.278  74.804  0.00  0.00    +0.000 C 
BRANCH  33  38
ATOM     35  O   UNL     1      60.489  29.881  71.115  0.00  0.00    +0.000 OA
ATOM     36  C   UNL     1      63.001  33.391  71.375  0.00  0.00    +0.000 C 
ATOM     37  C   UNL     1      62.777  32.446  70.294  0.00  0.00    +0.000 C 
ATOM     38  C   UNL     1      62.110  32.892  72.542  0.00  0.00    +0.000 C 
ATOM     39  C   UNL     1      62.025  31.299  70.062  0.00  0.00    +0.000 C 
ATOM     40  C   UNL     1      62.535  34.805  70.953  0.00  0.00    +0.000 C 
ATOM     41  C   UNL     1      64.482  33.364  71.810  0.00  0.00    +0.000 C 
ATOM     42  C   UNL     1      61.320  31.783  72.448  0.00  0.00    +0.000 C 
ATOM     43  C   UNL     1      61.195  30.877  71.211  0.00  0.00    +0.000 C 
ATOM     44  C   UNL     1      60.464  31.383  73.657  0.00  0.00    +0.000 C 
BRANCH  39  45
ATOM     45  O   UNL     1      62.046  30.620  68.875  0.00  0.00    +0.000 OA
ATOM     46  H   UNL     1      61.207  30.132  68.739  0.00  0.00    +0.000 HD
ENDBRANCH  39  45
ENDBRANCH  33  38
ENDBRANCH  31  34
ENDBRANCH  30  31
ENDBRANCH  28  30
ENDBRANCH  26  29
ENDBRANCH  25  26
ENDBRANCH   1  25
TORSDOF 16
ENDMDL
MODEL 4
REMARK VINA RESULT:      -5.9     13.680     18.257
REMARK  Name = 5281224_Astaxanthin.pdbqt.pdb
REMARK  16 active torsions:
REMARK  status: ('A' for Active; 'I' for Inactive)
REMARK    1  A    between atoms: C_1  and  C_5
REMARK    2  A    between atoms: C_2  and  C_27
REMARK    3  A    between atoms: C_3  and  C_5
REMARK    4  A    between atoms: C_3  and  C_7
REMARK    5  A    between atoms: C_6  and  C_10
REMARK    6  A    between atoms: C_8  and  C_10
REMARK    7  A    between atoms: C_8  and  C_12
REMARK    8  A    between atoms: C_11  and  C_16
REMARK    9  A    between atoms: C_17  and  O_23
REMARK   10  A    between atoms: C_25  and  C_27
REMARK   11  A    between atoms: C_25  and  C_29
REMARK   12  A    between atoms: C_28  and  C_32
REMARK   13  A    between atoms: C_30  and  C_32
REMARK   14  A    between atoms: C_30  and  C_34
REMARK   15  A    between atoms: C_33  and  C_38
REMARK   16  A    between atoms: C_39  and  O_45
REMARK                            x       y       z     vdW  Elec       q    Type
REMARK                         _______ _______ _______ _____ _____    ______ ____
ROOT
ATOM      1  C   UNL     1      38.999  25.482  77.597  0.00  0.00    +0.000 C 
ATOM      2  C   UNL     1      39.499  24.783  78.435  0.00  0.00    +0.000 C 
ENDROOT
BRANCH   2   3
ATOM      3  C   UNL     1      40.132  23.893  79.512  0.00  0.00    +0.000 C 
BRANCH   3   4
ATOM      4  C   UNL     1      40.670  23.147  80.424  0.00  0.00    +0.000 C 
ATOM      5  C   UNL     1      40.148  21.761  80.660  0.00  0.00    +0.000 C 
BRANCH   4   7
ATOM      6  C   UNL     1      42.562  24.112  81.951  0.00  0.00    +0.000 C 
ATOM      7  C   UNL     1      41.694  23.667  81.251  0.00  0.00    +0.000 C 
BRANCH   6   8
ATOM      8  C   UNL     1      43.668  24.684  82.846  0.00  0.00    +0.000 C 
BRANCH   8   9
ATOM      9  C   UNL     1      44.599  25.165  83.610  0.00  0.00    +0.000 C 
ATOM     10  C   UNL     1      46.037  25.029  83.211  0.00  0.00    +0.000 C 
BRANCH   9  12
ATOM     11  C   UNL     1      43.935  26.623  85.682  0.00  0.00    +0.000 C 
ATOM     12  C   UNL     1      44.249  25.949  84.737  0.00  0.00    +0.000 C 
BRANCH  11  16
ATOM     13  O   UNL     1      40.487  28.910  88.310  0.00  0.00    +0.000 OA
ATOM     14  C   UNL     1      44.662  27.920  87.774  0.00  0.00    +0.000 C 
ATOM     15  C   UNL     1      43.984  28.707  88.790  0.00  0.00    +0.000 C 
ATOM     16  C   UNL     1      43.544  27.444  86.812  0.00  0.00    +0.000 C 
ATOM     17  C   UNL     1      42.686  29.108  89.090  0.00  0.00    +0.000 C 
ATOM     18  C   UNL     1      45.335  26.685  88.418  0.00  0.00    +0.000 C 
ATOM     19  C   UNL     1      45.667  28.801  87.000  0.00  0.00    +0.000 C 
ATOM     20  C   UNL     1      42.228  27.762  86.993  0.00  0.00    +0.000 C 
ATOM     21  C   UNL     1      41.664  28.620  88.138  0.00  0.00    +0.000 C 
ATOM     22  C   UNL     1      41.196  27.227  85.990  0.00  0.00    +0.000 C 
BRANCH  17  23
ATOM     23  O   UNL     1      42.375  29.883  90.175  0.00  0.00    +0.000 OA
ATOM     24  H   UNL     1      41.550  30.385  90.018  0.00  0.00    +0.000 HD
ENDBRANCH  17  23
ENDBRANCH  11  16
ENDBRANCH   9  12
ENDBRANCH   8   9
ENDBRANCH   6   8
ENDBRANCH   4   7
ENDBRANCH   3   4
ENDBRANCH   2   3
BRANCH   1  25
ATOM     25  C   UNL     1      38.356  26.380  76.534  0.00  0.00    +0.000 C 
BRANCH  25  26
ATOM     26  C   UNL     1      37.810  27.142  75.639  0.00  0.00    +0.000 C 
ATOM     27  C   UNL     1      36.345  27.453  75.716  0.00  0.00    +0.000 C 
BRANCH  26  29
ATOM     28  C   UNL     1      39.225  28.001  73.614  0.00  0.00    +0.000 C 
ATOM     29  C   UNL     1      38.575  27.608  74.544  0.00  0.00    +0.000 C 
BRANCH  28  30
ATOM     30  C   UNL     1      40.057  28.501  72.426  0.00  0.00    +0.000 C 
BRANCH  30  31
ATOM     31  C   UNL     1      40.759  28.914  71.419  0.00  0.00    +0.000 C 
ATOM     32  C   UNL     1      40.391  30.190  70.723  0.00  0.00    +0.000 C 
BRANCH  31  34
ATOM     33  C   UNL     1      42.973  27.660  70.793  0.00  0.00    +0.000 C 
ATOM     34  C   UNL     1      41.962  28.246  71.078  0.00  0.00    +0.000 C 
BRANCH  33  38
ATOM     35  O   UNL     1      47.848  27.480  70.316  0.00  0.00    +0.000 OA
ATOM     36  C   UNL     1      44.035  25.463  69.998  0.00  0.00    +0.000 C 
ATOM     37  C   UNL     1      45.390  25.007  69.733  0.00  0.00    +0.000 C 
ATOM     38  C   UNL     1      44.184  26.937  70.455  0.00  0.00    +0.000 C 
ATOM     39  C   UNL     1      46.682  25.521  69.784  0.00  0.00    +0.000 C 
ATOM     40  C   UNL     1      43.410  24.638  71.147  0.00  0.00    +0.000 C 
ATOM     41  C   UNL     1      43.192  25.408  68.705  0.00  0.00    +0.000 C 
ATOM     42  C   UNL     1      45.393  27.563  70.553  0.00  0.00    +0.000 C 
ATOM     43  C   UNL     1      46.757  26.929  70.231  0.00  0.00    +0.000 C 
ATOM     44  C   UNL     1      45.432  29.021  71.031  0.00  0.00    +0.000 C 
BRANCH  39  45
ATOM     45  O   UNL     1      47.790  24.789  69.455  0.00  0.00    +0.000 OA
ATOM     46  H   UNL     1      47.557  23.846  69.326  0.00  0.00    +0.000 HD
ENDBRANCH  39  45
ENDBRANCH  33  38
ENDBRANCH  31  34
ENDBRANCH  30  31
ENDBRANCH  28  30
ENDBRANCH  26  29
ENDBRANCH  25  26
ENDBRANCH   1  25
TORSDOF 16
ENDMDL
MODEL 5
REMARK VINA RESULT:      -5.8      9.023     14.478
REMARK  Name = 5281224_Astaxanthin.pdbqt.pdb
REMARK  16 active torsions:
REMARK  status: ('A' for Active; 'I' for Inactive)
REMARK    1  A    between atoms: C_1  and  C_5
REMARK    2  A    between atoms: C_2  and  C_27
REMARK    3  A    between atoms: C_3  and  C_5
REMARK    4  A    between atoms: C_3  and  C_7
REMARK    5  A    between atoms: C_6  and  C_10
REMARK    6  A    between atoms: C_8  and  C_10
REMARK    7  A    between atoms: C_8  and  C_12
REMARK    8  A    between atoms: C_11  and  C_16
REMARK    9  A    between atoms: C_17  and  O_23
REMARK   10  A    between atoms: C_25  and  C_27
REMARK   11  A    between atoms: C_25  and  C_29
REMARK   12  A    between atoms: C_28  and  C_32
REMARK   13  A    between atoms: C_30  and  C_32
REMARK   14  A    between atoms: C_30  and  C_34
REMARK   15  A    between atoms: C_33  and  C_38
REMARK   16  A    between atoms: C_39  and  O_45
REMARK                            x       y       z     vdW  Elec       q    Type
REMARK                         _______ _______ _______ _____ _____    ______ ____
ROOT
ATOM      1  C   UNL     1      56.828  36.296  81.581  0.00  0.00    +0.000 C 
ATOM      2  C   UNL     1      56.905  36.614  82.736  0.00  0.00    +0.000 C 
ENDROOT
BRANCH   2   3
ATOM      3  C   UNL     1      57.006  37.029  84.209  0.00  0.00    +0.000 C 
BRANCH   3   4
ATOM      4  C   UNL     1      57.085  37.375  85.456  0.00  0.00    +0.000 C 
ATOM      5  C   UNL     1      57.028  38.824  85.834  0.00  0.00    +0.000 C 
BRANCH   4   7
ATOM      6  C   UNL     1      57.493  35.556  87.291  0.00  0.00    +0.000 C 
ATOM      7  C   UNL     1      57.306  36.392  86.450  0.00  0.00    +0.000 C 
BRANCH   6   8
ATOM      8  C   UNL     1      57.733  34.486  88.362  0.00  0.00    +0.000 C 
BRANCH   8   9
ATOM      9  C   UNL     1      57.938  33.586  89.274  0.00  0.00    +0.000 C 
ATOM     10  C   UNL     1      59.121  33.703  90.187  0.00  0.00    +0.000 C 
BRANCH   9  12
ATOM     11  C   UNL     1      56.150  31.724  89.715  0.00  0.00    +0.000 C 
ATOM     12  C   UNL     1      56.965  32.583  89.503  0.00  0.00    +0.000 C 
BRANCH  11  16
ATOM     13  O   UNL     1      51.508  30.258  90.290  0.00  0.00    +0.000 OA
ATOM     14  C   UNL     1      55.712  29.248  90.233  0.00  0.00    +0.000 C 
ATOM     15  C   UNL     1      54.531  28.435  90.469  0.00  0.00    +0.000 C 
ATOM     16  C   UNL     1      55.178  30.682  89.983  0.00  0.00    +0.000 C 
ATOM     17  C   UNL     1      53.152  28.607  90.522  0.00  0.00    +0.000 C 
ATOM     18  C   UNL     1      56.454  28.757  88.968  0.00  0.00    +0.000 C 
ATOM     19  C   UNL     1      56.618  29.248  91.485  0.00  0.00    +0.000 C 
ATOM     20  C   UNL     1      53.847  30.988  90.002  0.00  0.00    +0.000 C 
ATOM     21  C   UNL     1      52.703  29.996  90.271  0.00  0.00    +0.000 C 
ATOM     22  C   UNL     1      53.420  32.436  89.727  0.00  0.00    +0.000 C 
BRANCH  17  23
ATOM     23  O   UNL     1      52.280  27.583  90.777  0.00  0.00    +0.000 OA
ATOM     24  H   UNL     1      51.746  27.376  89.983  0.00  0.00    +0.000 HD
ENDBRANCH  17  23
ENDBRANCH  11  16
ENDBRANCH   9  12
ENDBRANCH   8   9
ENDBRANCH   6   8
ENDBRANCH   4   7
ENDBRANCH   3   4
ENDBRANCH   2   3
BRANCH   1  25
ATOM     25  C   UNL     1      56.732  35.900  80.103  0.00  0.00    +0.000 C 
BRANCH  25  26
ATOM     26  C   UNL     1      56.652  35.560  78.855  0.00  0.00    +0.000 C 
ATOM     27  C   UNL     1      55.328  35.163  78.273  0.00  0.00    +0.000 C 
BRANCH  26  29
ATOM     28  C   UNL     1      58.818  35.415  77.397  0.00  0.00    +0.000 C 
ATOM     29  C   UNL     1      57.823  35.480  78.067  0.00  0.00    +0.000 C 
BRANCH  28  30
ATOM     30  C   UNL     1      60.087  35.334  76.539  0.00  0.00    +0.000 C 
BRANCH  30  31
ATOM     31  C   UNL     1      61.155  35.262  75.809  0.00  0.00    +0.000 C 
ATOM     32  C   UNL     1      62.446  35.832  76.312  0.00  0.00    +0.000 C 
BRANCH  31  34
ATOM     33  C   UNL     1      61.138  33.855  73.598  0.00  0.00    +0.000 C 
ATOM     34  C   UNL     1      61.136  34.507  74.609  0.00  0.00    +0.000 C 
BRANCH  33  38
ATOM     35  O   UNL     1      63.263  30.510  70.715  0.00  0.00    +0.000 OA
ATOM     36  C   UNL     1      59.978  33.239  71.393  0.00  0.00    +0.000 C 
ATOM     37  C   UNL     1      60.264  32.332  70.294  0.00  0.00    +0.000 C 
ATOM     38  C   UNL     1      61.156  33.061  72.385  0.00  0.00    +0.000 C 
ATOM     39  C   UNL     1      61.250  31.418  69.938  0.00  0.00    +0.000 C 
ATOM     40  C   UNL     1      58.661  32.829  72.094  0.00  0.00    +0.000 C 
ATOM     41  C   UNL     1      59.947  34.698  70.887  0.00  0.00    +0.000 C 
ATOM     42  C   UNL     1      62.187  32.195  72.161  0.00  0.00    +0.000 C 
ATOM     43  C   UNL     1      62.344  31.291  70.926  0.00  0.00    +0.000 C 
ATOM     44  C   UNL     1      63.298  32.083  73.214  0.00  0.00    +0.000 C 
BRANCH  39  45
ATOM     45  O   UNL     1      61.213  30.694  68.777  0.00  0.00    +0.000 OA
ATOM     46  H   UNL     1      61.710  29.856  68.876  0.00  0.00    +0.000 HD
ENDBRANCH  39  45
ENDBRANCH  33  38
ENDBRANCH  31  34
ENDBRANCH  30  31
ENDBRANCH  28  30
ENDBRANCH  26  29
ENDBRANCH  25  26
ENDBRANCH   1  25
TORSDOF 16
ENDMDL
MODEL 6
REMARK VINA RESULT:      -5.8      9.059     15.535
REMARK  Name = 5281224_Astaxanthin.pdbqt.pdb
REMARK  16 active torsions:
REMARK  status: ('A' for Active; 'I' for Inactive)
REMARK    1  A    between atoms: C_1  and  C_5
REMARK    2  A    between atoms: C_2  and  C_27
REMARK    3  A    between atoms: C_3  and  C_5
REMARK    4  A    between atoms: C_3  and  C_7
REMARK    5  A    between atoms: C_6  and  C_10
REMARK    6  A    between atoms: C_8  and  C_10
REMARK    7  A    between atoms: C_8  and  C_12
REMARK    8  A    between atoms: C_11  and  C_16
REMARK    9  A    between atoms: C_17  and  O_23
REMARK   10  A    between atoms: C_25  and  C_27
REMARK   11  A    between atoms: C_25  and  C_29
REMARK   12  A    between atoms: C_28  and  C_32
REMARK   13  A    between atoms: C_30  and  C_32
REMARK   14  A    between atoms: C_30  and  C_34
REMARK   15  A    between atoms: C_33  and  C_38
REMARK   16  A    between atoms: C_39  and  O_45
REMARK                            x       y       z     vdW  Elec       q    Type
REMARK                         _______ _______ _______ _____ _____    ______ ____
ROOT
ATOM      1  C   UNL     1      67.139  32.832  82.150  0.00  0.00    +0.000 C 
ATOM      2  C   UNL     1      67.139  32.998  80.961  0.00  0.00    +0.000 C 
ENDROOT
BRANCH   2   3
ATOM      3  C   UNL     1      67.145  33.204  79.441  0.00  0.00    +0.000 C 
BRANCH   3   4
ATOM      4  C   UNL     1      67.150  33.385  78.158  0.00  0.00    +0.000 C 
ATOM      5  C   UNL     1      68.448  33.592  77.437  0.00  0.00    +0.000 C 
BRANCH   4   7
ATOM      6  C   UNL     1      64.891  33.532  76.847  0.00  0.00    +0.000 C 
ATOM      7  C   UNL     1      65.927  33.466  77.450  0.00  0.00    +0.000 C 
BRANCH   6   8
ATOM      8  C   UNL     1      63.569  33.613  76.075  0.00  0.00    +0.000 C 
BRANCH   8   9
ATOM      9  C   UNL     1      62.451  33.674  75.419  0.00  0.00    +0.000 C 
ATOM     10  C   UNL     1      62.042  32.537  74.533  0.00  0.00    +0.000 C 
BRANCH   9  12
ATOM     11  C   UNL     1      60.772  35.635  75.862  0.00  0.00    +0.000 C 
ATOM     12  C   UNL     1      61.552  34.742  75.660  0.00  0.00    +0.000 C 
BRANCH  11  16
ATOM     13  O   UNL     1      57.492  37.869  78.738  0.00  0.00    +0.000 OA
ATOM     14  C   UNL     1      59.620  37.751  74.976  0.00  0.00    +0.000 C 
ATOM     15  C   UNL     1      58.625  38.678  75.489  0.00  0.00    +0.000 C 
ATOM     16  C   UNL     1      59.818  36.701  76.099  0.00  0.00    +0.000 C 
ATOM     17  C   UNL     1      57.867  38.845  76.644  0.00  0.00    +0.000 C 
ATOM     18  C   UNL     1      60.958  38.487  74.730  0.00  0.00    +0.000 C 
ATOM     19  C   UNL     1      59.091  37.051  73.705  0.00  0.00    +0.000 C 
ATOM     20  C   UNL     1      59.141  36.750  77.284  0.00  0.00    +0.000 C 
ATOM     21  C   UNL     1      58.104  37.814  77.679  0.00  0.00    +0.000 C 
ATOM     22  C   UNL     1      59.422  35.670  78.338  0.00  0.00    +0.000 C 
BRANCH  17  23
ATOM     23  O   UNL     1      56.982  39.875  76.814  0.00  0.00    +0.000 OA
ATOM     24  H   UNL     1      56.326  39.658  77.507  0.00  0.00    +0.000 HD
ENDBRANCH  17  23
ENDBRANCH  11  16
ENDBRANCH   9  12
ENDBRANCH   8   9
ENDBRANCH   6   8
ENDBRANCH   4   7
ENDBRANCH   3   4
ENDBRANCH   2   3
BRANCH   1  25
ATOM     25  C   UNL     1      67.147  32.614  83.667  0.00  0.00    +0.000 C 
BRANCH  25  26
ATOM     26  C   UNL     1      67.149  32.432  84.950  0.00  0.00    +0.000 C 
ATOM     27  C   UNL     1      68.421  32.603  85.726  0.00  0.00    +0.000 C 
BRANCH  26  29
ATOM     28  C   UNL     1      64.980  31.611  86.158  0.00  0.00    +0.000 C 
ATOM     29  C   UNL     1      65.976  31.989  85.604  0.00  0.00    +0.000 C 
BRANCH  28  30
ATOM     30  C   UNL     1      63.707  31.125  86.863  0.00  0.00    +0.000 C 
BRANCH  30  31
ATOM     31  C   UNL     1      62.628  30.722  87.456  0.00  0.00    +0.000 C 
ATOM     32  C   UNL     1      62.561  29.339  88.030  0.00  0.00    +0.000 C 
BRANCH  31  34
ATOM     33  C   UNL     1      60.674  32.414  87.885  0.00  0.00    +0.000 C 
ATOM     34  C   UNL     1      61.575  31.639  87.699  0.00  0.00    +0.000 C 
BRANCH  33  38
ATOM     35  O   UNL     1      57.909  36.156  86.345  0.00  0.00    +0.000 OA
ATOM     36  C   UNL     1      58.786  33.240  89.415  0.00  0.00    +0.000 C 
ATOM     37  C   UNL     1      57.777  34.283  89.339  0.00  0.00    +0.000 C 
ATOM     38  C   UNL     1      59.584  33.348  88.090  0.00  0.00    +0.000 C 
ATOM     39  C   UNL     1      57.379  35.274  88.447  0.00  0.00    +0.000 C 
ATOM     40  C   UNL     1      58.111  31.849  89.486  0.00  0.00    +0.000 C 
ATOM     41  C   UNL     1      59.731  33.499  90.608  0.00  0.00    +0.000 C 
ATOM     42  C   UNL     1      59.297  34.273  87.127  0.00  0.00    +0.000 C 
ATOM     43  C   UNL     1      58.177  35.324  87.202  0.00  0.00    +0.000 C 
ATOM     44  C   UNL     1      60.139  34.286  85.844  0.00  0.00    +0.000 C 
BRANCH  39  45
ATOM     45  O   UNL     1      56.339  36.128  88.695  0.00  0.00    +0.000 OA
ATOM     46  H   UNL     1      55.746  35.761  89.382  0.00  0.00    +0.000 HD
ENDBRANCH  39  45
ENDBRANCH  33  38
ENDBRANCH  31  34
ENDBRANCH  30  31
ENDBRANCH  28  30
ENDBRANCH  26  29
ENDBRANCH  25  26
ENDBRANCH   1  25
TORSDOF 16
ENDMDL
MODEL 7
REMARK VINA RESULT:      -5.7     52.500     57.536
REMARK  Name = 5281224_Astaxanthin.pdbqt.pdb
REMARK  16 active torsions:
REMARK  status: ('A' for Active; 'I' for Inactive)
REMARK    1  A    between atoms: C_1  and  C_5
REMARK    2  A    between atoms: C_2  and  C_27
REMARK    3  A    between atoms: C_3  and  C_5
REMARK    4  A    between atoms: C_3  and  C_7
REMARK    5  A    between atoms: C_6  and  C_10
REMARK    6  A    between atoms: C_8  and  C_10
REMARK    7  A    between atoms: C_8  and  C_12
REMARK    8  A    between atoms: C_11  and  C_16
REMARK    9  A    between atoms: C_17  and  O_23
REMARK   10  A    between atoms: C_25  and  C_27
REMARK   11  A    between atoms: C_25  and  C_29
REMARK   12  A    between atoms: C_28  and  C_32
REMARK   13  A    between atoms: C_30  and  C_32
REMARK   14  A    between atoms: C_30  and  C_34
REMARK   15  A    between atoms: C_33  and  C_38
REMARK   16  A    between atoms: C_39  and  O_45
REMARK                            x       y       z     vdW  Elec       q    Type
REMARK                         _______ _______ _______ _____ _____    ______ ____
ROOT
ATOM      1  C   UNL     1      13.181   9.175  99.673  0.00  0.00    +0.000 C 
ATOM      2  C   UNL     1      13.562   8.422  98.819  0.00  0.00    +0.000 C 
ENDROOT
BRANCH   2   3
ATOM      3  C   UNL     1      14.056   7.463  97.728  0.00  0.00    +0.000 C 
BRANCH   3   4
ATOM      4  C   UNL     1      14.473   6.658  96.802  0.00  0.00    +0.000 C 
ATOM      5  C   UNL     1      15.278   7.191  95.656  0.00  0.00    +0.000 C 
BRANCH   4   7
ATOM      6  C   UNL     1      13.780   4.136  96.853  0.00  0.00    +0.000 C 
ATOM      7  C   UNL     1      14.099   5.293  96.831  0.00  0.00    +0.000 C 
BRANCH   6   8
ATOM      8  C   UNL     1      13.370   2.659  96.878  0.00  0.00    +0.000 C 
BRANCH   8   9
ATOM      9  C   UNL     1      13.031   1.407  96.900  0.00  0.00    +0.000 C 
ATOM     10  C   UNL     1      12.605   0.771  98.188  0.00  0.00    +0.000 C 
BRANCH   9  12
ATOM     11  C   UNL     1      12.824   0.059  94.664  0.00  0.00    +0.000 C 
ATOM     12  C   UNL     1      12.918   0.688  95.684  0.00  0.00    +0.000 C 
BRANCH  11  16
ATOM     13  O   UNL     1      14.880  -2.555  91.063  0.00  0.00    +0.000 OA
ATOM     14  C   UNL     1      11.298  -0.913  92.843  0.00  0.00    +0.000 C 
ATOM     15  C   UNL     1      11.497  -1.713  91.647  0.00  0.00    +0.000 C 
ATOM     16  C   UNL     1      12.714  -0.715  93.443  0.00  0.00    +0.000 C 
ATOM     17  C   UNL     1      12.555  -2.299  90.960  0.00  0.00    +0.000 C 
ATOM     18  C   UNL     1      10.421  -1.681  93.860  0.00  0.00    +0.000 C 
ATOM     19  C   UNL     1      10.700   0.462  92.472  0.00  0.00    +0.000 C 
ATOM     20  C   UNL     1      13.838  -1.241  92.871  0.00  0.00    +0.000 C 
ATOM     21  C   UNL     1      13.879  -2.079  91.583  0.00  0.00    +0.000 C 
ATOM     22  C   UNL     1      15.192  -1.000  93.553  0.00  0.00    +0.000 C 
BRANCH  17  23
ATOM     23  O   UNL     1      12.390  -3.024  89.810  0.00  0.00    +0.000 OA
ATOM     24  H   UNL     1      12.423  -3.984  89.997  0.00  0.00    +0.000 HD
ENDBRANCH  17  23
ENDBRANCH  11  16
ENDBRANCH   9  12
ENDBRANCH   8   9
ENDBRANCH   6   8
ENDBRANCH   4   7
ENDBRANCH   3   4
ENDBRANCH   2   3
BRANCH   1  25
ATOM     25  C   UNL     1      12.704  10.142 100.762  0.00  0.00    +0.000 C 
BRANCH  25  26
ATOM     26  C   UNL     1      12.297  10.956 101.685  0.00  0.00    +0.000 C 
ATOM     27  C   UNL     1      13.239  11.384 102.771  0.00  0.00    +0.000 C 
BRANCH  26  29
ATOM     28  C   UNL     1       9.797  11.721 101.746  0.00  0.00    +0.000 C 
ATOM     29  C   UNL     1      10.946  11.371 101.717  0.00  0.00    +0.000 C 
BRANCH  28  30
ATOM     30  C   UNL     1       8.329  12.166 101.785  0.00  0.00    +0.000 C 
BRANCH  30  31
ATOM     31  C   UNL     1       7.090  12.542 101.809  0.00  0.00    +0.000 C 
ATOM     32  C   UNL     1       6.331  12.535 103.102  0.00  0.00    +0.000 C 
BRANCH  31  34
ATOM     33  C   UNL     1       5.997  13.603  99.677  0.00  0.00    +0.000 C 
ATOM     34  C   UNL     1       6.504  13.108 100.649  0.00  0.00    +0.000 C 
BRANCH  33  38
ATOM     35  O   UNL     1       6.028  16.896  96.048  0.00  0.00    +0.000 OA
ATOM     36  C   UNL     1       4.005  13.647  98.060  0.00  0.00    +0.000 C 
ATOM     37  C   UNL     1       3.636  14.436  96.897  0.00  0.00    +0.000 C 
ATOM     38  C   UNL     1       5.375  14.211  98.517  0.00  0.00    +0.000 C 
ATOM     39  C   UNL     1       4.162  15.486  96.151  0.00  0.00    +0.000 C 
ATOM     40  C   UNL     1       4.176  12.161  97.664  0.00  0.00    +0.000 C 
ATOM     41  C   UNL     1       2.966  13.840  99.187  0.00  0.00    +0.000 C 
ATOM     42  C   UNL     1       6.005  15.236  97.873  0.00  0.00    +0.000 C 
ATOM     43  C   UNL     1       5.472  15.976  96.634  0.00  0.00    +0.000 C 
ATOM     44  C   UNL     1       7.367  15.710  98.397  0.00  0.00    +0.000 C 
BRANCH  39  45
ATOM     45  O   UNL     1       3.529  16.019  95.061  0.00  0.00    +0.000 OA
ATOM     46  H   UNL     1       3.847  16.928  94.885  0.00  0.00    +0.000 HD
ENDBRANCH  39  45
ENDBRANCH  33  38
ENDBRANCH  31  34
ENDBRANCH  30  31
ENDBRANCH  28  30
ENDBRANCH  26  29
ENDBRANCH  25  26
ENDBRANCH   1  25
TORSDOF 16
ENDMDL
MODEL 8
REMARK VINA RESULT:      -5.6     16.942     22.071
REMARK  Name = 5281224_Astaxanthin.pdbqt.pdb
REMARK  16 active torsions:
REMARK  status: ('A' for Active; 'I' for Inactive)
REMARK    1  A    between atoms: C_1  and  C_5
REMARK    2  A    between atoms: C_2  and  C_27
REMARK    3  A    between atoms: C_3  and  C_5
REMARK    4  A    between atoms: C_3  and  C_7
REMARK    5  A    between atoms: C_6  and  C_10
REMARK    6  A    between atoms: C_8  and  C_10
REMARK    7  A    between atoms: C_8  and  C_12
REMARK    8  A    between atoms: C_11  and  C_16
REMARK    9  A    between atoms: C_17  and  O_23
REMARK   10  A    between atoms: C_25  and  C_27
REMARK   11  A    between atoms: C_25  and  C_29
REMARK   12  A    between atoms: C_28  and  C_32
REMARK   13  A    between atoms: C_30  and  C_32
REMARK   14  A    between atoms: C_30  and  C_34
REMARK   15  A    between atoms: C_33  and  C_38
REMARK   16  A    between atoms: C_39  and  O_45
REMARK                            x       y       z     vdW  Elec       q    Type
REMARK                         _______ _______ _______ _____ _____    ______ ____
ROOT
ATOM      1  C   UNL     1      63.671  21.894  82.927  0.00  0.00    +0.000 C 
ATOM      2  C   UNL     1      63.960  22.475  83.936  0.00  0.00    +0.000 C 
ENDROOT
BRANCH   2   3
ATOM      3  C   UNL     1      64.322  23.216  85.230  0.00  0.00    +0.000 C 
BRANCH   3   4
ATOM      4  C   UNL     1      64.634  23.838  86.323  0.00  0.00    +0.000 C 
ATOM      5  C   UNL     1      65.719  23.300  87.206  0.00  0.00    +0.000 C 
BRANCH   4   7
ATOM      6  C   UNL     1      63.267  25.943  87.062  0.00  0.00    +0.000 C 
ATOM      7  C   UNL     1      63.896  24.978  86.723  0.00  0.00    +0.000 C 
BRANCH   6   8
ATOM      8  C   UNL     1      62.462  27.173  87.495  0.00  0.00    +0.000 C 
BRANCH   8   9
ATOM      9  C   UNL     1      61.783  28.218  87.856  0.00  0.00    +0.000 C 
ATOM     10  C   UNL     1      60.592  28.063  88.753  0.00  0.00    +0.000 C 
BRANCH   9  12
ATOM     11  C   UNL     1      62.655  30.617  87.269  0.00  0.00    +0.000 C 
ATOM     12  C   UNL     1      62.257  29.512  87.527  0.00  0.00    +0.000 C 
BRANCH  11  16
ATOM     13  O   UNL     1      61.795  35.382  86.512  0.00  0.00    +0.000 OA
ATOM     14  C   UNL     1      64.654  32.148  86.767  0.00  0.00    +0.000 C 
ATOM     15  C   UNL     1      64.826  33.564  86.492  0.00  0.00    +0.000 C 
ATOM     16  C   UNL     1      63.129  31.955  86.973  0.00  0.00    +0.000 C 
ATOM     17  C   UNL     1      64.030  34.699  86.376  0.00  0.00    +0.000 C 
ATOM     18  C   UNL     1      65.393  31.763  88.070  0.00  0.00    +0.000 C 
ATOM     19  C   UNL     1      65.120  31.309  85.556  0.00  0.00    +0.000 C 
ATOM     20  C   UNL     1      62.237  32.985  86.891  0.00  0.00    +0.000 C 
ATOM     21  C   UNL     1      62.586  34.451  86.586  0.00  0.00    +0.000 C 
ATOM     22  C   UNL     1      60.749  32.691  87.127  0.00  0.00    +0.000 C 
BRANCH  17  23
ATOM     23  O   UNL     1      64.535  35.941  86.097  0.00  0.00    +0.000 OA
ATOM     24  H   UNL     1      64.838  35.991  85.168  0.00  0.00    +0.000 HD
ENDBRANCH  17  23
ENDBRANCH  11  16
ENDBRANCH   9  12
ENDBRANCH   8   9
ENDBRANCH   6   8
ENDBRANCH   4   7
ENDBRANCH   3   4
ENDBRANCH   2   3
BRANCH   1  25
ATOM     25  C   UNL     1      63.293  21.150  81.641  0.00  0.00    +0.000 C 
BRANCH  25  26
ATOM     26  C   UNL     1      62.967  20.521  80.555  0.00  0.00    +0.000 C 
ATOM     27  C   UNL     1      61.917  19.451  80.598  0.00  0.00    +0.000 C 
BRANCH  26  29
ATOM     28  C   UNL     1      64.250  21.002  78.327  0.00  0.00    +0.000 C 
ATOM     29  C   UNL     1      63.662  20.782  79.351  0.00  0.00    +0.000 C 
BRANCH  28  30
ATOM     30  C   UNL     1      64.999  21.280  77.018  0.00  0.00    +0.000 C 
BRANCH  30  31
ATOM     31  C   UNL     1      65.640  21.517  75.917  0.00  0.00    +0.000 C 
ATOM     32  C   UNL     1      66.600  22.665  75.842  0.00  0.00    +0.000 C 
BRANCH  31  34
ATOM     33  C   UNL     1      65.488  19.834  73.915  0.00  0.00    +0.000 C 
ATOM     34  C   UNL     1      65.550  20.600  74.840  0.00  0.00    +0.000 C 
BRANCH  33  38
ATOM     35  O   UNL     1      64.767  18.994  69.140  0.00  0.00    +0.000 OA
ATOM     36  C   UNL     1      65.693  17.422  73.061  0.00  0.00    +0.000 C 
ATOM     37  C   UNL     1      65.559  16.769  71.770  0.00  0.00    +0.000 C 
ATOM     38  C   UNL     1      65.421  18.924  72.788  0.00  0.00    +0.000 C 
ATOM     39  C   UNL     1      65.271  17.125  70.456  0.00  0.00    +0.000 C 
ATOM     40  C   UNL     1      67.136  17.259  73.594  0.00  0.00    +0.000 C 
ATOM     41  C   UNL     1      64.635  16.878  74.046  0.00  0.00    +0.000 C 
ATOM     42  C   UNL     1      65.131  19.409  71.545  0.00  0.00    +0.000 C 
ATOM     43  C   UNL     1      65.026  18.570  70.260  0.00  0.00    +0.000 C 
ATOM     44  C   UNL     1      64.893  20.916  71.379  0.00  0.00    +0.000 C 
BRANCH  39  45
ATOM     45  O   UNL     1      65.224  16.220  69.430  0.00  0.00    +0.000 OA
ATOM     46  H   UNL     1      64.563  15.521  69.615  0.00  0.00    +0.000 HD
ENDBRANCH  39  45
ENDBRANCH  33  38
ENDBRANCH  31  34
ENDBRANCH  30  31
ENDBRANCH  28  30
ENDBRANCH  26  29
ENDBRANCH  25  26
ENDBRANCH   1  25
TORSDOF 16
ENDMDL
MODEL 9
REMARK VINA RESULT:      -5.6     40.673     44.800
REMARK  Name = 5281224_Astaxanthin.pdbqt.pdb
REMARK  16 active torsions:
REMARK  status: ('A' for Active; 'I' for Inactive)
REMARK    1  A    between atoms: C_1  and  C_5
REMARK    2  A    between atoms: C_2  and  C_27
REMARK    3  A    between atoms: C_3  and  C_5
REMARK    4  A    between atoms: C_3  and  C_7
REMARK    5  A    between atoms: C_6  and  C_10
REMARK    6  A    between atoms: C_8  and  C_10
REMARK    7  A    between atoms: C_8  and  C_12
REMARK    8  A    between atoms: C_11  and  C_16
REMARK    9  A    between atoms: C_17  and  O_23
REMARK   10  A    between atoms: C_25  and  C_27
REMARK   11  A    between atoms: C_25  and  C_29
REMARK   12  A    between atoms: C_28  and  C_32
REMARK   13  A    between atoms: C_30  and  C_32
REMARK   14  A    between atoms: C_30  and  C_34
REMARK   15  A    between atoms: C_33  and  C_38
REMARK   16  A    between atoms: C_39  and  O_45
REMARK                            x       y       z     vdW  Elec       q    Type
REMARK                         _______ _______ _______ _____ _____    ______ ____
ROOT
ATOM      1  C   UNL     1      22.651   9.086  86.673  0.00  0.00    +0.000 C 
ATOM      2  C   UNL     1      23.368   9.429  87.572  0.00  0.00    +0.000 C 
ENDROOT
BRANCH   2   3
ATOM      3  C   UNL     1      24.289   9.873  88.715  0.00  0.00    +0.000 C 
BRANCH   3   4
ATOM      4  C   UNL     1      25.064  10.244  89.685  0.00  0.00    +0.000 C 
ATOM      5  C   UNL     1      24.949  11.629  90.247  0.00  0.00    +0.000 C 
BRANCH   4   7
ATOM      6  C   UNL     1      26.930   8.632  90.561  0.00  0.00    +0.000 C 
ATOM      7  C   UNL     1      26.072   9.370  90.159  0.00  0.00    +0.000 C 
BRANCH   6   8
ATOM      8  C   UNL     1      28.026   7.693  91.076  0.00  0.00    +0.000 C 
BRANCH   8   9
ATOM      9  C   UNL     1      28.960   6.903  91.509  0.00  0.00    +0.000 C 
ATOM     10  C   UNL     1      30.381   7.124  91.087  0.00  0.00    +0.000 C 
BRANCH   9  12
ATOM     11  C   UNL     1      28.379   5.107  93.325  0.00  0.00    +0.000 C 
ATOM     12  C   UNL     1      28.657   5.931  92.494  0.00  0.00    +0.000 C 
BRANCH  11  16
ATOM     13  O   UNL     1      26.491   3.924  97.690  0.00  0.00    +0.000 OA
ATOM     14  C   UNL     1      28.331   2.630  93.997  0.00  0.00    +0.000 C 
ATOM     15  C   UNL     1      27.876   1.883  95.158  0.00  0.00    +0.000 C 
ATOM     16  C   UNL     1      28.026   4.115  94.322  0.00  0.00    +0.000 C 
ATOM     17  C   UNL     1      27.284   2.147  96.389  0.00  0.00    +0.000 C 
ATOM     18  C   UNL     1      27.525   2.211  92.745  0.00  0.00    +0.000 C 
ATOM     19  C   UNL     1      29.852   2.446  93.807  0.00  0.00    +0.000 C 
ATOM     20  C   UNL     1      27.443   4.511  95.492  0.00  0.00    +0.000 C 
ATOM     21  C   UNL     1      27.015   3.580  96.639  0.00  0.00    +0.000 C 
ATOM     22  C   UNL     1      27.170   6.006  95.710  0.00  0.00    +0.000 C 
BRANCH  17  23
ATOM     23  O   UNL     1      26.970   1.167  97.292  0.00  0.00    +0.000 OA
ATOM     24  H   UNL     1      27.780   0.728  97.623  0.00  0.00    +0.000 HD
ENDBRANCH  17  23
ENDBRANCH  11  16
ENDBRANCH   9  12
ENDBRANCH   8   9
ENDBRANCH   6   8
ENDBRANCH   4   7
ENDBRANCH   3   4
ENDBRANCH   2   3
BRANCH   1  25
ATOM     25  C   UNL     1      21.741   8.651  85.518  0.00  0.00    +0.000 C 
BRANCH  25  26
ATOM     26  C   UNL     1      20.976   8.282  84.540  0.00  0.00    +0.000 C 
ATOM     27  C   UNL     1      21.032   6.869  84.040  0.00  0.00    +0.000 C 
BRANCH  26  29
ATOM     28  C   UNL     1      19.454  10.036  83.336  0.00  0.00    +0.000 C 
ATOM     29  C   UNL     1      20.154   9.230  83.887  0.00  0.00    +0.000 C 
BRANCH  28  30
ATOM     30  C   UNL     1      18.559  11.066  82.634  0.00  0.00    +0.000 C 
BRANCH  30  31
ATOM     31  C   UNL     1      17.806  11.941  82.046  0.00  0.00    +0.000 C 
ATOM     32  C   UNL     1      17.105  11.588  80.770  0.00  0.00    +0.000 C 
BRANCH  31  34
ATOM     33  C   UNL     1      17.286  14.206  83.257  0.00  0.00    +0.000 C 
ATOM     34  C   UNL     1      17.524  13.172  82.691  0.00  0.00    +0.000 C 
BRANCH  33  38
ATOM     35  O   UNL     1      16.075  18.955  83.212  0.00  0.00    +0.000 OA
ATOM     36  C   UNL     1      17.053  15.421  85.505  0.00  0.00    +0.000 C 
ATOM     37  C   UNL     1      16.724  16.776  85.918  0.00  0.00    +0.000 C 
ATOM     38  C   UNL     1      16.997  15.443  83.956  0.00  0.00    +0.000 C 
ATOM     39  C   UNL     1      16.398  17.989  85.319  0.00  0.00    +0.000 C 
ATOM     40  C   UNL     1      15.991  14.430  86.036  0.00  0.00    +0.000 C 
ATOM     41  C   UNL     1      18.482  15.057  85.964  0.00  0.00    +0.000 C 
ATOM     42  C   UNL     1      16.685  16.565  83.243  0.00  0.00    +0.000 C 
ATOM     43  C   UNL     1      16.356  17.943  83.841  0.00  0.00    +0.000 C 
ATOM     44  C   UNL     1      16.641  16.475  81.711  0.00  0.00    +0.000 C 
BRANCH  39  45
ATOM     45  O   UNL     1      16.132  19.126  86.032  0.00  0.00    +0.000 OA
ATOM     46  H   UNL     1      15.739  19.813  85.456  0.00  0.00    +0.000 HD
ENDBRANCH  39  45
ENDBRANCH  33  38
ENDBRANCH  31  34
ENDBRANCH  30  31
ENDBRANCH  28  30
ENDBRANCH  26  29
ENDBRANCH  25  26
ENDBRANCH   1  25
TORSDOF 16
ENDMDL
