MODEL 1
REMARK VINA RESULT:      -6.3      0.000      0.000
REMARK  Name = 5281416_Esculetin.pdbqt.pdb
REMARK  2 active torsions:
REMARK  status: ('A' for Active; 'I' for Inactive)
REMARK    1  A    between atoms: C_7  and  O_12
REMARK    2  A    between atoms: C_8  and  O_14
REMARK                            x       y       z     vdW  Elec       q    Type
REMARK                         _______ _______ _______ _____ _____    ______ ____
ROOT
ATOM      1  O   UNL     1      55.097  35.704  77.576  0.00  0.00    +0.000 OA
ATOM      2  O   UNL     1      54.173  36.984  75.841  0.00  0.00    +0.000 OA
ATOM      3  C   UNL     1      57.585  35.710  77.749  0.00  0.00    +0.000 A 
ATOM      4  C   UNL     1      56.317  35.274  78.224  0.00  0.00    +0.000 A 
ATOM      5  C   UNL     1      58.757  35.302  78.365  0.00  0.00    +0.000 A 
ATOM      6  C   UNL     1      56.206  34.428  79.319  0.00  0.00    +0.000 A 
ATOM      7  C   UNL     1      58.642  34.453  79.463  0.00  0.00    +0.000 A 
ATOM      8  C   UNL     1      57.389  34.025  79.929  0.00  0.00    +0.000 A 
ATOM      9  C   UNL     1      57.516  36.569  76.625  0.00  0.00    +0.000 A 
ATOM     10  C   UNL     1      56.498  36.912  76.104  0.00  0.00    +0.000 A 
ATOM     11  C   UNL     1      55.146  36.571  76.450  0.00  0.00    +0.000 A 
ENDROOT
BRANCH   7  12
ATOM     12  O   UNL     1      59.754  34.006  80.126  0.00  0.00    +0.000 OA
ATOM     13  H   UNL     1      59.465  33.342  80.780  0.00  0.00    +0.000 HD
ENDBRANCH   7  12
BRANCH   8  14
ATOM     14  O   UNL     1      57.323  33.191  81.011  0.00  0.00    +0.000 OA
ATOM     15  H   UNL     1      57.556  32.305  80.668  0.00  0.00    +0.000 HD
ENDBRANCH   8  14
TORSDOF 2
ENDMDL
MODEL 2
REMARK VINA RESULT:      -6.1      1.728      5.048
REMARK  Name = 5281416_Esculetin.pdbqt.pdb
REMARK  2 active torsions:
REMARK  status: ('A' for Active; 'I' for Inactive)
REMARK    1  A    between atoms: C_7  and  O_12
REMARK    2  A    between atoms: C_8  and  O_14
REMARK                            x       y       z     vdW  Elec       q    Type
REMARK                         _______ _______ _______ _____ _____    ______ ____
ROOT
ATOM      1  O   UNL     1      58.811  35.689  79.185  0.00  0.00    +0.000 OA
ATOM      2  O   UNL     1      59.445  33.697  80.250  0.00  0.00    +0.000 OA
ATOM      3  C   UNL     1      56.464  35.797  78.350  0.00  0.00    +0.000 A 
ATOM      4  C   UNL     1      57.741  36.401  78.520  0.00  0.00    +0.000 A 
ATOM      5  C   UNL     1      55.435  36.473  77.715  0.00  0.00    +0.000 A 
ATOM      6  C   UNL     1      58.003  37.683  78.060  0.00  0.00    +0.000 A 
ATOM      7  C   UNL     1      55.701  37.759  77.254  0.00  0.00    +0.000 A 
ATOM      8  C   UNL     1      56.962  38.352  77.424  0.00  0.00    +0.000 A 
ATOM      9  C   UNL     1      56.369  34.487  78.879  0.00  0.00    +0.000 A 
ATOM     10  C   UNL     1      57.266  33.917  79.424  0.00  0.00    +0.000 A 
ATOM     11  C   UNL     1      58.605  34.372  79.679  0.00  0.00    +0.000 A 
ENDROOT
BRANCH   7  12
ATOM     12  O   UNL     1      54.735  38.493  76.615  0.00  0.00    +0.000 OA
ATOM     13  H   UNL     1      54.490  38.018  75.800  0.00  0.00    +0.000 HD
ENDBRANCH   7  12
BRANCH   8  14
ATOM     14  O   UNL     1      57.179  39.618  76.955  0.00  0.00    +0.000 OA
ATOM     15  H   UNL     1      57.254  39.524  75.984  0.00  0.00    +0.000 HD
ENDBRANCH   8  14
TORSDOF 2
ENDMDL
MODEL 3
REMARK VINA RESULT:      -6.0      1.834      4.616
REMARK  Name = 5281416_Esculetin.pdbqt.pdb
REMARK  2 active torsions:
REMARK  status: ('A' for Active; 'I' for Inactive)
REMARK    1  A    between atoms: C_7  and  O_12
REMARK    2  A    between atoms: C_8  and  O_14
REMARK                            x       y       z     vdW  Elec       q    Type
REMARK                         _______ _______ _______ _____ _____    ______ ____
ROOT
ATOM      1  O   UNL     1      56.544  34.734  78.702  0.00  0.00    +0.000 OA
ATOM      2  O   UNL     1      57.652  32.939  79.730  0.00  0.00    +0.000 OA
ATOM      3  C   UNL     1      57.904  36.784  78.294  0.00  0.00    +0.000 A 
ATOM      4  C   UNL     1      56.667  36.088  78.206  0.00  0.00    +0.000 A 
ATOM      5  C   UNL     1      58.029  38.081  77.821  0.00  0.00    +0.000 A 
ATOM      6  C   UNL     1      55.543  36.678  77.647  0.00  0.00    +0.000 A 
ATOM      7  C   UNL     1      56.898  38.670  77.260  0.00  0.00    +0.000 A 
ATOM      8  C   UNL     1      55.679  37.980  77.176  0.00  0.00    +0.000 A 
ATOM      9  C   UNL     1      58.947  36.035  78.892  0.00  0.00    +0.000 A 
ATOM     10  C   UNL     1      58.825  34.918  79.295  0.00  0.00    +0.000 A 
ATOM     11  C   UNL     1      57.661  34.076  79.286  0.00  0.00    +0.000 A 
ENDROOT
BRANCH   7  12
ATOM     12  O   UNL     1      56.941  39.949  76.771  0.00  0.00    +0.000 OA
ATOM     13  H   UNL     1      56.022  40.256  76.657  0.00  0.00    +0.000 HD
ENDBRANCH   7  12
BRANCH   8  14
ATOM     14  O   UNL     1      54.594  38.597  76.617  0.00  0.00    +0.000 OA
ATOM     15  H   UNL     1      54.938  39.432  76.240  0.00  0.00    +0.000 HD
ENDBRANCH   8  14
TORSDOF 2
ENDMDL
MODEL 4
REMARK VINA RESULT:      -5.7      2.805      3.835
REMARK  Name = 5281416_Esculetin.pdbqt.pdb
REMARK  2 active torsions:
REMARK  status: ('A' for Active; 'I' for Inactive)
REMARK    1  A    between atoms: C_7  and  O_12
REMARK    2  A    between atoms: C_8  and  O_14
REMARK                            x       y       z     vdW  Elec       q    Type
REMARK                         _______ _______ _______ _____ _____    ______ ____
ROOT
ATOM      1  O   UNL     1      59.994  34.726  78.845  0.00  0.00    +0.000 OA
ATOM      2  O   UNL     1      61.066  34.811  76.760  0.00  0.00    +0.000 OA
ATOM      3  C   UNL     1      57.916  36.086  79.075  0.00  0.00    +0.000 A 
ATOM      4  C   UNL     1      58.874  35.194  79.633  0.00  0.00    +0.000 A 
ATOM      5  C   UNL     1      56.841  36.538  79.823  0.00  0.00    +0.000 A 
ATOM      6  C   UNL     1      58.768  34.744  80.941  0.00  0.00    +0.000 A 
ATOM      7  C   UNL     1      56.738  36.085  81.136  0.00  0.00    +0.000 A 
ATOM      8  C   UNL     1      57.685  35.204  81.683  0.00  0.00    +0.000 A 
ATOM      9  C   UNL     1      58.175  36.444  77.729  0.00  0.00    +0.000 A 
ATOM     10  C   UNL     1      59.106  36.046  77.097  0.00  0.00    +0.000 A 
ATOM     11  C   UNL     1      60.157  35.151  77.498  0.00  0.00    +0.000 A 
ENDROOT
BRANCH   7  12
ATOM     12  O   UNL     1      55.704  36.486  81.941  0.00  0.00    +0.000 OA
ATOM     13  H   UNL     1      56.073  37.057  82.639  0.00  0.00    +0.000 HD
ENDBRANCH   7  12
BRANCH   8  14
ATOM     14  O   UNL     1      57.545  34.785  82.977  0.00  0.00    +0.000 OA
ATOM     15  H   UNL     1      57.065  35.506  83.432  0.00  0.00    +0.000 HD
ENDBRANCH   8  14
TORSDOF 2
ENDMDL
MODEL 5
REMARK VINA RESULT:      -5.6      2.076      2.512
REMARK  Name = 5281416_Esculetin.pdbqt.pdb
REMARK  2 active torsions:
REMARK  status: ('A' for Active; 'I' for Inactive)
REMARK    1  A    between atoms: C_7  and  O_12
REMARK    2  A    between atoms: C_8  and  O_14
REMARK                            x       y       z     vdW  Elec       q    Type
REMARK                         _______ _______ _______ _____ _____    ______ ____
ROOT
ATOM      1  O   UNL     1      55.715  36.868  79.105  0.00  0.00    +0.000 OA
ATOM      2  O   UNL     1      54.567  36.923  77.059  0.00  0.00    +0.000 OA
ATOM      3  C   UNL     1      57.001  34.789  79.595  0.00  0.00    +0.000 A 
ATOM      4  C   UNL     1      56.571  36.090  79.974  0.00  0.00    +0.000 A 
ATOM      5  C   UNL     1      57.821  34.039  80.422  0.00  0.00    +0.000 A 
ATOM      6  C   UNL     1      56.955  36.656  81.181  0.00  0.00    +0.000 A 
ATOM      7  C   UNL     1      58.205  34.609  81.633  0.00  0.00    +0.000 A 
ATOM      8  C   UNL     1      57.779  35.894  82.003  0.00  0.00    +0.000 A 
ATOM      9  C   UNL     1      56.517  34.365  78.332  0.00  0.00    +0.000 A 
ATOM     10  C   UNL     1      55.811  35.023  77.630  0.00  0.00    +0.000 A 
ATOM     11  C   UNL     1      55.287  36.343  77.854  0.00  0.00    +0.000 A 
ENDROOT
BRANCH   7  12
ATOM     12  O   UNL     1      59.015  33.931  82.505  0.00  0.00    +0.000 OA
ATOM     13  H   UNL     1      59.772  33.581  82.000  0.00  0.00    +0.000 HD
ENDBRANCH   7  12
BRANCH   8  14
ATOM     14  O   UNL     1      58.180  36.416  83.202  0.00  0.00    +0.000 OA
ATOM     15  H   UNL     1      57.883  37.348  83.190  0.00  0.00    +0.000 HD
ENDBRANCH   8  14
TORSDOF 2
ENDMDL
MODEL 6
REMARK VINA RESULT:      -4.9      2.213      3.472
REMARK  Name = 5281416_Esculetin.pdbqt.pdb
REMARK  2 active torsions:
REMARK  status: ('A' for Active; 'I' for Inactive)
REMARK    1  A    between atoms: C_7  and  O_12
REMARK    2  A    between atoms: C_8  and  O_14
REMARK                            x       y       z     vdW  Elec       q    Type
REMARK                         _______ _______ _______ _____ _____    ______ ____
ROOT
ATOM      1  O   UNL     1      56.523  37.098  75.805  0.00  0.00    +0.000 OA
ATOM      2  O   UNL     1      54.206  37.223  76.155  0.00  0.00    +0.000 OA
ATOM      3  C   UNL     1      57.812  35.710  77.427  0.00  0.00    +0.000 A 
ATOM      4  C   UNL     1      57.775  36.549  76.279  0.00  0.00    +0.000 A 
ATOM      5  C   UNL     1      59.007  35.181  77.887  0.00  0.00    +0.000 A 
ATOM      6  C   UNL     1      58.929  36.868  75.579  0.00  0.00    +0.000 A 
ATOM      7  C   UNL     1      60.164  35.503  77.181  0.00  0.00    +0.000 A 
ATOM      8  C   UNL     1      60.123  36.331  76.049  0.00  0.00    +0.000 A 
ATOM      9  C   UNL     1      56.545  35.487  78.021  0.00  0.00    +0.000 A 
ATOM     10  C   UNL     1      55.523  35.949  77.614  0.00  0.00    +0.000 A 
ATOM     11  C   UNL     1      55.306  36.807  76.481  0.00  0.00    +0.000 A 
ENDROOT
BRANCH   7  12
ATOM     12  O   UNL     1      61.385  35.019  77.572  0.00  0.00    +0.000 OA
ATOM     13  H   UNL     1      61.991  35.778  77.662  0.00  0.00    +0.000 HD
ENDBRANCH   7  12
BRANCH   8  14
ATOM     14  O   UNL     1      61.284  36.622  75.387  0.00  0.00    +0.000 OA
ATOM     15  H   UNL     1      61.664  35.755  75.140  0.00  0.00    +0.000 HD
ENDBRANCH   8  14
TORSDOF 2
ENDMDL
MODEL 7
REMARK VINA RESULT:      -4.7     54.515     56.067
REMARK  Name = 5281416_Esculetin.pdbqt.pdb
REMARK  2 active torsions:
REMARK  status: ('A' for Active; 'I' for Inactive)
REMARK    1  A    between atoms: C_7  and  O_12
REMARK    2  A    between atoms: C_8  and  O_14
REMARK                            x       y       z     vdW  Elec       q    Type
REMARK                         _______ _______ _______ _____ _____    ______ ____
ROOT
ATOM      1  O   UNL     1      14.999   5.759  96.081  0.00  0.00    +0.000 OA
ATOM      2  O   UNL     1      16.150   7.605  95.202  0.00  0.00    +0.000 OA
ATOM      3  C   UNL     1      13.576   6.195  98.083  0.00  0.00    +0.000 A 
ATOM      4  C   UNL     1      14.091   5.295  97.108  0.00  0.00    +0.000 A 
ATOM      5  C   UNL     1      12.707   5.757  99.069  0.00  0.00    +0.000 A 
ATOM      6  C   UNL     1      13.744   3.952  97.108  0.00  0.00    +0.000 A 
ATOM      7  C   UNL     1      12.361   4.409  99.066  0.00  0.00    +0.000 A 
ATOM      8  C   UNL     1      12.871   3.524  98.103  0.00  0.00    +0.000 A 
ATOM      9  C   UNL     1      14.032   7.528  97.937  0.00  0.00    +0.000 A 
ATOM     10  C   UNL     1      14.782   7.890  97.081  0.00  0.00    +0.000 A 
ATOM     11  C   UNL     1      15.392   7.125  96.029  0.00  0.00    +0.000 A 
ENDROOT
BRANCH   7  12
ATOM     12  O   UNL     1      11.506   3.899 100.008  0.00  0.00    +0.000 OA
ATOM     13  H   UNL     1      11.739   2.962 100.147  0.00  0.00    +0.000 HD
ENDBRANCH   7  12
BRANCH   8  14
ATOM     14  O   UNL     1      12.504   2.207  98.138  0.00  0.00    +0.000 OA
ATOM     15  H   UNL     1      11.677   2.156  97.617  0.00  0.00    +0.000 HD
ENDBRANCH   8  14
TORSDOF 2
ENDMDL
MODEL 8
REMARK VINA RESULT:      -4.4     15.664     17.354
REMARK  Name = 5281416_Esculetin.pdbqt.pdb
REMARK  2 active torsions:
REMARK  status: ('A' for Active; 'I' for Inactive)
REMARK    1  A    between atoms: C_7  and  O_12
REMARK    2  A    between atoms: C_8  and  O_14
REMARK                            x       y       z     vdW  Elec       q    Type
REMARK                         _______ _______ _______ _____ _____    ______ ____
ROOT
ATOM      1  O   UNL     1      45.604  26.455  85.154  0.00  0.00    +0.000 OA
ATOM      2  O   UNL     1      45.933  28.639  85.947  0.00  0.00    +0.000 OA
ATOM      3  C   UNL     1      43.689  26.124  83.591  0.00  0.00    +0.000 A 
ATOM      4  C   UNL     1      44.794  25.598  84.316  0.00  0.00    +0.000 A 
ATOM      5  C   UNL     1      42.909  25.309  82.787  0.00  0.00    +0.000 A 
ATOM      6  C   UNL     1      45.131  24.254  84.246  0.00  0.00    +0.000 A 
ATOM      7  C   UNL     1      43.251  23.961  82.719  0.00  0.00    +0.000 A 
ATOM      8  C   UNL     1      44.341  23.445  83.435  0.00  0.00    +0.000 A 
ATOM      9  C   UNL     1      43.486  27.514  83.776  0.00  0.00    +0.000 A 
ATOM     10  C   UNL     1      44.166  28.204  84.473  0.00  0.00    +0.000 A 
ATOM     11  C   UNL     1      45.308  27.842  85.267  0.00  0.00    +0.000 A 
ENDROOT
BRANCH   7  12
ATOM     12  O   UNL     1      42.529  23.090  81.946  0.00  0.00    +0.000 OA
ATOM     13  H   UNL     1      41.727  23.554  81.642  0.00  0.00    +0.000 HD
ENDBRANCH   7  12
BRANCH   8  14
ATOM     14  O   UNL     1      44.641  22.114  83.339  0.00  0.00    +0.000 OA
ATOM     15  H   UNL     1      44.382  21.728  84.200  0.00  0.00    +0.000 HD
ENDBRANCH   8  14
TORSDOF 2
ENDMDL
MODEL 9
REMARK VINA RESULT:      -4.4      3.275      5.260
REMARK  Name = 5281416_Esculetin.pdbqt.pdb
REMARK  2 active torsions:
REMARK  status: ('A' for Active; 'I' for Inactive)
REMARK    1  A    between atoms: C_7  and  O_12
REMARK    2  A    between atoms: C_8  and  O_14
REMARK                            x       y       z     vdW  Elec       q    Type
REMARK                         _______ _______ _______ _____ _____    ______ ____
ROOT
ATOM      1  O   UNL     1      60.219  34.704  76.625  0.00  0.00    +0.000 OA
ATOM      2  O   UNL     1      61.946  33.411  75.700  0.00  0.00    +0.000 OA
ATOM      3  C   UNL     1      60.009  37.038  75.773  0.00  0.00    +0.000 A 
ATOM      4  C   UNL     1      59.560  35.992  76.626  0.00  0.00    +0.000 A 
ATOM      5  C   UNL     1      59.383  38.274  75.769  0.00  0.00    +0.000 A 
ATOM      6  C   UNL     1      58.483  36.168  77.482  0.00  0.00    +0.000 A 
ATOM      7  C   UNL     1      58.302  38.447  76.629  0.00  0.00    +0.000 A 
ATOM      8  C   UNL     1      57.861  37.413  77.469  0.00  0.00    +0.000 A 
ATOM      9  C   UNL     1      61.119  36.689  74.965  0.00  0.00    +0.000 A 
ATOM     10  C   UNL     1      61.649  35.619  74.980  0.00  0.00    +0.000 A 
ATOM     11  C   UNL     1      61.329  34.462  75.769  0.00  0.00    +0.000 A 
ENDROOT
BRANCH   7  12
ATOM     12  O   UNL     1      57.629  39.640  76.684  0.00  0.00    +0.000 OA
ATOM     13  H   UNL     1      57.651  39.953  77.607  0.00  0.00    +0.000 HD
ENDBRANCH   7  12
BRANCH   8  14
ATOM     14  O   UNL     1      56.795  37.627  78.298  0.00  0.00    +0.000 OA
ATOM     15  H   UNL     1      56.802  38.588  78.485  0.00  0.00    +0.000 HD
ENDBRANCH   8  14
TORSDOF 2
ENDMDL
