REMARK  Name = 5281239_Fucoxanthin.pdbqt.pdb
REMARK  19 active torsions:
REMARK  status: ('A' for Active; 'I' for Inactive)
REMARK    1  A    between atoms: C_1  and  C_5
REMARK    2  A    between atoms: C_2  and  C_26
REMARK    3  A    between atoms: C_3  and  C_5
REMARK    4  A    between atoms: C_3  and  C_7
REMARK    5  A    between atoms: C_6  and  C_10
REMARK    6  A    between atoms: C_8  and  C_10
REMARK    7  A    between atoms: C_8  and  C_12
REMARK    8  A    between atoms: C_12  and  C_13
REMARK    9  A    between atoms: C_13  and  C_15
REMARK   10  A    between atoms: C_20  and  O_24
REMARK   11  A    between atoms: C_26  and  C_27
REMARK   12  A    between atoms: C_27  and  C_30
REMARK   13  A    between atoms: C_29  and  C_33
REMARK   14  A    between atoms: C_31  and  C_33
REMARK   15  A    between atoms: C_31  and  C_44
REMARK   16  A    between atoms: C_35  and  O_45
REMARK   17  A    between atoms: C_37  and  O_47
REMARK   18  A    between atoms: C_39  and  C_43
REMARK   19  A    between atoms: O_47  and  C_49
REMARK                            x       y       z     vdW  Elec       q    Type
REMARK                         _______ _______ _______ _____ _____    ______ ____
ROOT
ATOM      1  C   UNL     1      -0.725  -1.512   1.042  0.00  0.00    +0.000 C 
ATOM      2  C   UNL     1       0.146  -2.014   0.387  0.00  0.00    +0.000 C 
ENDROOT
BRANCH   2   3
ATOM      3  C   UNL     1       1.254  -2.658  -0.455  0.00  0.00    +0.000 C 
BRANCH   3   4
ATOM      4  C   UNL     1       2.188  -3.202  -1.170  0.00  0.00    +0.000 C 
ATOM      5  C   UNL     1       1.862  -3.774  -2.516  0.00  0.00    +0.000 C 
BRANCH   4   7
ATOM      6  C   UNL     1       4.657  -3.214  -0.304  0.00  0.00    +0.000 C 
ATOM      7  C   UNL     1       3.523  -3.209  -0.700  0.00  0.00    +0.000 C 
BRANCH   6   8
ATOM      8  C   UNL     1       6.105  -3.216   0.199  0.00  0.00    +0.000 C 
BRANCH   8   9
ATOM      9  C   UNL     1       7.331  -3.208   0.621  0.00  0.00    +0.000 C 
ATOM     10  C   UNL     1       7.843  -4.330   1.471  0.00  0.00    +0.000 C 
BRANCH   9  12
ATOM     11  C   UNL     1       8.846  -1.119   0.167  0.00  0.00    +0.000 C 
ATOM     12  C   UNL     1       8.153  -2.080   0.375  0.00  0.00    +0.000 C 
BRANCH  11  18
ATOM     13  C   UNL     1       9.021   1.280  -0.535  0.00  0.00    +0.000 C 
ATOM     14  C   UNL     1      11.116  -0.140   0.067  0.00  0.00    +0.000 C 
ATOM     15  C   UNL     1      10.016   2.356  -0.431  0.00  0.00    +0.000 C 
ATOM     16  C   UNL     1      11.379   2.523  -0.119  0.00  0.00    +0.000 C 
ATOM     17  C   UNL     1      11.739   1.178   0.103  0.00  0.00    +0.000 C 
ATOM     18  C   UNL     1       9.603  -0.065  -0.065  0.00  0.00    +0.000 C 
ATOM     19  C   UNL     1       8.555   1.129  -2.008  0.00  0.00    +0.000 C 
ATOM     20  C   UNL     1       7.807   1.654   0.369  0.00  0.00    +0.000 C 
ATOM     21  C   UNL     1      11.718  -1.012  -1.039  0.00  0.00    +0.000 C 
BRANCH  14  22
ATOM     22  O   UNL     1      11.443  -0.801   1.269  0.00  0.00    +0.000 OA
ATOM     23  H   UNL     1      11.985  -1.542   0.941  0.00  0.00    +0.000 HD
ENDBRANCH  14  22
BRANCH  16  24
ATOM     24  O   UNL     1      12.163   3.337  -0.926  0.00  0.00    +0.000 OA
BRANCH  24  26
ATOM     25  O   UNL     1      13.422   3.824   0.993  0.00  0.00    +0.000 OA
ATOM     26  C   UNL     1      13.154   3.901  -0.192  0.00  0.00    +0.000 C 
ATOM     27  C   UNL     1      14.067   4.778  -0.974  0.00  0.00    +0.000 C 
ENDBRANCH  24  26
ENDBRANCH  16  24
ENDBRANCH  11  18
ENDBRANCH   9  12
ENDBRANCH   8   9
ENDBRANCH   6   8
ENDBRANCH   4   7
ENDBRANCH   3   4
ENDBRANCH   2   3
BRANCH   1  28
ATOM     28  C   UNL     1      -1.845  -0.874   1.872  0.00  0.00    +0.000 C 
BRANCH  28  29
ATOM     29  C   UNL     1      -2.799  -0.339   2.566  0.00  0.00    +0.000 C 
ATOM     30  C   UNL     1      -2.506   0.255   3.910  0.00  0.00    +0.000 C 
BRANCH  29  32
ATOM     31  C   UNL     1      -5.244  -0.372   1.635  0.00  0.00    +0.000 C 
ATOM     32  C   UNL     1      -4.124  -0.352   2.068  0.00  0.00    +0.000 C 
BRANCH  31  33
ATOM     33  C   UNL     1      -6.669  -0.407   1.070  0.00  0.00    +0.000 C 
BRANCH  33  34
ATOM     34  C   UNL     1      -7.874  -0.440   0.583  0.00  0.00    +0.000 C 
ATOM     35  C   UNL     1      -8.329  -1.751  -0.025  0.00  0.00    +0.000 C 
BRANCH  34  37
ATOM     36  O   UNL     1      -8.349   1.849   1.078  0.00  0.00    +0.000 OA
ATOM     37  C   UNL     1      -8.729   0.787   0.595  0.00  0.00    +0.000 C 
BRANCH  37  38
ATOM     38  C   UNL     1     -10.056   0.773   0.027  0.00  0.00    +0.000 C 
BRANCH  38  40
ATOM     39  O   UNL     1     -11.989  -0.529  -0.433  0.00  0.00    +0.000 OA
ATOM     40  C   UNL     1     -11.392   0.793  -0.537  0.00  0.00    +0.000 C 
ATOM     41  C   UNL     1     -12.599   0.478   0.372  0.00  0.00    +0.000 C 
ATOM     42  C   UNL     1     -11.657   1.579  -1.871  0.00  0.00    +0.000 C 
ATOM     43  C   UNL     1     -13.892   0.843  -0.110  0.00  0.00    +0.000 C 
ATOM     44  C   UNL     1     -13.110   1.673  -2.030  0.00  0.00    +0.000 C 
ATOM     45  C   UNL     1     -14.302   1.425  -1.322  0.00  0.00    +0.000 C 
ATOM     46  C   UNL     1     -12.464   0.218   1.875  0.00  0.00    +0.000 C 
ATOM     47  C   UNL     1     -11.027   2.977  -1.659  0.00  0.00    +0.000 C 
ATOM     48  C   UNL     1     -10.951   0.775  -2.985  0.00  0.00    +0.000 C 
BRANCH  45  49
ATOM     49  O   UNL     1     -15.370   2.265  -1.412  0.00  0.00    +0.000 OA
ATOM     50  H   UNL     1     -16.027   2.107  -0.711  0.00  0.00    +0.000 HD
ENDBRANCH  45  49
ENDBRANCH  38  40
ENDBRANCH  37  38
ENDBRANCH  34  37
ENDBRANCH  33  34
ENDBRANCH  31  33
ENDBRANCH  29  32
ENDBRANCH  28  29
ENDBRANCH   1  28
TORSDOF 19
