MODEL 1
REMARK VINA RESULT:      -7.3      0.000      0.000
REMARK  Name = 5281698_sexangularetin.pdbqt.pdb
REMARK  6 active torsions:
REMARK  status: ('A' for Active; 'I' for Inactive)
REMARK    1  A    between atoms: C_5  and  C_12
REMARK    2  A    between atoms: C_6  and  O_20
REMARK    3  A    between atoms: C_8  and  O_22
REMARK    4  A    between atoms: C_9  and  O_24
REMARK    5  A    between atoms: C_10  and  O_26
REMARK    6  A    between atoms: C_17  and  O_18
REMARK                            x       y       z     vdW  Elec       q    Type
REMARK                         _______ _______ _______ _____ _____    ______ ____
ROOT
ATOM      1  O   UNL     1      58.168  35.854  77.131  0.00  0.00    +0.000 OA
ATOM      2  O   UNL     1      54.442  37.200  76.281  0.00  0.00    +0.000 OA
ATOM      3  C   UNL     1      56.632  36.799  75.515  0.00  0.00    +0.000 A 
ATOM      4  C   UNL     1      57.895  36.333  75.875  0.00  0.00    +0.000 A 
ATOM      5  C   UNL     1      57.180  35.880  78.109  0.00  0.00    +0.000 A 
ATOM      6  C   UNL     1      58.926  36.330  74.925  0.00  0.00    +0.000 A 
ATOM      7  C   UNL     1      55.579  36.805  76.532  0.00  0.00    +0.000 A 
ATOM      8  C   UNL     1      55.925  36.313  77.884  0.00  0.00    +0.000 A 
ATOM      9  C   UNL     1      56.384  37.238  74.209  0.00  0.00    +0.000 A 
ATOM     10  C   UNL     1      58.659  36.732  73.611  0.00  0.00    +0.000 A 
ATOM     11  C   UNL     1      57.396  37.197  73.255  0.00  0.00    +0.000 A 
ENDROOT
BRANCH   5  12
ATOM     12  C   UNL     1      57.647  35.365  79.412  0.00  0.00    +0.000 A 
ATOM     13  C   UNL     1      58.292  34.123  79.475  0.00  0.00    +0.000 A 
ATOM     14  C   UNL     1      57.530  36.109  80.590  0.00  0.00    +0.000 A 
ATOM     15  C   UNL     1      58.784  33.627  80.680  0.00  0.00    +0.000 A 
ATOM     16  C   UNL     1      58.016  35.624  81.802  0.00  0.00    +0.000 A 
ATOM     17  C   UNL     1      58.640  34.383  81.836  0.00  0.00    +0.000 A 
BRANCH  17  18
ATOM     18  O   UNL     1      59.111  33.926  83.033  0.00  0.00    +0.000 OA
ATOM     19  H   UNL     1      60.033  34.223  83.130  0.00  0.00    +0.000 HD
ENDBRANCH  17  18
ENDBRANCH   5  12
BRANCH   6  20
ATOM     20  O   UNL     1      60.177  35.850  75.230  0.00  0.00    +0.000 OA
ATOM     21  C   UNL     1      61.033  36.891  75.639  0.00  0.00    +0.000 C 
ENDBRANCH   6  20
BRANCH   8  22
ATOM     22  O   UNL     1      54.916  36.311  78.828  0.00  0.00    +0.000 OA
ATOM     23  H   UNL     1      54.464  37.176  78.735  0.00  0.00    +0.000 HD
ENDBRANCH   8  22
BRANCH   9  24
ATOM     24  O   UNL     1      55.168  37.703  73.792  0.00  0.00    +0.000 OA
ATOM     25  H   UNL     1      54.621  36.942  73.492  0.00  0.00    +0.000 HD
ENDBRANCH   9  24
BRANCH  10  26
ATOM     26  O   UNL     1      59.639  36.654  72.662  0.00  0.00    +0.000 OA
ATOM     27  H   UNL     1      60.291  35.985  72.942  0.00  0.00    +0.000 HD
ENDBRANCH  10  26
TORSDOF 6
ENDMDL
MODEL 2
REMARK VINA RESULT:      -6.8      2.209      5.663
REMARK  Name = 5281698_sexangularetin.pdbqt.pdb
REMARK  6 active torsions:
REMARK  status: ('A' for Active; 'I' for Inactive)
REMARK    1  A    between atoms: C_5  and  C_12
REMARK    2  A    between atoms: C_6  and  O_20
REMARK    3  A    between atoms: C_8  and  O_22
REMARK    4  A    between atoms: C_9  and  O_24
REMARK    5  A    between atoms: C_10  and  O_26
REMARK    6  A    between atoms: C_17  and  O_18
REMARK                            x       y       z     vdW  Elec       q    Type
REMARK                         _______ _______ _______ _____ _____    ______ ____
ROOT
ATOM      1  O   UNL     1      59.519  35.820  77.884  0.00  0.00    +0.000 OA
ATOM      2  O   UNL     1      56.991  35.913  74.720  0.00  0.00    +0.000 OA
ATOM      3  C   UNL     1      57.243  35.777  77.056  0.00  0.00    +0.000 A 
ATOM      4  C   UNL     1      58.166  35.739  78.100  0.00  0.00    +0.000 A 
ATOM      5  C   UNL     1      60.007  35.885  76.584  0.00  0.00    +0.000 A 
ATOM      6  C   UNL     1      57.710  35.635  79.422  0.00  0.00    +0.000 A 
ATOM      7  C   UNL     1      57.749  35.872  75.686  0.00  0.00    +0.000 A 
ATOM      8  C   UNL     1      59.216  35.922  75.496  0.00  0.00    +0.000 A 
ATOM      9  C   UNL     1      55.870  35.737  77.324  0.00  0.00    +0.000 A 
ATOM     10  C   UNL     1      56.335  35.635  79.682  0.00  0.00    +0.000 A 
ATOM     11  C   UNL     1      55.416  35.674  78.637  0.00  0.00    +0.000 A 
ENDROOT
BRANCH   5  12
ATOM     12  C   UNL     1      61.483  35.929  76.527  0.00  0.00    +0.000 A 
ATOM     13  C   UNL     1      62.127  37.124  76.182  0.00  0.00    +0.000 A 
ATOM     14  C   UNL     1      62.272  34.829  76.874  0.00  0.00    +0.000 A 
ATOM     15  C   UNL     1      63.517  37.213  76.160  0.00  0.00    +0.000 A 
ATOM     16  C   UNL     1      63.664  34.903  76.854  0.00  0.00    +0.000 A 
ATOM     17  C   UNL     1      64.275  36.098  76.496  0.00  0.00    +0.000 A 
BRANCH  17  18
ATOM     18  O   UNL     1      65.639  36.152  76.484  0.00  0.00    +0.000 OA
ATOM     19  H   UNL     1      65.975  35.442  77.059  0.00  0.00    +0.000 HD
ENDBRANCH  17  18
ENDBRANCH   5  12
BRANCH   6  20
ATOM     20  O   UNL     1      58.586  35.625  80.480  0.00  0.00    +0.000 OA
ATOM     21  C   UNL     1      58.940  34.308  80.834  0.00  0.00    +0.000 C 
ENDBRANCH   6  20
BRANCH   8  22
ATOM     22  O   UNL     1      59.677  36.026  74.197  0.00  0.00    +0.000 OA
ATOM     23  H   UNL     1      59.108  36.699  73.767  0.00  0.00    +0.000 HD
ENDBRANCH   8  22
BRANCH   9  24
ATOM     24  O   UNL     1      54.914  35.774  76.346  0.00  0.00    +0.000 OA
ATOM     25  H   UNL     1      55.305  35.443  75.506  0.00  0.00    +0.000 HD
ENDBRANCH   9  24
BRANCH  10  26
ATOM     26  O   UNL     1      55.886  35.615  80.972  0.00  0.00    +0.000 OA
ATOM     27  H   UNL     1      56.287  34.853  81.430  0.00  0.00    +0.000 HD
ENDBRANCH  10  26
TORSDOF 6
ENDMDL
MODEL 3
REMARK VINA RESULT:      -6.3      2.118      5.998
REMARK  Name = 5281698_sexangularetin.pdbqt.pdb
REMARK  6 active torsions:
REMARK  status: ('A' for Active; 'I' for Inactive)
REMARK    1  A    between atoms: C_5  and  C_12
REMARK    2  A    between atoms: C_6  and  O_20
REMARK    3  A    between atoms: C_8  and  O_22
REMARK    4  A    between atoms: C_9  and  O_24
REMARK    5  A    between atoms: C_10  and  O_26
REMARK    6  A    between atoms: C_17  and  O_18
REMARK                            x       y       z     vdW  Elec       q    Type
REMARK                         _______ _______ _______ _____ _____    ______ ____
ROOT
ATOM      1  O   UNL     1      57.800  35.508  75.853  0.00  0.00    +0.000 OA
ATOM      2  O   UNL     1      55.451  38.495  74.449  0.00  0.00    +0.000 OA
ATOM      3  C   UNL     1      56.076  37.155  76.280  0.00  0.00    +0.000 A 
ATOM      4  C   UNL     1      56.904  36.114  76.697  0.00  0.00    +0.000 A 
ATOM      5  C   UNL     1      57.859  35.893  74.518  0.00  0.00    +0.000 A 
ATOM      6  C   UNL     1      56.844  35.674  78.027  0.00  0.00    +0.000 A 
ATOM      7  C   UNL     1      56.150  37.582  74.882  0.00  0.00    +0.000 A 
ATOM      8  C   UNL     1      57.105  36.880  73.997  0.00  0.00    +0.000 A 
ATOM      9  C   UNL     1      55.207  37.774  77.185  0.00  0.00    +0.000 A 
ATOM     10  C   UNL     1      56.001  36.327  78.935  0.00  0.00    +0.000 A 
ATOM     11  C   UNL     1      55.175  37.366  78.515  0.00  0.00    +0.000 A 
ENDROOT
BRANCH   5  12
ATOM     12  C   UNL     1      58.847  35.119  73.740  0.00  0.00    +0.000 A 
ATOM     13  C   UNL     1      60.213  35.265  74.015  0.00  0.00    +0.000 A 
ATOM     14  C   UNL     1      58.463  34.183  72.775  0.00  0.00    +0.000 A 
ATOM     15  C   UNL     1      61.169  34.519  73.330  0.00  0.00    +0.000 A 
ATOM     16  C   UNL     1      59.410  33.432  72.081  0.00  0.00    +0.000 A 
ATOM     17  C   UNL     1      60.758  33.606  72.366  0.00  0.00    +0.000 A 
BRANCH  17  18
ATOM     18  O   UNL     1      61.670  32.860  71.678  0.00  0.00    +0.000 OA
ATOM     19  H   UNL     1      61.474  32.943  70.728  0.00  0.00    +0.000 HD
ENDBRANCH  17  18
ENDBRANCH   5  12
BRANCH   6  20
ATOM     20  O   UNL     1      57.665  34.673  78.486  0.00  0.00    +0.000 OA
ATOM     21  C   UNL     1      58.908  35.187  78.903  0.00  0.00    +0.000 C 
ENDBRANCH   6  20
BRANCH   8  22
ATOM     22  O   UNL     1      57.174  37.306  72.684  0.00  0.00    +0.000 OA
ATOM     23  H   UNL     1      56.359  36.972  72.254  0.00  0.00    +0.000 HD
ENDBRANCH   8  22
BRANCH   9  24
ATOM     24  O   UNL     1      54.372  38.801  76.840  0.00  0.00    +0.000 OA
ATOM     25  H   UNL     1      53.475  38.618  77.202  0.00  0.00    +0.000 HD
ENDBRANCH   9  24
BRANCH  10  26
ATOM     26  O   UNL     1      55.999  35.955  80.250  0.00  0.00    +0.000 OA
ATOM     27  H   UNL     1      56.828  35.479  80.441  0.00  0.00    +0.000 HD
ENDBRANCH  10  26
TORSDOF 6
ENDMDL
MODEL 4
REMARK VINA RESULT:      -6.0     56.077     58.086
REMARK  Name = 5281698_sexangularetin.pdbqt.pdb
REMARK  6 active torsions:
REMARK  status: ('A' for Active; 'I' for Inactive)
REMARK    1  A    between atoms: C_5  and  C_12
REMARK    2  A    between atoms: C_6  and  O_20
REMARK    3  A    between atoms: C_8  and  O_22
REMARK    4  A    between atoms: C_9  and  O_24
REMARK    5  A    between atoms: C_10  and  O_26
REMARK    6  A    between atoms: C_17  and  O_18
REMARK                            x       y       z     vdW  Elec       q    Type
REMARK                         _______ _______ _______ _____ _____    ______ ____
ROOT
ATOM      1  O   UNL     1      12.348   6.828  99.812  0.00  0.00    +0.000 OA
ATOM      2  O   UNL     1      15.062   8.223  97.148  0.00  0.00    +0.000 OA
ATOM      3  C   UNL     1      13.788   6.398  97.912  0.00  0.00    +0.000 A 
ATOM      4  C   UNL     1      12.860   5.978  98.864  0.00  0.00    +0.000 A 
ATOM      5  C   UNL     1      12.799   8.141  99.877  0.00  0.00    +0.000 A 
ATOM      6  C   UNL     1      12.412   4.650  98.852  0.00  0.00    +0.000 A 
ATOM      7  C   UNL     1      14.249   7.787  97.959  0.00  0.00    +0.000 A 
ATOM      8  C   UNL     1      13.697   8.661  99.017  0.00  0.00    +0.000 A 
ATOM      9  C   UNL     1      14.252   5.510  96.935  0.00  0.00    +0.000 A 
ATOM     10  C   UNL     1      12.851   3.780  97.848  0.00  0.00    +0.000 A 
ATOM     11  C   UNL     1      13.777   4.203  96.898  0.00  0.00    +0.000 A 
ENDROOT
BRANCH   5  12
ATOM     12  C   UNL     1      12.176   8.909 100.974  0.00  0.00    +0.000 A 
ATOM     13  C   UNL     1      11.027   9.669 100.722  0.00  0.00    +0.000 A 
ATOM     14  C   UNL     1      12.656   8.852 102.286  0.00  0.00    +0.000 A 
ATOM     15  C   UNL     1      10.388  10.371 101.742  0.00  0.00    +0.000 A 
ATOM     16  C   UNL     1      12.029   9.551 103.315  0.00  0.00    +0.000 A 
ATOM     17  C   UNL     1      10.897  10.306 103.034  0.00  0.00    +0.000 A 
BRANCH  17  18
ATOM     18  O   UNL     1      10.295  10.981 104.055  0.00  0.00    +0.000 OA
ATOM     19  H   UNL     1      10.689  10.677 104.892  0.00  0.00    +0.000 HD
ENDBRANCH  17  18
ENDBRANCH   5  12
BRANCH   6  20
ATOM     20  O   UNL     1      11.476   4.205  99.754  0.00  0.00    +0.000 OA
ATOM     21  C   UNL     1      12.091   3.689 100.911  0.00  0.00    +0.000 C 
ENDBRANCH   6  20
BRANCH   8  22
ATOM     22  O   UNL     1      14.131   9.972  99.038  0.00  0.00    +0.000 OA
ATOM     23  H   UNL     1      14.074  10.285  98.110  0.00  0.00    +0.000 HD
ENDBRANCH   8  22
BRANCH   9  24
ATOM     24  O   UNL     1      15.158   5.860  95.973  0.00  0.00    +0.000 OA
ATOM     25  H   UNL     1      15.630   5.051  95.670  0.00  0.00    +0.000 HD
ENDBRANCH   9  24
BRANCH  10  26
ATOM     26  O   UNL     1      12.355   2.508  97.784  0.00  0.00    +0.000 OA
ATOM     27  H   UNL     1      13.102   1.886  97.706  0.00  0.00    +0.000 HD
ENDBRANCH  10  26
TORSDOF 6
ENDMDL
MODEL 5
REMARK VINA RESULT:      -5.9     55.611     57.733
REMARK  Name = 5281698_sexangularetin.pdbqt.pdb
REMARK  6 active torsions:
REMARK  status: ('A' for Active; 'I' for Inactive)
REMARK    1  A    between atoms: C_5  and  C_12
REMARK    2  A    between atoms: C_6  and  O_20
REMARK    3  A    between atoms: C_8  and  O_22
REMARK    4  A    between atoms: C_9  and  O_24
REMARK    5  A    between atoms: C_10  and  O_26
REMARK    6  A    between atoms: C_17  and  O_18
REMARK                            x       y       z     vdW  Elec       q    Type
REMARK                         _______ _______ _______ _____ _____    ______ ____
ROOT
ATOM      1  O   UNL     1      12.145   8.037  99.629  0.00  0.00    +0.000 OA
ATOM      2  O   UNL     1      15.008  10.877 100.020  0.00  0.00    +0.000 OA
ATOM      3  C   UNL     1      12.792  10.218 100.460  0.00  0.00    +0.000 A 
ATOM      4  C   UNL     1      11.849   9.207 100.282  0.00  0.00    +0.000 A 
ATOM      5  C   UNL     1      13.406   7.859  99.070  0.00  0.00    +0.000 A 
ATOM      6  C   UNL     1      10.556   9.369 100.799  0.00  0.00    +0.000 A 
ATOM      7  C   UNL     1      14.129  10.027  99.896  0.00  0.00    +0.000 A 
ATOM      8  C   UNL     1      14.396   8.766  99.170  0.00  0.00    +0.000 A 
ATOM      9  C   UNL     1      12.461  11.377 101.171  0.00  0.00    +0.000 A 
ATOM     10  C   UNL     1      10.246  10.513 101.543  0.00  0.00    +0.000 A 
ATOM     11  C   UNL     1      11.190  11.521 101.719  0.00  0.00    +0.000 A 
ENDROOT
BRANCH   5  12
ATOM     12  C   UNL     1      13.547   6.564  98.373  0.00  0.00    +0.000 A 
ATOM     13  C   UNL     1      13.165   5.383  99.021  0.00  0.00    +0.000 A 
ATOM     14  C   UNL     1      13.991   6.479  97.049  0.00  0.00    +0.000 A 
ATOM     15  C   UNL     1      13.245   4.150  98.378  0.00  0.00    +0.000 A 
ATOM     16  C   UNL     1      14.078   5.251  96.395  0.00  0.00    +0.000 A 
ATOM     17  C   UNL     1      13.702   4.095  97.067  0.00  0.00    +0.000 A 
BRANCH  17  18
ATOM     18  O   UNL     1      13.793   2.903  96.409  0.00  0.00    +0.000 OA
ATOM     19  H   UNL     1      14.272   3.052  95.575  0.00  0.00    +0.000 HD
ENDBRANCH  17  18
ENDBRANCH   5  12
BRANCH   6  20
ATOM     20  O   UNL     1       9.608   8.383 100.672  0.00  0.00    +0.000 OA
ATOM     21  C   UNL     1       9.651   7.493 101.762  0.00  0.00    +0.000 C 
ENDBRANCH   6  20
BRANCH   8  22
ATOM     22  O   UNL     1      15.668   8.595  98.657  0.00  0.00    +0.000 OA
ATOM     23  H   UNL     1      16.273   8.636  99.427  0.00  0.00    +0.000 HD
ENDBRANCH   8  22
BRANCH   9  24
ATOM     24  O   UNL     1      13.339  12.403 101.383  0.00  0.00    +0.000 OA
ATOM     25  H   UNL     1      12.926  13.056 101.992  0.00  0.00    +0.000 HD
ENDBRANCH   9  24
BRANCH  10  26
ATOM     26  O   UNL     1       9.013  10.639 102.117  0.00  0.00    +0.000 OA
ATOM     27  H   UNL     1       8.936   9.985 102.837  0.00  0.00    +0.000 HD
ENDBRANCH  10  26
TORSDOF 6
ENDMDL
MODEL 6
REMARK VINA RESULT:      -5.6     56.811     58.795
REMARK  Name = 5281698_sexangularetin.pdbqt.pdb
REMARK  6 active torsions:
REMARK  status: ('A' for Active; 'I' for Inactive)
REMARK    1  A    between atoms: C_5  and  C_12
REMARK    2  A    between atoms: C_6  and  O_20
REMARK    3  A    between atoms: C_8  and  O_22
REMARK    4  A    between atoms: C_9  and  O_24
REMARK    5  A    between atoms: C_10  and  O_26
REMARK    6  A    between atoms: C_17  and  O_18
REMARK                            x       y       z     vdW  Elec       q    Type
REMARK                         _______ _______ _______ _____ _____    ______ ____
ROOT
ATOM      1  O   UNL     1      12.609   5.537  99.717  0.00  0.00    +0.000 OA
ATOM      2  O   UNL     1      14.927   5.454  96.395  0.00  0.00    +0.000 OA
ATOM      3  C   UNL     1      13.910   6.752  98.075  0.00  0.00    +0.000 A 
ATOM      4  C   UNL     1      13.098   6.713  99.207  0.00  0.00    +0.000 A 
ATOM      5  C   UNL     1      12.874   4.339  99.062  0.00  0.00    +0.000 A 
ATOM      6  C   UNL     1      12.778   7.907  99.869  0.00  0.00    +0.000 A 
ATOM      7  C   UNL     1      14.215   5.492  97.395  0.00  0.00    +0.000 A 
ATOM      8  C   UNL     1      13.639   4.250  97.958  0.00  0.00    +0.000 A 
ATOM      9  C   UNL     1      14.424   7.969  97.614  0.00  0.00    +0.000 A 
ATOM     10  C   UNL     1      13.330   9.114  99.425  0.00  0.00    +0.000 A 
ATOM     11  C   UNL     1      14.141   9.150  98.294  0.00  0.00    +0.000 A 
ENDROOT
BRANCH   5  12
ATOM     12  C   UNL     1      12.244   3.175  99.719  0.00  0.00    +0.000 A 
ATOM     13  C   UNL     1      11.471   2.286  98.962  0.00  0.00    +0.000 A 
ATOM     14  C   UNL     1      12.450   2.885 101.072  0.00  0.00    +0.000 A 
ATOM     15  C   UNL     1      10.899   1.155  99.540  0.00  0.00    +0.000 A 
ATOM     16  C   UNL     1      11.881   1.758 101.663  0.00  0.00    +0.000 A 
ATOM     17  C   UNL     1      11.109   0.901 100.890  0.00  0.00    +0.000 A 
BRANCH  17  18
ATOM     18  O   UNL     1      10.563  -0.198 101.486  0.00  0.00    +0.000 OA
ATOM     19  H   UNL     1      10.745  -0.970 100.923  0.00  0.00    +0.000 HD
ENDBRANCH  17  18
ENDBRANCH   5  12
BRANCH   6  20
ATOM     20  O   UNL     1      12.007   7.908 101.005  0.00  0.00    +0.000 OA
ATOM     21  C   UNL     1      10.639   8.026 100.690  0.00  0.00    +0.000 C 
ENDBRANCH   6  20
BRANCH   8  22
ATOM     22  O   UNL     1      13.948   3.067  97.314  0.00  0.00    +0.000 OA
ATOM     23  H   UNL     1      13.094   2.706  96.997  0.00  0.00    +0.000 HD
ENDBRANCH   8  22
BRANCH   9  24
ATOM     24  O   UNL     1      15.228   8.075  96.513  0.00  0.00    +0.000 OA
ATOM     25  H   UNL     1      14.809   7.593  95.764  0.00  0.00    +0.000 HD
ENDBRANCH   9  24
BRANCH  10  26
ATOM     26  O   UNL     1      13.086  10.268 100.114  0.00  0.00    +0.000 OA
ATOM     27  H   UNL     1      12.355  10.744  99.678  0.00  0.00    +0.000 HD
ENDBRANCH  10  26
TORSDOF 6
ENDMDL
MODEL 7
REMARK VINA RESULT:      -5.4     17.987     19.673
REMARK  Name = 5281698_sexangularetin.pdbqt.pdb
REMARK  6 active torsions:
REMARK  status: ('A' for Active; 'I' for Inactive)
REMARK    1  A    between atoms: C_5  and  C_12
REMARK    2  A    between atoms: C_6  and  O_20
REMARK    3  A    between atoms: C_8  and  O_22
REMARK    4  A    between atoms: C_9  and  O_24
REMARK    5  A    between atoms: C_10  and  O_26
REMARK    6  A    between atoms: C_17  and  O_18
REMARK                            x       y       z     vdW  Elec       q    Type
REMARK                         _______ _______ _______ _____ _____    ______ ____
ROOT
ATOM      1  O   UNL     1      51.161  18.090  77.547  0.00  0.00    +0.000 OA
ATOM      2  O   UNL     1      53.058  20.768  75.171  0.00  0.00    +0.000 OA
ATOM      3  C   UNL     1      52.283  20.225  77.327  0.00  0.00    +0.000 A 
ATOM      4  C   UNL     1      51.613  19.268  78.087  0.00  0.00    +0.000 A 
ATOM      5  C   UNL     1      51.316  17.850  76.186  0.00  0.00    +0.000 A 
ATOM      6  C   UNL     1      51.405  19.494  79.454  0.00  0.00    +0.000 A 
ATOM      7  C   UNL     1      52.473  19.968  75.898  0.00  0.00    +0.000 A 
ATOM      8  C   UNL     1      51.940  18.701  75.350  0.00  0.00    +0.000 A 
ATOM      9  C   UNL     1      52.768  21.393  77.926  0.00  0.00    +0.000 A 
ATOM     10  C   UNL     1      51.928  20.646  80.053  0.00  0.00    +0.000 A 
ATOM     11  C   UNL     1      52.597  21.600  79.291  0.00  0.00    +0.000 A 
ENDROOT
BRANCH   5  12
ATOM     12  C   UNL     1      50.743  16.557  75.762  0.00  0.00    +0.000 A 
ATOM     13  C   UNL     1      51.572  15.433  75.654  0.00  0.00    +0.000 A 
ATOM     14  C   UNL     1      49.374  16.393  75.527  0.00  0.00    +0.000 A 
ATOM     15  C   UNL     1      51.057  14.189  75.299  0.00  0.00    +0.000 A 
ATOM     16  C   UNL     1      48.846  15.154  75.169  0.00  0.00    +0.000 A 
ATOM     17  C   UNL     1      49.694  14.060  75.058  0.00  0.00    +0.000 A 
BRANCH  17  18
ATOM     18  O   UNL     1      49.158  12.855  74.708  0.00  0.00    +0.000 OA
ATOM     19  H   UNL     1      49.480  12.186  75.338  0.00  0.00    +0.000 HD
ENDBRANCH  17  18
ENDBRANCH   5  12
BRANCH   6  20
ATOM     20  O   UNL     1      50.777  18.563  80.245  0.00  0.00    +0.000 OA
ATOM     21  C   UNL     1      49.381  18.751  80.239  0.00  0.00    +0.000 C 
ENDBRANCH   6  20
BRANCH   8  22
ATOM     22  O   UNL     1      52.140  18.467  74.003  0.00  0.00    +0.000 OA
ATOM     23  H   UNL     1      52.969  17.947  73.944  0.00  0.00    +0.000 HD
ENDBRANCH   8  22
BRANCH   9  24
ATOM     24  O   UNL     1      53.435  22.368  77.237  0.00  0.00    +0.000 OA
ATOM     25  H   UNL     1      53.014  22.481  76.355  0.00  0.00    +0.000 HD
ENDBRANCH   9  24
BRANCH  10  26
ATOM     26  O   UNL     1      51.797  20.832  81.400  0.00  0.00    +0.000 OA
ATOM     27  H   UNL     1      52.280  21.642  81.652  0.00  0.00    +0.000 HD
ENDBRANCH  10  26
TORSDOF 6
ENDMDL
MODEL 8
REMARK VINA RESULT:      -5.4     55.961     58.026
REMARK  Name = 5281698_sexangularetin.pdbqt.pdb
REMARK  6 active torsions:
REMARK  status: ('A' for Active; 'I' for Inactive)
REMARK    1  A    between atoms: C_5  and  C_12
REMARK    2  A    between atoms: C_6  and  O_20
REMARK    3  A    between atoms: C_8  and  O_22
REMARK    4  A    between atoms: C_9  and  O_24
REMARK    5  A    between atoms: C_10  and  O_26
REMARK    6  A    between atoms: C_17  and  O_18
REMARK                            x       y       z     vdW  Elec       q    Type
REMARK                         _______ _______ _______ _____ _____    ______ ____
ROOT
ATOM      1  O   UNL     1      13.012   6.004  99.410  0.00  0.00    +0.000 OA
ATOM      2  O   UNL     1      14.439   4.986  95.757  0.00  0.00    +0.000 OA
ATOM      3  C   UNL     1      13.311   4.306  97.708  0.00  0.00    +0.000 A 
ATOM      4  C   UNL     1      12.854   4.718  98.959  0.00  0.00    +0.000 A 
ATOM      5  C   UNL     1      13.700   6.928  98.631  0.00  0.00    +0.000 A 
ATOM      6  C   UNL     1      12.190   3.801  99.787  0.00  0.00    +0.000 A 
ATOM      7  C   UNL     1      14.013   5.281  96.871  0.00  0.00    +0.000 A 
ATOM      8  C   UNL     1      14.193   6.648  97.409  0.00  0.00    +0.000 A 
ATOM      9  C   UNL     1      13.089   2.996  97.268  0.00  0.00    +0.000 A 
ATOM     10  C   UNL     1      11.938   2.505  99.323  0.00  0.00    +0.000 A 
ATOM     11  C   UNL     1      12.396   2.098  98.072  0.00  0.00    +0.000 A 
ENDROOT
BRANCH   5  12
ATOM     12  C   UNL     1      13.813   8.252  99.276  0.00  0.00    +0.000 A 
ATOM     13  C   UNL     1      12.683   8.836  99.861  0.00  0.00    +0.000 A 
ATOM     14  C   UNL     1      15.036   8.921  99.386  0.00  0.00    +0.000 A 
ATOM     15  C   UNL     1      12.763  10.063 100.516  0.00  0.00    +0.000 A 
ATOM     16  C   UNL     1      15.130  10.150 100.036  0.00  0.00    +0.000 A 
ATOM     17  C   UNL     1      13.990  10.712 100.597  0.00  0.00    +0.000 A 
BRANCH  17  18
ATOM     18  O   UNL     1      14.102  11.914 101.231  0.00  0.00    +0.000 OA
ATOM     19  H   UNL     1      15.010  12.242 101.101  0.00  0.00    +0.000 HD
ENDBRANCH  17  18
ENDBRANCH   5  12
BRANCH   6  20
ATOM     20  O   UNL     1      11.698   4.175 101.013  0.00  0.00    +0.000 OA
ATOM     21  C   UNL     1      12.656   3.979 102.026  0.00  0.00    +0.000 C 
ENDBRANCH   6  20
BRANCH   8  22
ATOM     22  O   UNL     1      14.844   7.559  96.601  0.00  0.00    +0.000 OA
ATOM     23  H   UNL     1      14.895   7.141  95.716  0.00  0.00    +0.000 HD
ENDBRANCH   8  22
BRANCH   9  24
ATOM     24  O   UNL     1      13.509   2.532  96.052  0.00  0.00    +0.000 OA
ATOM     25  H   UNL     1      12.814   1.945  95.677  0.00  0.00    +0.000 HD
ENDBRANCH   9  24
BRANCH  10  26
ATOM     26  O   UNL     1      11.221   1.634 100.093  0.00  0.00    +0.000 OA
ATOM     27  H   UNL     1      11.361   1.860 101.032  0.00  0.00    +0.000 HD
ENDBRANCH  10  26
TORSDOF 6
ENDMDL
MODEL 9
REMARK VINA RESULT:      -5.4     19.581     21.359
REMARK  Name = 5281698_sexangularetin.pdbqt.pdb
REMARK  6 active torsions:
REMARK  status: ('A' for Active; 'I' for Inactive)
REMARK    1  A    between atoms: C_5  and  C_12
REMARK    2  A    between atoms: C_6  and  O_20
REMARK    3  A    between atoms: C_8  and  O_22
REMARK    4  A    between atoms: C_9  and  O_24
REMARK    5  A    between atoms: C_10  and  O_26
REMARK    6  A    between atoms: C_17  and  O_18
REMARK                            x       y       z     vdW  Elec       q    Type
REMARK                         _______ _______ _______ _____ _____    ______ ____
ROOT
ATOM      1  O   UNL     1      41.226  24.766  82.295  0.00  0.00    +0.000 OA
ATOM      2  O   UNL     1      39.003  22.982  85.175  0.00  0.00    +0.000 OA
ATOM      3  C   UNL     1      39.355  23.341  82.875  0.00  0.00    +0.000 A 
ATOM      4  C   UNL     1      40.152  23.991  81.935  0.00  0.00    +0.000 A 
ATOM      5  C   UNL     1      41.510  24.967  83.641  0.00  0.00    +0.000 A 
ATOM      6  C   UNL     1      39.871  23.841  80.570  0.00  0.00    +0.000 A 
ATOM      7  C   UNL     1      39.663  23.528  84.294  0.00  0.00    +0.000 A 
ATOM      8  C   UNL     1      40.809  24.399  84.641  0.00  0.00    +0.000 A 
ATOM      9  C   UNL     1      38.296  22.525  82.463  0.00  0.00    +0.000 A 
ATOM     10  C   UNL     1      38.835  22.991  80.165  0.00  0.00    +0.000 A 
ATOM     11  C   UNL     1      38.041  22.343  81.107  0.00  0.00    +0.000 A 
ENDROOT
BRANCH   5  12
ATOM     12  C   UNL     1      42.672  25.854  83.857  0.00  0.00    +0.000 A 
ATOM     13  C   UNL     1      42.483  27.118  84.428  0.00  0.00    +0.000 A 
ATOM     14  C   UNL     1      43.979  25.446  83.570  0.00  0.00    +0.000 A 
ATOM     15  C   UNL     1      43.561  27.961  84.685  0.00  0.00    +0.000 A 
ATOM     16  C   UNL     1      45.066  26.281  83.820  0.00  0.00    +0.000 A 
ATOM     17  C   UNL     1      44.847  27.535  84.377  0.00  0.00    +0.000 A 
BRANCH  17  18
ATOM     18  O   UNL     1      45.925  28.337  84.616  0.00  0.00    +0.000 OA
ATOM     19  H   UNL     1      46.731  27.817  84.454  0.00  0.00    +0.000 HD
ENDBRANCH  17  18
ENDBRANCH   5  12
BRANCH   6  20
ATOM     20  O   UNL     1      40.651  24.440  79.610  0.00  0.00    +0.000 OA
ATOM     21  C   UNL     1      41.770  23.644  79.297  0.00  0.00    +0.000 C 
ENDBRANCH   6  20
BRANCH   8  22
ATOM     22  O   UNL     1      41.095  24.553  85.983  0.00  0.00    +0.000 OA
ATOM     23  H   UNL     1      40.233  24.504  86.446  0.00  0.00    +0.000 HD
ENDBRANCH   8  22
BRANCH   9  24
ATOM     24  O   UNL     1      37.479  21.858  83.334  0.00  0.00    +0.000 OA
ATOM     25  H   UNL     1      36.786  22.477  83.658  0.00  0.00    +0.000 HD
ENDBRANCH   9  24
BRANCH  10  26
ATOM     26  O   UNL     1      38.609  22.779  78.834  0.00  0.00    +0.000 OA
ATOM     27  H   UNL     1      38.094  23.528  78.482  0.00  0.00    +0.000 HD
ENDBRANCH  10  26
TORSDOF 6
ENDMDL
