MODEL 1
REMARK VINA RESULT:      -6.1      0.000      0.000
REMARK  Name = 5289155_Peridinin.pdbqt.pdb
REMARK  13 active torsions:
REMARK  status: ('A' for Active; 'I' for Inactive)
REMARK    1  A    between atoms: C_1  and  C_3
REMARK    2  A    between atoms: C_3  and  C_25
REMARK    3  A    between atoms: C_6  and  C_12
REMARK    4  A    between atoms: C_11  and  C_14
REMARK    5  A    between atoms: C_19  and  O_23
REMARK    6  A    between atoms: C_26  and  C_28
REMARK    7  A    between atoms: C_27  and  C_31
REMARK    8  A    between atoms: C_29  and  C_31
REMARK    9  A    between atoms: C_29  and  C_42
REMARK   10  A    between atoms: C_33  and  O_43
REMARK   11  A    between atoms: C_35  and  O_45
REMARK   12  A    between atoms: C_37  and  C_41
REMARK   13  A    between atoms: O_45  and  C_47
REMARK                            x       y       z     vdW  Elec       q    Type
REMARK                         _______ _______ _______ _____ _____    ______ ____
ROOT
ATOM      1  C   UNL     1      56.093  33.968  65.221  0.00  0.00    +0.000 C 
ENDROOT
BRANCH   1   2
ATOM      2  C   UNL     1      56.170  33.206  64.176  0.00  0.00    +0.000 C 
ATOM      3  C   UNL     1      55.781  33.733  62.830  0.00  0.00    +0.000 C 
ATOM      4  O   UNL     1      56.952  29.991  65.606  0.00  0.00    +0.000 OA
ATOM      5  O   UNL     1      57.132  27.716  66.009  0.00  0.00    +0.000 OA
ATOM      6  C   UNL     1      57.382  28.615  63.781  0.00  0.00    +0.000 C 
ATOM      7  C   UNL     1      57.331  29.817  63.335  0.00  0.00    +0.000 C 
ATOM      8  C   UNL     1      57.154  28.663  65.244  0.00  0.00    +0.000 C 
ATOM      9  C   UNL     1      57.105  30.678  64.405  0.00  0.00    +0.000 C 
ATOM     10  C   UNL     1      56.657  31.885  64.298  0.00  0.00    +0.000 C 
BRANCH   6  12
ATOM     11  C   UNL     1      57.782  26.505  62.299  0.00  0.00    +0.000 C 
ATOM     12  C   UNL     1      57.600  27.480  62.978  0.00  0.00    +0.000 C 
BRANCH  11  14
ATOM     13  O   UNL     1      57.352  25.479  60.192  0.00  0.00    +0.000 OA
ATOM     14  C   UNL     1      58.000  25.319  61.487  0.00  0.00    +0.000 C 
ATOM     15  C   UNL     1      58.777  25.444  60.159  0.00  0.00    +0.000 C 
ATOM     16  C   UNL     1      57.898  23.901  62.149  0.00  0.00    +0.000 C 
ATOM     17  C   UNL     1      59.274  24.238  59.577  0.00  0.00    +0.000 C 
ATOM     18  C   UNL     1      58.459  22.940  61.196  0.00  0.00    +0.000 C 
ATOM     19  C   UNL     1      59.163  22.896  59.977  0.00  0.00    +0.000 C 
ATOM     20  C   UNL     1      59.411  26.749  59.671  0.00  0.00    +0.000 C 
ATOM     21  C   UNL     1      58.770  23.974  63.431  0.00  0.00    +0.000 C 
ATOM     22  C   UNL     1      56.403  23.664  62.457  0.00  0.00    +0.000 C 
BRANCH  19  23
ATOM     23  O   UNL     1      60.147  21.979  59.758  0.00  0.00    +0.000 OA
ATOM     24  H   UNL     1      59.824  21.197  59.275  0.00  0.00    +0.000 HD
ENDBRANCH  19  23
ENDBRANCH  11  14
ENDBRANCH   6  12
ENDBRANCH   1   2
BRANCH   1  25
ATOM     25  C   UNL     1      56.003  34.870  66.458  0.00  0.00    +0.000 C 
ATOM     26  C   UNL     1      55.937  35.578  67.424  0.00  0.00    +0.000 C 
BRANCH  26  28
ATOM     27  C   UNL     1      55.807  37.195  69.622  0.00  0.00    +0.000 C 
ATOM     28  C   UNL     1      55.861  36.484  68.658  0.00  0.00    +0.000 C 
BRANCH  27  29
ATOM     29  C   UNL     1      55.746  38.105  70.855  0.00  0.00    +0.000 C 
BRANCH  29  30
ATOM     30  C   UNL     1      55.702  38.878  71.893  0.00  0.00    +0.000 C 
ATOM     31  C   UNL     1      55.382  40.334  71.740  0.00  0.00    +0.000 C 
BRANCH  30  33
ATOM     32  C   UNL     1      56.279  37.916  74.261  0.00  0.00    +0.000 C 
ATOM     33  C   UNL     1      56.014  38.359  73.176  0.00  0.00    +0.000 C 
BRANCH  32  39
ATOM     34  C   UNL     1      56.491  38.282  76.732  0.00  0.00    +0.000 C 
ATOM     35  C   UNL     1      57.081  36.008  75.615  0.00  0.00    +0.000 C 
ATOM     36  C   UNL     1      56.571  37.441  77.934  0.00  0.00    +0.000 C 
ATOM     37  C   UNL     1      56.796  36.093  78.282  0.00  0.00    +0.000 C 
ATOM     38  C   UNL     1      57.020  35.551  76.999  0.00  0.00    +0.000 C 
ATOM     39  C   UNL     1      56.576  37.433  75.451  0.00  0.00    +0.000 C 
ATOM     40  C   UNL     1      55.122  39.030  76.758  0.00  0.00    +0.000 C 
ATOM     41  C   UNL     1      57.655  39.308  76.726  0.00  0.00    +0.000 C 
ATOM     42  C   UNL     1      58.493  35.858  75.041  0.00  0.00    +0.000 C 
BRANCH  35  43
ATOM     43  O   UNL     1      56.280  35.141  74.843  0.00  0.00    +0.000 OA
ATOM     44  H   UNL     1      56.463  35.461  73.940  0.00  0.00    +0.000 HD
ENDBRANCH  35  43
BRANCH  37  45
ATOM     45  O   UNL     1      57.661  35.801  79.329  0.00  0.00    +0.000 OA
BRANCH  45  47
ATOM     46  O   UNL     1      56.199  35.180  81.055  0.00  0.00    +0.000 OA
ATOM     47  C   UNL     1      57.052  34.973  80.213  0.00  0.00    +0.000 C 
ATOM     48  C   UNL     1      57.521  33.562  80.147  0.00  0.00    +0.000 C 
ENDBRANCH  45  47
ENDBRANCH  37  45
ENDBRANCH  32  39
ENDBRANCH  30  33
ENDBRANCH  29  30
ENDBRANCH  27  29
ENDBRANCH  26  28
ENDBRANCH   1  25
TORSDOF 13
ENDMDL
MODEL 2
REMARK VINA RESULT:      -6.0      7.507     13.843
REMARK  Name = 5289155_Peridinin.pdbqt.pdb
REMARK  13 active torsions:
REMARK  status: ('A' for Active; 'I' for Inactive)
REMARK    1  A    between atoms: C_1  and  C_3
REMARK    2  A    between atoms: C_3  and  C_25
REMARK    3  A    between atoms: C_6  and  C_12
REMARK    4  A    between atoms: C_11  and  C_14
REMARK    5  A    between atoms: C_19  and  O_23
REMARK    6  A    between atoms: C_26  and  C_28
REMARK    7  A    between atoms: C_27  and  C_31
REMARK    8  A    between atoms: C_29  and  C_31
REMARK    9  A    between atoms: C_29  and  C_42
REMARK   10  A    between atoms: C_33  and  O_43
REMARK   11  A    between atoms: C_35  and  O_45
REMARK   12  A    between atoms: C_37  and  C_41
REMARK   13  A    between atoms: O_45  and  C_47
REMARK                            x       y       z     vdW  Elec       q    Type
REMARK                         _______ _______ _______ _____ _____    ______ ____
ROOT
ATOM      1  C   UNL     1      56.779  36.444  78.932  0.00  0.00    +0.000 C 
ENDROOT
BRANCH   1   2
ATOM      2  C   UNL     1      56.745  36.374  77.638  0.00  0.00    +0.000 C 
ATOM      3  C   UNL     1      55.485  36.706  76.899  0.00  0.00    +0.000 C 
ATOM      4  O   UNL     1      59.931  34.886  76.849  0.00  0.00    +0.000 OA
ATOM      5  O   UNL     1      61.647  33.696  75.843  0.00  0.00    +0.000 OA
ATOM      6  C   UNL     1      60.074  34.974  74.529  0.00  0.00    +0.000 C 
ATOM      7  C   UNL     1      59.071  35.700  74.867  0.00  0.00    +0.000 C 
ATOM      8  C   UNL     1      60.677  34.428  75.768  0.00  0.00    +0.000 C 
ATOM      9  C   UNL     1      58.970  35.698  76.256  0.00  0.00    +0.000 C 
ATOM     10  C   UNL     1      57.908  36.020  76.918  0.00  0.00    +0.000 C 
BRANCH   6  12
ATOM     11  C   UNL     1      60.817  34.566  72.062  0.00  0.00    +0.000 C 
ATOM     12  C   UNL     1      60.479  34.751  73.200  0.00  0.00    +0.000 C 
BRANCH  11  14
ATOM     13  O   UNL     1      61.948  35.499  70.184  0.00  0.00    +0.000 OA
ATOM     14  C   UNL     1      61.216  34.343  70.682  0.00  0.00    +0.000 C 
ATOM     15  C   UNL     1      62.717  34.307  70.324  0.00  0.00    +0.000 C 
ATOM     16  C   UNL     1      60.206  33.673  69.686  0.00  0.00    +0.000 C 
ATOM     17  C   UNL     1      63.074  33.743  69.062  0.00  0.00    +0.000 C 
ATOM     18  C   UNL     1      60.966  33.298  68.490  0.00  0.00    +0.000 C 
ATOM     19  C   UNL     1      62.290  33.220  68.019  0.00  0.00    +0.000 C 
ATOM     20  C   UNL     1      63.836  34.417  71.364  0.00  0.00    +0.000 C 
ATOM     21  C   UNL     1      59.673  32.411  70.415  0.00  0.00    +0.000 C 
ATOM     22  C   UNL     1      59.100  34.716  69.412  0.00  0.00    +0.000 C 
BRANCH  19  23
ATOM     23  O   UNL     1      62.705  32.187  67.234  0.00  0.00    +0.000 OA
ATOM     24  H   UNL     1      63.661  32.019  67.316  0.00  0.00    +0.000 HD
ENDBRANCH  19  23
ENDBRANCH  11  14
ENDBRANCH   6  12
ENDBRANCH   1   2
BRANCH   1  25
ATOM     25  C   UNL     1      56.821  36.528  80.462  0.00  0.00    +0.000 C 
ATOM     26  C   UNL     1      56.859  36.594  81.659  0.00  0.00    +0.000 C 
BRANCH  26  28
ATOM     27  C   UNL     1      56.956  36.752  84.384  0.00  0.00    +0.000 C 
ATOM     28  C   UNL     1      56.915  36.680  83.188  0.00  0.00    +0.000 C 
BRANCH  27  29
ATOM     29  C   UNL     1      57.007  36.852  85.914  0.00  0.00    +0.000 C 
BRANCH  29  30
ATOM     30  C   UNL     1      57.048  36.947  87.205  0.00  0.00    +0.000 C 
ATOM     31  C   UNL     1      58.132  37.739  87.872  0.00  0.00    +0.000 C 
BRANCH  30  33
ATOM     32  C   UNL     1      55.292  35.664  88.667  0.00  0.00    +0.000 C 
ATOM     33  C   UNL     1      56.097  36.254  87.996  0.00  0.00    +0.000 C 
BRANCH  32  39
ATOM     34  C   UNL     1      53.936  35.549  90.771  0.00  0.00    +0.000 C 
ATOM     35  C   UNL     1      53.861  33.670  88.974  0.00  0.00    +0.000 C 
ATOM     36  C   UNL     1      52.750  34.819  91.240  0.00  0.00    +0.000 C 
ATOM     37  C   UNL     1      51.961  33.711  90.868  0.00  0.00    +0.000 C 
ATOM     38  C   UNL     1      52.670  33.289  89.724  0.00  0.00    +0.000 C 
ATOM     39  C   UNL     1      54.413  35.019  89.408  0.00  0.00    +0.000 C 
ATOM     40  C   UNL     1      53.548  37.053  90.627  0.00  0.00    +0.000 C 
ATOM     41  C   UNL     1      55.091  35.395  91.796  0.00  0.00    +0.000 C 
ATOM     42  C   UNL     1      54.941  32.586  89.052  0.00  0.00    +0.000 C 
BRANCH  35  43
ATOM     43  O   UNL     1      53.505  33.733  87.610  0.00  0.00    +0.000 OA
ATOM     44  H   UNL     1      53.045  32.881  87.492  0.00  0.00    +0.000 HD
ENDBRANCH  35  43
BRANCH  37  45
ATOM     45  O   UNL     1      51.584  32.793  91.840  0.00  0.00    +0.000 OA
BRANCH  45  47
ATOM     46  O   UNL     1      50.496  30.857  91.087  0.00  0.00    +0.000 OA
ATOM     47  C   UNL     1      50.556  32.035  91.384  0.00  0.00    +0.000 C 
ATOM     48  C   UNL     1      49.281  32.781  91.207  0.00  0.00    +0.000 C 
ENDBRANCH  45  47
ENDBRANCH  37  45
ENDBRANCH  32  39
ENDBRANCH  30  33
ENDBRANCH  29  30
ENDBRANCH  27  29
ENDBRANCH  26  28
ENDBRANCH   1  25
TORSDOF 13
ENDMDL
MODEL 3
REMARK VINA RESULT:      -6.0      4.320      5.058
REMARK  Name = 5289155_Peridinin.pdbqt.pdb
REMARK  13 active torsions:
REMARK  status: ('A' for Active; 'I' for Inactive)
REMARK    1  A    between atoms: C_1  and  C_3
REMARK    2  A    between atoms: C_3  and  C_25
REMARK    3  A    between atoms: C_6  and  C_12
REMARK    4  A    between atoms: C_11  and  C_14
REMARK    5  A    between atoms: C_19  and  O_23
REMARK    6  A    between atoms: C_26  and  C_28
REMARK    7  A    between atoms: C_27  and  C_31
REMARK    8  A    between atoms: C_29  and  C_31
REMARK    9  A    between atoms: C_29  and  C_42
REMARK   10  A    between atoms: C_33  and  O_43
REMARK   11  A    between atoms: C_35  and  O_45
REMARK   12  A    between atoms: C_37  and  C_41
REMARK   13  A    between atoms: O_45  and  C_47
REMARK                            x       y       z     vdW  Elec       q    Type
REMARK                         _______ _______ _______ _____ _____    ______ ____
ROOT
ATOM      1  C   UNL     1      54.698  33.804  65.527  0.00  0.00    +0.000 C 
ENDROOT
BRANCH   1   2
ATOM      2  C   UNL     1      54.340  33.039  64.545  0.00  0.00    +0.000 C 
ATOM      3  C   UNL     1      54.666  33.422  63.134  0.00  0.00    +0.000 C 
ATOM      4  O   UNL     1      52.286  30.570  66.180  0.00  0.00    +0.000 OA
ATOM      5  O   UNL     1      50.673  28.975  66.659  0.00  0.00    +0.000 OA
ATOM      6  C   UNL     1      51.824  28.992  64.535  0.00  0.00    +0.000 C 
ATOM      7  C   UNL     1      52.738  29.760  64.066  0.00  0.00    +0.000 C 
ATOM      8  C   UNL     1      51.495  29.460  65.902  0.00  0.00    +0.000 C 
ATOM      9  C   UNL     1      53.067  30.703  65.036  0.00  0.00    +0.000 C 
ATOM     10  C   UNL     1      53.674  31.820  64.803  0.00  0.00    +0.000 C 
BRANCH   6  12
ATOM     11  C   UNL     1      50.765  26.996  63.231  0.00  0.00    +0.000 C 
ATOM     12  C   UNL     1      51.251  27.919  63.828  0.00  0.00    +0.000 C 
BRANCH  11  14
ATOM     13  O   UNL     1      48.775  26.124  62.251  0.00  0.00    +0.000 OA
ATOM     14  C   UNL     1      50.186  25.872  62.513  0.00  0.00    +0.000 C 
ATOM     15  C   UNL     1      49.612  26.093  61.097  0.00  0.00    +0.000 C 
ATOM     16  C   UNL     1      50.569  24.409  62.932  0.00  0.00    +0.000 C 
ATOM     17  C   UNL     1      49.385  24.933  60.296  0.00  0.00    +0.000 C 
ATOM     18  C   UNL     1      50.099  23.520  61.865  0.00  0.00    +0.000 C 
ATOM     19  C   UNL     1      49.558  23.565  60.566  0.00  0.00    +0.000 C 
ATOM     20  C   UNL     1      49.685  27.431  60.356  0.00  0.00    +0.000 C 
ATOM     21  C   UNL     1      52.118  24.390  63.018  0.00  0.00    +0.000 C 
ATOM     22  C   UNL     1      49.891  24.150  64.295  0.00  0.00    +0.000 C 
BRANCH  19  23
ATOM     23  O   UNL     1      49.928  22.668  59.611  0.00  0.00    +0.000 OA
ATOM     24  H   UNL     1      50.895  22.563  59.555  0.00  0.00    +0.000 HD
ENDBRANCH  19  23
ENDBRANCH  11  14
ENDBRANCH   6  12
ENDBRANCH   1   2
BRANCH   1  25
ATOM     25  C   UNL     1      55.120  34.710  66.690  0.00  0.00    +0.000 C 
ATOM     26  C   UNL     1      55.456  35.422  67.596  0.00  0.00    +0.000 C 
BRANCH  26  28
ATOM     27  C   UNL     1      56.234  37.046  69.649  0.00  0.00    +0.000 C 
ATOM     28  C   UNL     1      55.889  36.333  68.748  0.00  0.00    +0.000 C 
BRANCH  27  29
ATOM     29  C   UNL     1      56.681  37.957  70.799  0.00  0.00    +0.000 C 
BRANCH  29  30
ATOM     30  C   UNL     1      57.068  38.729  71.764  0.00  0.00    +0.000 C 
ATOM     31  C   UNL     1      57.299  40.190  71.519  0.00  0.00    +0.000 C 
BRANCH  30  33
ATOM     32  C   UNL     1      57.550  37.719  74.134  0.00  0.00    +0.000 C 
ATOM     33  C   UNL     1      57.327  38.183  73.047  0.00  0.00    +0.000 C 
BRANCH  32  39
ATOM     34  C   UNL     1      56.840  37.411  76.518  0.00  0.00    +0.000 C 
ATOM     35  C   UNL     1      59.083  36.458  75.608  0.00  0.00    +0.000 C 
ATOM     36  C   UNL     1      57.182  36.510  77.627  0.00  0.00    +0.000 C 
ATOM     37  C   UNL     1      58.181  35.578  77.977  0.00  0.00    +0.000 C 
ATOM     38  C   UNL     1      59.019  35.693  76.849  0.00  0.00    +0.000 C 
ATOM     39  C   UNL     1      57.796  37.217  75.327  0.00  0.00    +0.000 C 
ATOM     40  C   UNL     1      55.385  37.083  76.063  0.00  0.00    +0.000 C 
ATOM     41  C   UNL     1      56.928  38.887  76.989  0.00  0.00    +0.000 C 
ATOM     42  C   UNL     1      60.290  37.402  75.596  0.00  0.00    +0.000 C 
BRANCH  35  43
ATOM     43  O   UNL     1      59.322  35.547  74.558  0.00  0.00    +0.000 OA
ATOM     44  H   UNL     1      58.902  34.738  74.905  0.00  0.00    +0.000 HD
ENDBRANCH  35  43
BRANCH  37  45
ATOM     45  O   UNL     1      58.717  35.612  79.258  0.00  0.00    +0.000 OA
BRANCH  45  47
ATOM     46  O   UNL     1      59.668  33.714  80.256  0.00  0.00    +0.000 OA
ATOM     47  C   UNL     1      58.755  34.359  79.776  0.00  0.00    +0.000 C 
ATOM     48  C   UNL     1      57.450  33.645  79.738  0.00  0.00    +0.000 C 
ENDBRANCH  45  47
ENDBRANCH  37  45
ENDBRANCH  32  39
ENDBRANCH  30  33
ENDBRANCH  29  30
ENDBRANCH  27  29
ENDBRANCH  26  28
ENDBRANCH   1  25
TORSDOF 13
ENDMDL
MODEL 4
REMARK VINA RESULT:      -6.0     17.695     24.017
REMARK  Name = 5289155_Peridinin.pdbqt.pdb
REMARK  13 active torsions:
REMARK  status: ('A' for Active; 'I' for Inactive)
REMARK    1  A    between atoms: C_1  and  C_3
REMARK    2  A    between atoms: C_3  and  C_25
REMARK    3  A    between atoms: C_6  and  C_12
REMARK    4  A    between atoms: C_11  and  C_14
REMARK    5  A    between atoms: C_19  and  O_23
REMARK    6  A    between atoms: C_26  and  C_28
REMARK    7  A    between atoms: C_27  and  C_31
REMARK    8  A    between atoms: C_29  and  C_31
REMARK    9  A    between atoms: C_29  and  C_42
REMARK   10  A    between atoms: C_33  and  O_43
REMARK   11  A    between atoms: C_35  and  O_45
REMARK   12  A    between atoms: C_37  and  C_41
REMARK   13  A    between atoms: O_45  and  C_47
REMARK                            x       y       z     vdW  Elec       q    Type
REMARK                         _______ _______ _______ _____ _____    ______ ____
ROOT
ATOM      1  C   UNL     1      40.136  22.638  74.674  0.00  0.00    +0.000 C 
ENDROOT
BRANCH   1   2
ATOM      2  C   UNL     1      39.324  22.195  75.581  0.00  0.00    +0.000 C 
ATOM      3  C   UNL     1      38.113  21.406  75.187  0.00  0.00    +0.000 C 
ATOM      4  O   UNL     1      40.577  23.749  78.582  0.00  0.00    +0.000 OA
ATOM      5  O   UNL     1      40.763  24.712  80.682  0.00  0.00    +0.000 OA
ATOM      6  C   UNL     1      39.346  22.792  80.308  0.00  0.00    +0.000 C 
ATOM      7  C   UNL     1      39.101  22.104  79.254  0.00  0.00    +0.000 C 
ATOM      8  C   UNL     1      40.301  23.864  79.941  0.00  0.00    +0.000 C 
ATOM      9  C   UNL     1      39.846  22.628  78.200  0.00  0.00    +0.000 C 
ATOM     10  C   UNL     1      39.597  22.423  76.948  0.00  0.00    +0.000 C 
BRANCH   6  12
ATOM     11  C   UNL     1      38.280  22.341  82.647  0.00  0.00    +0.000 C 
ATOM     12  C   UNL     1      38.769  22.544  81.568  0.00  0.00    +0.000 C 
BRANCH  11  14
ATOM     13  O   UNL     1      37.228  20.726  84.050  0.00  0.00    +0.000 OA
ATOM     14  C   UNL     1      37.694  22.104  83.956  0.00  0.00    +0.000 C 
ATOM     15  C   UNL     1      38.331  21.054  84.891  0.00  0.00    +0.000 C 
ATOM     16  C   UNL     1      36.771  23.198  84.598  0.00  0.00    +0.000 C 
ATOM     17  C   UNL     1      37.963  21.099  86.270  0.00  0.00    +0.000 C 
ATOM     18  C   UNL     1      36.589  22.834  86.006  0.00  0.00    +0.000 C 
ATOM     19  C   UNL     1      37.069  21.928  86.970  0.00  0.00    +0.000 C 
ATOM     20  C   UNL     1      39.612  20.287  84.551  0.00  0.00    +0.000 C 
ATOM     21  C   UNL     1      37.556  24.532  84.474  0.00  0.00    +0.000 C 
ATOM     22  C   UNL     1      35.458  23.200  83.786  0.00  0.00    +0.000 C 
BRANCH  19  23
ATOM     23  O   UNL     1      37.277  22.308  88.262  0.00  0.00    +0.000 OA
ATOM     24  H   UNL     1      36.486  22.181  88.817  0.00  0.00    +0.000 HD
ENDBRANCH  19  23
ENDBRANCH  11  14
ENDBRANCH   6  12
ENDBRANCH   1   2
BRANCH   1  25
ATOM     25  C   UNL     1      41.097  23.161  73.600  0.00  0.00    +0.000 C 
ATOM     26  C   UNL     1      41.852  23.574  72.764  0.00  0.00    +0.000 C 
BRANCH  26  28
ATOM     27  C   UNL     1      43.581  24.516  70.871  0.00  0.00    +0.000 C 
ATOM     28  C   UNL     1      42.820  24.104  71.701  0.00  0.00    +0.000 C 
BRANCH  27  29
ATOM     29  C   UNL     1      44.560  25.040  69.813  0.00  0.00    +0.000 C 
BRANCH  29  30
ATOM     30  C   UNL     1      45.394  25.486  68.927  0.00  0.00    +0.000 C 
ATOM     31  C   UNL     1      45.142  26.795  68.242  0.00  0.00    +0.000 C 
BRANCH  30  33
ATOM     32  C   UNL     1      47.480  24.051  68.255  0.00  0.00    +0.000 C 
ATOM     33  C   UNL     1      46.522  24.708  68.563  0.00  0.00    +0.000 C 
BRANCH  32  39
ATOM     34  C   UNL     1      48.969  23.131  66.460  0.00  0.00    +0.000 C 
ATOM     35  C   UNL     1      49.348  22.600  68.979  0.00  0.00    +0.000 C 
ATOM     36  C   UNL     1      50.320  22.558  66.381  0.00  0.00    +0.000 C 
ATOM     37  C   UNL     1      51.314  22.044  67.239  0.00  0.00    +0.000 C 
ATOM     38  C   UNL     1      50.644  22.158  68.475  0.00  0.00    +0.000 C 
ATOM     39  C   UNL     1      48.533  23.330  67.923  0.00  0.00    +0.000 C 
ATOM     40  C   UNL     1      48.990  24.514  65.741  0.00  0.00    +0.000 C 
ATOM     41  C   UNL     1      47.952  22.187  65.764  0.00  0.00    +0.000 C 
ATOM     42  C   UNL     1      48.554  21.433  69.574  0.00  0.00    +0.000 C 
BRANCH  35  43
ATOM     43  O   UNL     1      49.586  23.470  70.064  0.00  0.00    +0.000 OA
ATOM     44  H   UNL     1      48.676  23.689  70.338  0.00  0.00    +0.000 HD
ENDBRANCH  35  43
BRANCH  37  45
ATOM     45  O   UNL     1      51.957  20.862  66.895  0.00  0.00    +0.000 OA
BRANCH  45  47
ATOM     46  O   UNL     1      53.882  21.274  65.619  0.00  0.00    +0.000 OA
ATOM     47  C   UNL     1      53.270  21.104  66.657  0.00  0.00    +0.000 C 
ATOM     48  C   UNL     1      54.111  21.158  67.883  0.00  0.00    +0.000 C 
ENDBRANCH  45  47
ENDBRANCH  37  45
ENDBRANCH  32  39
ENDBRANCH  30  33
ENDBRANCH  29  30
ENDBRANCH  27  29
ENDBRANCH  26  28
ENDBRANCH   1  25
TORSDOF 13
ENDMDL
MODEL 5
REMARK VINA RESULT:      -5.9     29.148     33.839
REMARK  Name = 5289155_Peridinin.pdbqt.pdb
REMARK  13 active torsions:
REMARK  status: ('A' for Active; 'I' for Inactive)
REMARK    1  A    between atoms: C_1  and  C_3
REMARK    2  A    between atoms: C_3  and  C_25
REMARK    3  A    between atoms: C_6  and  C_12
REMARK    4  A    between atoms: C_11  and  C_14
REMARK    5  A    between atoms: C_19  and  O_23
REMARK    6  A    between atoms: C_26  and  C_28
REMARK    7  A    between atoms: C_27  and  C_31
REMARK    8  A    between atoms: C_29  and  C_31
REMARK    9  A    between atoms: C_29  and  C_42
REMARK   10  A    between atoms: C_33  and  O_43
REMARK   11  A    between atoms: C_35  and  O_45
REMARK   12  A    between atoms: C_37  and  C_41
REMARK   13  A    between atoms: O_45  and  C_47
REMARK                            x       y       z     vdW  Elec       q    Type
REMARK                         _______ _______ _______ _____ _____    ______ ____
ROOT
ATOM      1  C   UNL     1      34.857  20.838  83.281  0.00  0.00    +0.000 C 
ENDROOT
BRANCH   1   2
ATOM      2  C   UNL     1      35.697  21.704  82.809  0.00  0.00    +0.000 C 
ATOM      3  C   UNL     1      35.444  22.352  81.482  0.00  0.00    +0.000 C 
ATOM      4  O   UNL     1      38.432  21.499  85.147  0.00  0.00    +0.000 OA
ATOM      5  O   UNL     1      40.532  21.530  86.129  0.00  0.00    +0.000 OA
ATOM      6  C   UNL     1      39.872  23.220  84.534  0.00  0.00    +0.000 C 
ATOM      7  C   UNL     1      38.780  23.401  83.884  0.00  0.00    +0.000 C 
ATOM      8  C   UNL     1      39.705  22.011  85.374  0.00  0.00    +0.000 C 
ATOM      9  C   UNL     1      37.878  22.405  84.248  0.00  0.00    +0.000 C 
ATOM     10  C   UNL     1      36.836  22.068  83.561  0.00  0.00    +0.000 C 
BRANCH   6  12
ATOM     11  C   UNL     1      41.983  24.739  84.327  0.00  0.00    +0.000 C 
ATOM     12  C   UNL     1      41.008  24.043  84.420  0.00  0.00    +0.000 C 
BRANCH  11  14
ATOM     13  O   UNL     1      42.922  26.672  83.297  0.00  0.00    +0.000 OA
ATOM     14  C   UNL     1      43.168  25.575  84.224  0.00  0.00    +0.000 C 
ATOM     15  C   UNL     1      43.090  27.054  84.660  0.00  0.00    +0.000 C 
ATOM     16  C   UNL     1      44.583  24.903  84.152  0.00  0.00    +0.000 C 
ATOM     17  C   UNL     1      44.325  27.735  84.881  0.00  0.00    +0.000 C 
ATOM     18  C   UNL     1      45.573  25.961  84.368  0.00  0.00    +0.000 C 
ATOM     19  C   UNL     1      45.659  27.315  84.743  0.00  0.00    +0.000 C 
ATOM     20  C   UNL     1      41.840  27.688  85.277  0.00  0.00    +0.000 C 
ATOM     21  C   UNL     1      44.618  23.875  85.315  0.00  0.00    +0.000 C 
ATOM     22  C   UNL     1      44.684  24.236  82.763  0.00  0.00    +0.000 C 
BRANCH  19  23
ATOM     23  O   UNL     1      46.660  27.767  85.550  0.00  0.00    +0.000 OA
ATOM     24  H   UNL     1      46.371  27.875  86.474  0.00  0.00    +0.000 HD
ENDBRANCH  19  23
ENDBRANCH  11  14
ENDBRANCH   6  12
ENDBRANCH   1   2
BRANCH   1  25
ATOM     25  C   UNL     1      33.863  19.813  83.841  0.00  0.00    +0.000 C 
ATOM     26  C   UNL     1      33.089  19.007  84.278  0.00  0.00    +0.000 C 
BRANCH  26  28
ATOM     27  C   UNL     1      31.335  17.161  85.266  0.00  0.00    +0.000 C 
ATOM     28  C   UNL     1      32.107  17.972  84.835  0.00  0.00    +0.000 C 
BRANCH  27  29
ATOM     29  C   UNL     1      30.344  16.125  85.812  0.00  0.00    +0.000 C 
BRANCH  29  30
ATOM     30  C   UNL     1      29.509  15.254  86.282  0.00  0.00    +0.000 C 
ATOM     31  C   UNL     1      29.954  13.850  86.559  0.00  0.00    +0.000 C 
BRANCH  30  33
ATOM     32  C   UNL     1      27.003  15.920  86.660  0.00  0.00    +0.000 C 
ATOM     33  C   UNL     1      28.152  15.614  86.485  0.00  0.00    +0.000 C 
BRANCH  32  39
ATOM     34  C   UNL     1      24.574  15.311  86.537  0.00  0.00    +0.000 C 
ATOM     35  C   UNL     1      25.374  17.652  87.344  0.00  0.00    +0.000 C 
ATOM     36  C   UNL     1      23.318  15.805  87.119  0.00  0.00    +0.000 C 
ATOM     37  C   UNL     1      22.829  16.936  87.803  0.00  0.00    +0.000 C 
ATOM     38  C   UNL     1      23.998  17.726  87.821  0.00  0.00    +0.000 C 
ATOM     39  C   UNL     1      25.744  16.262  86.851  0.00  0.00    +0.000 C 
ATOM     40  C   UNL     1      24.873  13.911  87.156  0.00  0.00    +0.000 C 
ATOM     41  C   UNL     1      24.433  15.191  84.996  0.00  0.00    +0.000 C 
ATOM     42  C   UNL     1      25.649  18.706  86.267  0.00  0.00    +0.000 C 
BRANCH  35  43
ATOM     43  O   UNL     1      26.218  18.001  88.419  0.00  0.00    +0.000 OA
ATOM     44  H   UNL     1      25.674  17.735  89.185  0.00  0.00    +0.000 HD
ENDBRANCH  35  43
BRANCH  37  45
ATOM     45  O   UNL     1      21.614  17.487  87.416  0.00  0.00    +0.000 OA
BRANCH  45  47
ATOM     46  O   UNL     1      19.737  16.208  88.002  0.00  0.00    +0.000 OA
ATOM     47  C   UNL     1      20.621  17.018  88.211  0.00  0.00    +0.000 C 
ATOM     48  C   UNL     1      20.603  17.609  89.576  0.00  0.00    +0.000 C 
ENDBRANCH  45  47
ENDBRANCH  37  45
ENDBRANCH  32  39
ENDBRANCH  30  33
ENDBRANCH  29  30
ENDBRANCH  27  29
ENDBRANCH  26  28
ENDBRANCH   1  25
TORSDOF 13
ENDMDL
MODEL 6
REMARK VINA RESULT:      -5.9     32.856     36.866
REMARK  Name = 5289155_Peridinin.pdbqt.pdb
REMARK  13 active torsions:
REMARK  status: ('A' for Active; 'I' for Inactive)
REMARK    1  A    between atoms: C_1  and  C_3
REMARK    2  A    between atoms: C_3  and  C_25
REMARK    3  A    between atoms: C_6  and  C_12
REMARK    4  A    between atoms: C_11  and  C_14
REMARK    5  A    between atoms: C_19  and  O_23
REMARK    6  A    between atoms: C_26  and  C_28
REMARK    7  A    between atoms: C_27  and  C_31
REMARK    8  A    between atoms: C_29  and  C_31
REMARK    9  A    between atoms: C_29  and  C_42
REMARK   10  A    between atoms: C_33  and  O_43
REMARK   11  A    between atoms: C_35  and  O_45
REMARK   12  A    between atoms: C_37  and  C_41
REMARK   13  A    between atoms: O_45  and  C_47
REMARK                            x       y       z     vdW  Elec       q    Type
REMARK                         _______ _______ _______ _____ _____    ______ ____
ROOT
ATOM      1  C   UNL     1      32.996  17.472  86.462  0.00  0.00    +0.000 C 
ENDROOT
BRANCH   1   2
ATOM      2  C   UNL     1      34.243  17.799  86.324  0.00  0.00    +0.000 C 
ATOM      3  C   UNL     1      35.300  17.081  87.106  0.00  0.00    +0.000 C 
ATOM      4  O   UNL     1      34.057  20.747  84.259  0.00  0.00    +0.000 OA
ATOM      5  O   UNL     1      34.475  22.793  83.253  0.00  0.00    +0.000 OA
ATOM      6  C   UNL     1      36.267  21.245  83.730  0.00  0.00    +0.000 C 
ATOM      7  C   UNL     1      36.268  20.078  84.263  0.00  0.00    +0.000 C 
ATOM      8  C   UNL     1      34.866  21.726  83.691  0.00  0.00    +0.000 C 
ATOM      9  C   UNL     1      34.955  19.729  84.567  0.00  0.00    +0.000 C 
ATOM     10  C   UNL     1      34.613  18.808  85.407  0.00  0.00    +0.000 C 
BRANCH   6  12
ATOM     11  C   UNL     1      38.405  22.499  82.916  0.00  0.00    +0.000 C 
ATOM     12  C   UNL     1      37.423  21.917  83.292  0.00  0.00    +0.000 C 
BRANCH  11  14
ATOM     13  O   UNL     1      39.382  24.648  82.588  0.00  0.00    +0.000 OA
ATOM     14  C   UNL     1      39.587  23.212  82.458  0.00  0.00    +0.000 C 
ATOM     15  C   UNL     1      40.371  24.094  83.453  0.00  0.00    +0.000 C 
ATOM     16  C   UNL     1      40.327  22.726  81.163  0.00  0.00    +0.000 C 
ATOM     17  C   UNL     1      41.693  24.483  83.079  0.00  0.00    +0.000 C 
ATOM     18  C   UNL     1      41.620  23.414  81.124  0.00  0.00    +0.000 C 
ATOM     19  C   UNL     1      42.444  24.236  81.917  0.00  0.00    +0.000 C 
ATOM     20  C   UNL     1      40.020  24.208  84.939  0.00  0.00    +0.000 C 
ATOM     21  C   UNL     1      40.524  21.197  81.343  0.00  0.00    +0.000 C 
ATOM     22  C   UNL     1      39.407  23.073  79.973  0.00  0.00    +0.000 C 
BRANCH  19  23
ATOM     23  O   UNL     1      43.797  24.080  81.935  0.00  0.00    +0.000 OA
ATOM     24  H   UNL     1      44.126  23.795  82.806  0.00  0.00    +0.000 HD
ENDBRANCH  19  23
ENDBRANCH  11  14
ENDBRANCH   6  12
ENDBRANCH   1   2
BRANCH   1  25
ATOM     25  C   UNL     1      31.522  17.087  86.626  0.00  0.00    +0.000 C 
ATOM     26  C   UNL     1      30.368  16.782  86.750  0.00  0.00    +0.000 C 
BRANCH  26  28
ATOM     27  C   UNL     1      27.743  16.077  87.021  0.00  0.00    +0.000 C 
ATOM     28  C   UNL     1      28.895  16.390  86.901  0.00  0.00    +0.000 C 
BRANCH  27  29
ATOM     29  C   UNL     1      26.272  15.670  87.173  0.00  0.00    +0.000 C 
BRANCH  29  30
ATOM     30  C   UNL     1      25.033  15.320  87.311  0.00  0.00    +0.000 C 
ATOM     31  C   UNL     1      23.993  16.339  87.670  0.00  0.00    +0.000 C 
BRANCH  30  33
ATOM     32  C   UNL     1      24.352  12.802  87.059  0.00  0.00    +0.000 C 
ATOM     33  C   UNL     1      24.664  13.957  87.176  0.00  0.00    +0.000 C 
BRANCH  32  39
ATOM     34  C   UNL     1      24.749  10.406  87.678  0.00  0.00    +0.000 C 
ATOM     35  C   UNL     1      22.909  11.108  85.979  0.00  0.00    +0.000 C 
ATOM     36  C   UNL     1      23.999   9.145  87.606  0.00  0.00    +0.000 C 
ATOM     37  C   UNL     1      22.849   8.620  86.981  0.00  0.00    +0.000 C 
ATOM     38  C   UNL     1      22.453   9.746  86.229  0.00  0.00    +0.000 C 
ATOM     39  C   UNL     1      24.016  11.534  86.930  0.00  0.00    +0.000 C 
ATOM     40  C   UNL     1      24.890  10.797  89.181  0.00  0.00    +0.000 C 
ATOM     41  C   UNL     1      26.154  10.223  87.044  0.00  0.00    +0.000 C 
ATOM     42  C   UNL     1      23.339  11.294  84.521  0.00  0.00    +0.000 C 
BRANCH  35  43
ATOM     43  O   UNL     1      21.801  11.966  86.145  0.00  0.00    +0.000 OA
ATOM     44  H   UNL     1      22.230  12.769  86.497  0.00  0.00    +0.000 HD
ENDBRANCH  35  43
BRANCH  37  45
ATOM     45  O   UNL     1      22.916   7.366  86.387  0.00  0.00    +0.000 OA
BRANCH  45  47
ATOM     46  O   UNL     1      20.617   7.061  86.736  0.00  0.00    +0.000 OA
ATOM     47  C   UNL     1      21.666   6.906  86.138  0.00  0.00    +0.000 C 
ATOM     48  C   UNL     1      21.562   6.048  84.927  0.00  0.00    +0.000 C 
ENDBRANCH  45  47
ENDBRANCH  37  45
ENDBRANCH  32  39
ENDBRANCH  30  33
ENDBRANCH  29  30
ENDBRANCH  27  29
ENDBRANCH  26  28
ENDBRANCH   1  25
TORSDOF 13
ENDMDL
MODEL 7
REMARK VINA RESULT:      -5.8     17.265     23.991
REMARK  Name = 5289155_Peridinin.pdbqt.pdb
REMARK  13 active torsions:
REMARK  status: ('A' for Active; 'I' for Inactive)
REMARK    1  A    between atoms: C_1  and  C_3
REMARK    2  A    between atoms: C_3  and  C_25
REMARK    3  A    between atoms: C_6  and  C_12
REMARK    4  A    between atoms: C_11  and  C_14
REMARK    5  A    between atoms: C_19  and  O_23
REMARK    6  A    between atoms: C_26  and  C_28
REMARK    7  A    between atoms: C_27  and  C_31
REMARK    8  A    between atoms: C_29  and  C_31
REMARK    9  A    between atoms: C_29  and  C_42
REMARK   10  A    between atoms: C_33  and  O_43
REMARK   11  A    between atoms: C_35  and  O_45
REMARK   12  A    between atoms: C_37  and  C_41
REMARK   13  A    between atoms: O_45  and  C_47
REMARK                            x       y       z     vdW  Elec       q    Type
REMARK                         _______ _______ _______ _____ _____    ______ ____
ROOT
ATOM      1  C   UNL     1      52.757  21.461  86.295  0.00  0.00    +0.000 C 
ENDROOT
BRANCH   1   2
ATOM      2  C   UNL     1      51.822  22.126  86.897  0.00  0.00    +0.000 C 
ATOM      3  C   UNL     1      51.923  22.409  88.364  0.00  0.00    +0.000 C 
ATOM      4  O   UNL     1      49.296  22.413  84.341  0.00  0.00    +0.000 OA
ATOM      5  O   UNL     1      47.282  22.598  83.209  0.00  0.00    +0.000 OA
ATOM      6  C   UNL     1      47.691  23.833  85.244  0.00  0.00    +0.000 C 
ATOM      7  C   UNL     1      48.713  23.889  86.018  0.00  0.00    +0.000 C 
ATOM      8  C   UNL     1      48.010  22.902  84.136  0.00  0.00    +0.000 C 
ATOM      9  C   UNL     1      49.712  23.073  85.493  0.00  0.00    +0.000 C 
ATOM     10  C   UNL     1      50.720  22.619  86.162  0.00  0.00    +0.000 C 
BRANCH   6  12
ATOM     11  C   UNL     1      45.466  25.136  85.639  0.00  0.00    +0.000 C 
ATOM     12  C   UNL     1      46.492  24.536  85.463  0.00  0.00    +0.000 C 
BRANCH  11  14
ATOM     13  O   UNL     1      43.152  24.935  86.175  0.00  0.00    +0.000 OA
ATOM     14  C   UNL     1      44.224  25.864  85.842  0.00  0.00    +0.000 C 
ATOM     15  C   UNL     1      43.537  25.820  87.224  0.00  0.00    +0.000 C 
ATOM     16  C   UNL     1      43.852  27.041  84.873  0.00  0.00    +0.000 C 
ATOM     17  C   UNL     1      42.541  26.807  87.491  0.00  0.00    +0.000 C 
ATOM     18  C   UNL     1      42.741  27.771  85.490  0.00  0.00    +0.000 C 
ATOM     19  C   UNL     1      42.015  27.839  86.694  0.00  0.00    +0.000 C 
ATOM     20  C   UNL     1      44.134  25.106  88.440  0.00  0.00    +0.000 C 
ATOM     21  C   UNL     1      45.119  27.935  84.796  0.00  0.00    +0.000 C 
ATOM     22  C   UNL     1      43.492  26.398  83.516  0.00  0.00    +0.000 C 
BRANCH  19  23
ATOM     23  O   UNL     1      41.607  29.032  87.212  0.00  0.00    +0.000 OA
ATOM     24  H   UNL     1      42.053  29.245  88.051  0.00  0.00    +0.000 HD
ENDBRANCH  19  23
ENDBRANCH  11  14
ENDBRANCH   6  12
ENDBRANCH   1   2
BRANCH   1  25
ATOM     25  C   UNL     1      53.863  20.674  85.583  0.00  0.00    +0.000 C 
ATOM     26  C   UNL     1      54.728  20.053  85.028  0.00  0.00    +0.000 C 
BRANCH  26  28
ATOM     27  C   UNL     1      56.693  18.634  83.770  0.00  0.00    +0.000 C 
ATOM     28  C   UNL     1      55.829  19.254  84.324  0.00  0.00    +0.000 C 
BRANCH  27  29
ATOM     29  C   UNL     1      57.799  17.846  83.057  0.00  0.00    +0.000 C 
BRANCH  29  30
ATOM     30  C   UNL     1      58.740  17.186  82.460  0.00  0.00    +0.000 C 
ATOM     31  C   UNL     1      58.906  15.716  82.703  0.00  0.00    +0.000 C 
BRANCH  30  33
ATOM     32  C   UNL     1      60.424  18.443  80.895  0.00  0.00    +0.000 C 
ATOM     33  C   UNL     1      59.653  17.865  81.614  0.00  0.00    +0.000 C 
BRANCH  32  39
ATOM     34  C   UNL     1      61.808  20.485  80.447  0.00  0.00    +0.000 C 
ATOM     35  C   UNL     1      61.719  18.482  78.788  0.00  0.00    +0.000 C 
ATOM     36  C   UNL     1      62.948  20.836  79.589  0.00  0.00    +0.000 C 
ATOM     37  C   UNL     1      63.651  20.318  78.482  0.00  0.00    +0.000 C 
ATOM     38  C   UNL     1      62.894  19.153  78.243  0.00  0.00    +0.000 C 
ATOM     39  C   UNL     1      61.270  19.082  80.111  0.00  0.00    +0.000 C 
ATOM     40  C   UNL     1      62.296  20.504  81.928  0.00  0.00    +0.000 C 
ATOM     41  C   UNL     1      60.663  21.514  80.252  0.00  0.00    +0.000 C 
ATOM     42  C   UNL     1      60.568  18.463  77.777  0.00  0.00    +0.000 C 
BRANCH  35  43
ATOM     43  O   UNL     1      62.054  17.126  78.985  0.00  0.00    +0.000 OA
ATOM     44  H   UNL     1      61.876  17.020  79.938  0.00  0.00    +0.000 HD
ENDBRANCH  35  43
BRANCH  37  45
ATOM     45  O   UNL     1      63.982  21.168  77.434  0.00  0.00    +0.000 OA
BRANCH  45  47
ATOM     46  O   UNL     1      66.239  20.980  78.043  0.00  0.00    +0.000 OA
ATOM     47  C   UNL     1      65.327  21.193  77.267  0.00  0.00    +0.000 C 
ATOM     48  C   UNL     1      65.762  21.559  75.892  0.00  0.00    +0.000 C 
ENDBRANCH  45  47
ENDBRANCH  37  45
ENDBRANCH  32  39
ENDBRANCH  30  33
ENDBRANCH  29  30
ENDBRANCH  27  29
ENDBRANCH  26  28
ENDBRANCH   1  25
TORSDOF 13
ENDMDL
MODEL 8
REMARK VINA RESULT:      -5.7     29.659     36.174
REMARK  Name = 5289155_Peridinin.pdbqt.pdb
REMARK  13 active torsions:
REMARK  status: ('A' for Active; 'I' for Inactive)
REMARK    1  A    between atoms: C_1  and  C_3
REMARK    2  A    between atoms: C_3  and  C_25
REMARK    3  A    between atoms: C_6  and  C_12
REMARK    4  A    between atoms: C_11  and  C_14
REMARK    5  A    between atoms: C_19  and  O_23
REMARK    6  A    between atoms: C_26  and  C_28
REMARK    7  A    between atoms: C_27  and  C_31
REMARK    8  A    between atoms: C_29  and  C_31
REMARK    9  A    between atoms: C_29  and  C_42
REMARK   10  A    between atoms: C_33  and  O_43
REMARK   11  A    between atoms: C_35  and  O_45
REMARK   12  A    between atoms: C_37  and  C_41
REMARK   13  A    between atoms: O_45  and  C_47
REMARK                            x       y       z     vdW  Elec       q    Type
REMARK                         _______ _______ _______ _____ _____    ______ ____
ROOT
ATOM      1  C   UNL     1      32.180  17.038  88.268  0.00  0.00    +0.000 C 
ENDROOT
BRANCH   1   2
ATOM      2  C   UNL     1      31.283  16.654  89.121  0.00  0.00    +0.000 C 
ATOM      3  C   UNL     1      30.237  15.661  88.717  0.00  0.00    +0.000 C 
ATOM      4  O   UNL     1      31.877  18.842  91.923  0.00  0.00    +0.000 OA
ATOM      5  O   UNL     1      31.628  20.163  93.811  0.00  0.00    +0.000 OA
ATOM      6  C   UNL     1      30.491  18.041  93.610  0.00  0.00    +0.000 C 
ATOM      7  C   UNL     1      30.488  17.159  92.679  0.00  0.00    +0.000 C 
ATOM      8  C   UNL     1      31.378  19.149  93.184  0.00  0.00    +0.000 C 
ATOM      9  C   UNL     1      31.334  17.588  91.659  0.00  0.00    +0.000 C 
ATOM     10  C   UNL     1      31.311  17.144  90.446  0.00  0.00    +0.000 C 
BRANCH   6  12
ATOM     11  C   UNL     1      29.124  17.853  95.824  0.00  0.00    +0.000 C 
ATOM     12  C   UNL     1      29.749  17.938  94.801  0.00  0.00    +0.000 C 
BRANCH  11  14
ATOM     13  O   UNL     1      28.052  19.081  97.563  0.00  0.00    +0.000 OA
ATOM     14  C   UNL     1      28.377  17.750  97.067  0.00  0.00    +0.000 C 
ATOM     15  C   UNL     1      26.937  18.303  97.133  0.00  0.00    +0.000 C 
ATOM     16  C   UNL     1      28.807  16.690  98.140  0.00  0.00    +0.000 C 
ATOM     17  C   UNL     1      26.123  17.877  98.226  0.00  0.00    +0.000 C 
ATOM     18  C   UNL     1      27.718  16.600  99.117  0.00  0.00    +0.000 C 
ATOM     19  C   UNL     1      26.396  17.039  99.320  0.00  0.00    +0.000 C 
ATOM     20  C   UNL     1      26.205  18.897  95.926  0.00  0.00    +0.000 C 
ATOM     21  C   UNL     1      28.963  15.352  97.368  0.00  0.00    +0.000 C 
ATOM     22  C   UNL     1      30.138  17.189  98.744  0.00  0.00    +0.000 C 
BRANCH  19  23
ATOM     23  O   UNL     1      25.455  16.227  99.878  0.00  0.00    +0.000 OA
ATOM     24  H   UNL     1      25.736  15.871 100.740  0.00  0.00    +0.000 HD
ENDBRANCH  19  23
ENDBRANCH  11  14
ENDBRANCH   6  12
ENDBRANCH   1   2
BRANCH   1  25
ATOM     25  C   UNL     1      33.242  17.491  87.260  0.00  0.00    +0.000 C 
ATOM     26  C   UNL     1      34.070  17.848  86.468  0.00  0.00    +0.000 C 
BRANCH  26  28
ATOM     27  C   UNL     1      35.943  18.668  84.656  0.00  0.00    +0.000 C 
ATOM     28  C   UNL     1      35.121  18.310  85.454  0.00  0.00    +0.000 C 
BRANCH  27  29
ATOM     29  C   UNL     1      36.993  19.118  83.633  0.00  0.00    +0.000 C 
BRANCH  29  30
ATOM     30  C   UNL     1      37.881  19.488  82.766  0.00  0.00    +0.000 C 
ATOM     31  C   UNL     1      38.196  18.619  81.586  0.00  0.00    +0.000 C 
BRANCH  30  33
ATOM     32  C   UNL     1      39.214  21.715  83.127  0.00  0.00    +0.000 C 
ATOM     33  C   UNL     1      38.601  20.694  82.962  0.00  0.00    +0.000 C 
BRANCH  32  39
ATOM     34  C   UNL     1      39.768  23.677  84.586  0.00  0.00    +0.000 C 
ATOM     35  C   UNL     1      40.782  23.392  82.208  0.00  0.00    +0.000 C 
ATOM     36  C   UNL     1      40.832  24.688  84.659  0.00  0.00    +0.000 C 
ATOM     37  C   UNL     1      41.883  25.192  83.865  0.00  0.00    +0.000 C 
ATOM     38  C   UNL     1      41.693  24.418  82.702  0.00  0.00    +0.000 C 
ATOM     39  C   UNL     1      39.886  22.835  83.303  0.00  0.00    +0.000 C 
ATOM     40  C   UNL     1      39.909  22.741  85.826  0.00  0.00    +0.000 C 
ATOM     41  C   UNL     1      38.378  24.368  84.599  0.00  0.00    +0.000 C 
ATOM     42  C   UNL     1      39.951  23.904  81.027  0.00  0.00    +0.000 C 
BRANCH  35  43
ATOM     43  O   UNL     1      41.566  22.346  81.675  0.00  0.00    +0.000 OA
ATOM     44  H   UNL     1      42.232  22.845  81.166  0.00  0.00    +0.000 HD
ENDBRANCH  35  43
BRANCH  37  45
ATOM     45  O   UNL     1      42.061  26.566  83.775  0.00  0.00    +0.000 OA
BRANCH  45  47
ATOM     46  O   UNL     1      44.363  26.156  83.959  0.00  0.00    +0.000 OA
ATOM     47  C   UNL     1      43.380  26.867  83.863  0.00  0.00    +0.000 C 
ATOM     48  C   UNL     1      43.674  28.326  83.853  0.00  0.00    +0.000 C 
ENDBRANCH  45  47
ENDBRANCH  37  45
ENDBRANCH  32  39
ENDBRANCH  30  33
ENDBRANCH  29  30
ENDBRANCH  27  29
ENDBRANCH  26  28
ENDBRANCH   1  25
TORSDOF 13
ENDMDL
MODEL 9
REMARK VINA RESULT:      -5.6     47.775     51.155
REMARK  Name = 5289155_Peridinin.pdbqt.pdb
REMARK  13 active torsions:
REMARK  status: ('A' for Active; 'I' for Inactive)
REMARK    1  A    between atoms: C_1  and  C_3
REMARK    2  A    between atoms: C_3  and  C_25
REMARK    3  A    between atoms: C_6  and  C_12
REMARK    4  A    between atoms: C_11  and  C_14
REMARK    5  A    between atoms: C_19  and  O_23
REMARK    6  A    between atoms: C_26  and  C_28
REMARK    7  A    between atoms: C_27  and  C_31
REMARK    8  A    between atoms: C_29  and  C_31
REMARK    9  A    between atoms: C_29  and  C_42
REMARK   10  A    between atoms: C_33  and  O_43
REMARK   11  A    between atoms: C_35  and  O_45
REMARK   12  A    between atoms: C_37  and  C_41
REMARK   13  A    between atoms: O_45  and  C_47
REMARK                            x       y       z     vdW  Elec       q    Type
REMARK                         _______ _______ _______ _____ _____    ______ ____
ROOT
ATOM      1  C   UNL     1      15.583  19.938  83.745  0.00  0.00    +0.000 C 
ENDROOT
BRANCH   1   2
ATOM      2  C   UNL     1      16.616  20.343  84.414  0.00  0.00    +0.000 C 
ATOM      3  C   UNL     1      17.413  21.516  83.932  0.00  0.00    +0.000 C 
ATOM      4  O   UNL     1      16.983  17.779  86.920  0.00  0.00    +0.000 OA
ATOM      5  O   UNL     1      17.839  16.294  88.481  0.00  0.00    +0.000 OA
ATOM      6  C   UNL     1      18.649  18.566  88.340  0.00  0.00    +0.000 C 
ATOM      7  C   UNL     1      18.322  19.543  87.575  0.00  0.00    +0.000 C 
ATOM      8  C   UNL     1      17.811  17.400  87.972  0.00  0.00    +0.000 C 
ATOM      9  C   UNL     1      17.301  19.120  86.728  0.00  0.00    +0.000 C 
ATOM     10  C   UNL     1      16.973  19.702  85.621  0.00  0.00    +0.000 C 
BRANCH   6  12
ATOM     11  C   UNL     1      20.506  18.696  90.168  0.00  0.00    +0.000 C 
ATOM     12  C   UNL     1      19.647  18.633  89.329  0.00  0.00    +0.000 C 
BRANCH  11  14
ATOM     13  O   UNL     1      22.822  19.114  90.545  0.00  0.00    +0.000 OA
ATOM     14  C   UNL     1      21.553  18.773  91.174  0.00  0.00    +0.000 C 
ATOM     15  C   UNL     1      22.282  20.114  91.406  0.00  0.00    +0.000 C 
ATOM     16  C   UNL     1      21.605  17.699  92.316  0.00  0.00    +0.000 C 
ATOM     17  C   UNL     1      23.032  20.249  92.614  0.00  0.00    +0.000 C 
ATOM     18  C   UNL     1      22.540  18.196  93.330  0.00  0.00    +0.000 C 
ATOM     19  C   UNL     1      23.275  19.349  93.666  0.00  0.00    +0.000 C 
ATOM     20  C   UNL     1      21.912  21.412  90.683  0.00  0.00    +0.000 C 
ATOM     21  C   UNL     1      20.164  17.626  92.888  0.00  0.00    +0.000 C 
ATOM     22  C   UNL     1      22.054  16.377  91.658  0.00  0.00    +0.000 C 
BRANCH  19  23
ATOM     23  O   UNL     1      23.415  19.751  94.960  0.00  0.00    +0.000 OA
ATOM     24  H   UNL     1      24.249  20.230  95.111  0.00  0.00    +0.000 HD
ENDBRANCH  19  23
ENDBRANCH  11  14
ENDBRANCH   6  12
ENDBRANCH   1   2
BRANCH   1  25
ATOM     25  C   UNL     1      14.361  19.458  82.954  0.00  0.00    +0.000 C 
ATOM     26  C   UNL     1      13.401  19.081  82.339  0.00  0.00    +0.000 C 
BRANCH  26  28
ATOM     27  C   UNL     1      11.214  18.221  80.948  0.00  0.00    +0.000 C 
ATOM     28  C   UNL     1      12.173  18.600  81.561  0.00  0.00    +0.000 C 
BRANCH  27  29
ATOM     29  C   UNL     1       9.992  17.738  80.157  0.00  0.00    +0.000 C 
BRANCH  29  30
ATOM     30  C   UNL     1       8.966  17.330  79.479  0.00  0.00    +0.000 C 
ATOM     31  C   UNL     1       8.658  17.926  78.139  0.00  0.00    +0.000 C 
BRANCH  30  33
ATOM     32  C   UNL     1       7.360  15.530  80.501  0.00  0.00    +0.000 C 
ATOM     33  C   UNL     1       8.097  16.355  80.031  0.00  0.00    +0.000 C 
BRANCH  32  39
ATOM     34  C   UNL     1       5.570  13.811  80.152  0.00  0.00    +0.000 C 
ATOM     35  C   UNL     1       6.492  14.387  82.515  0.00  0.00    +0.000 C 
ATOM     36  C   UNL     1       5.011  12.680  80.907  0.00  0.00    +0.000 C 
ATOM     37  C   UNL     1       5.024  12.161  82.217  0.00  0.00    +0.000 C 
ATOM     38  C   UNL     1       5.812  13.141  82.854  0.00  0.00    +0.000 C 
ATOM     39  C   UNL     1       6.547  14.628  81.015  0.00  0.00    +0.000 C 
ATOM     40  C   UNL     1       6.334  13.236  78.920  0.00  0.00    +0.000 C 
ATOM     41  C   UNL     1       4.426  14.746  79.677  0.00  0.00    +0.000 C 
ATOM     42  C   UNL     1       5.862  15.581  83.239  0.00  0.00    +0.000 C 
BRANCH  35  43
ATOM     43  O   UNL     1       7.807  14.307  83.020  0.00  0.00    +0.000 OA
ATOM     44  H   UNL     1       8.040  13.384  82.806  0.00  0.00    +0.000 HD
ENDBRANCH  35  43
BRANCH  37  45
ATOM     45  O   UNL     1       3.829  11.740  82.789  0.00  0.00    +0.000 OA
BRANCH  45  47
ATOM     46  O   UNL     1       4.692   9.792  83.770  0.00  0.00    +0.000 OA
ATOM     47  C   UNL     1       4.080  10.843  83.774  0.00  0.00    +0.000 C 
ATOM     48  C   UNL     1       3.490  11.206  85.091  0.00  0.00    +0.000 C 
ENDBRANCH  45  47
ENDBRANCH  37  45
ENDBRANCH  32  39
ENDBRANCH  30  33
ENDBRANCH  29  30
ENDBRANCH  27  29
ENDBRANCH  26  28
ENDBRANCH   1  25
TORSDOF 13
ENDMDL
