MODEL 1
REMARK VINA RESULT:      -6.6      0.000      0.000
REMARK  Name = 5318517_Andrographolide.pdbqt.pdb
REMARK  6 active torsions:
REMARK  status: ('A' for Active; 'I' for Inactive)
REMARK    1  A    between atoms: C_3  and  C_16
REMARK    2  A    between atoms: C_4  and  C_19
REMARK    3  A    between atoms: C_6  and  O_14
REMARK    4  A    between atoms: C_16  and  O_17
REMARK    5  A    between atoms: C_22  and  C_23
REMARK    6  A    between atoms: C_24  and  O_27
REMARK                            x       y       z     vdW  Elec       q    Type
REMARK                         _______ _______ _______ _____ _____    ______ ____
ROOT
ATOM      1  C   UNL     1      60.479  36.360  76.135  0.00  0.00    +0.000 C 
ATOM      2  C   UNL     1      61.184  37.273  75.086  0.00  0.00    +0.000 C 
ATOM      3  C   UNL     1      62.634  37.040  74.627  0.00  0.00    +0.000 C 
ATOM      4  C   UNL     1      59.375  37.017  77.011  0.00  0.00    +0.000 C 
ATOM      5  C   UNL     1      61.561  35.868  76.982  0.00  0.00    +0.000 C 
ATOM      6  C   UNL     1      63.575  36.276  75.607  0.00  0.00    +0.000 C 
ATOM      7  C   UNL     1      60.376  38.357  74.638  0.00  0.00    +0.000 C 
ATOM      8  C   UNL     1      63.040  35.784  76.811  0.00  0.00    +0.000 C 
ATOM      9  C   UNL     1      59.819  35.184  75.351  0.00  0.00    +0.000 C 
ATOM     10  C   UNL     1      59.112  38.760  75.327  0.00  0.00    +0.000 C 
ATOM     11  C   UNL     1      58.590  38.142  76.483  0.00  0.00    +0.000 C 
ATOM     12  C   UNL     1      63.302  38.447  74.414  0.00  0.00    +0.000 C 
ATOM     13  C   UNL     1      57.591  38.754  77.121  0.00  0.00    +0.000 C 
ENDROOT
BRANCH   6  14
ATOM     14  O   UNL     1      64.852  35.908  75.221  0.00  0.00    +0.000 OA
ATOM     15  H   UNL     1      64.846  35.270  74.485  0.00  0.00    +0.000 HD
ENDBRANCH   6  14
BRANCH   4  16
ATOM     16  C   UNL     1      59.031  36.451  78.285  0.00  0.00    +0.000 C 
ATOM     17  C   UNL     1      58.674  35.842  79.644  0.00  0.00    +0.000 C 
BRANCH  17  20
ATOM     18  O   UNL     1      57.168  34.963  82.750  0.00  0.00    +0.000 OA
ATOM     19  O   UNL     1      56.548  36.819  81.481  0.00  0.00    +0.000 OA
ATOM     20  C   UNL     1      58.378  35.332  80.798  0.00  0.00    +0.000 C 
ATOM     21  C   UNL     1      58.954  34.166  81.420  0.00  0.00    +0.000 C 
ATOM     22  C   UNL     1      57.249  35.841  81.672  0.00  0.00    +0.000 C 
ATOM     23  C   UNL     1      58.124  34.070  82.538  0.00  0.00    +0.000 C 
BRANCH  21  24
ATOM     24  O   UNL     1      59.352  33.104  80.658  0.00  0.00    +0.000 OA
ATOM     25  H   UNL     1      58.601  32.686  80.201  0.00  0.00    +0.000 HD
ENDBRANCH  21  24
ENDBRANCH  17  20
ENDBRANCH   4  16
BRANCH   3  26
ATOM     26  C   UNL     1      62.586  36.292  73.339  0.00  0.00    +0.000 C 
BRANCH  26  27
ATOM     27  O   UNL     1      62.532  35.616  72.188  0.00  0.00    +0.000 OA
ATOM     28  H   UNL     1      62.006  34.802  72.292  0.00  0.00    +0.000 HD
ENDBRANCH  26  27
ENDBRANCH   3  26
TORSDOF 6
ENDMDL
MODEL 2
REMARK VINA RESULT:      -6.4      2.287      6.865
REMARK  Name = 5318517_Andrographolide.pdbqt.pdb
REMARK  6 active torsions:
REMARK  status: ('A' for Active; 'I' for Inactive)
REMARK    1  A    between atoms: C_3  and  C_16
REMARK    2  A    between atoms: C_4  and  C_19
REMARK    3  A    between atoms: C_6  and  O_14
REMARK    4  A    between atoms: C_16  and  O_17
REMARK    5  A    between atoms: C_22  and  C_23
REMARK    6  A    between atoms: C_24  and  O_27
REMARK                            x       y       z     vdW  Elec       q    Type
REMARK                         _______ _______ _______ _____ _____    ______ ____
ROOT
ATOM      1  C   UNL     1      58.582  36.521  76.527  0.00  0.00    +0.000 C 
ATOM      2  C   UNL     1      57.071  36.143  76.453  0.00  0.00    +0.000 C 
ATOM      3  C   UNL     1      56.148  36.179  77.684  0.00  0.00    +0.000 C 
ATOM      4  C   UNL     1      59.531  35.829  75.507  0.00  0.00    +0.000 C 
ATOM      5  C   UNL     1      58.981  36.181  77.889  0.00  0.00    +0.000 C 
ATOM      6  C   UNL     1      56.821  36.028  79.082  0.00  0.00    +0.000 C 
ATOM      7  C   UNL     1      56.651  35.721  75.160  0.00  0.00    +0.000 C 
ATOM      8  C   UNL     1      58.223  35.938  79.150  0.00  0.00    +0.000 C 
ATOM      9  C   UNL     1      58.683  38.059  76.294  0.00  0.00    +0.000 C 
ATOM     10  C   UNL     1      57.615  35.376  74.070  0.00  0.00    +0.000 C 
ATOM     11  C   UNL     1      59.019  35.410  74.194  0.00  0.00    +0.000 C 
ATOM     12  C   UNL     1      55.145  34.975  77.567  0.00  0.00    +0.000 C 
ATOM     13  C   UNL     1      59.746  34.851  73.225  0.00  0.00    +0.000 C 
ENDROOT
BRANCH   6  14
ATOM     14  O   UNL     1      56.084  36.182  80.243  0.00  0.00    +0.000 OA
ATOM     15  H   UNL     1      55.691  35.344  80.545  0.00  0.00    +0.000 HD
ENDBRANCH   6  14
BRANCH   4  16
ATOM     16  C   UNL     1      60.934  35.711  75.790  0.00  0.00    +0.000 C 
ATOM     17  C   UNL     1      62.431  35.580  76.081  0.00  0.00    +0.000 C 
BRANCH  17  20
ATOM     18  O   UNL     1      65.890  36.161  76.702  0.00  0.00    +0.000 OA
ATOM     19  O   UNL     1      64.422  37.782  75.891  0.00  0.00    +0.000 OA
ATOM     20  C   UNL     1      63.701  35.475  76.322  0.00  0.00    +0.000 C 
ATOM     21  C   UNL     1      64.417  34.312  76.782  0.00  0.00    +0.000 C 
ATOM     22  C   UNL     1      64.663  36.645  76.257  0.00  0.00    +0.000 C 
ATOM     23  C   UNL     1      65.676  34.883  76.978  0.00  0.00    +0.000 C 
BRANCH  21  24
ATOM     24  O   UNL     1      63.823  33.433  77.642  0.00  0.00    +0.000 OA
ATOM     25  H   UNL     1      64.472  33.011  78.233  0.00  0.00    +0.000 HD
ENDBRANCH  21  24
ENDBRANCH  17  20
ENDBRANCH   4  16
BRANCH   3  26
ATOM     26  C   UNL     1      55.407  37.472  77.654  0.00  0.00    +0.000 C 
BRANCH  26  27
ATOM     27  O   UNL     1      54.732  38.625  77.622  0.00  0.00    +0.000 OA
ATOM     28  H   UNL     1      54.056  38.647  78.324  0.00  0.00    +0.000 HD
ENDBRANCH  26  27
ENDBRANCH   3  26
TORSDOF 6
ENDMDL
MODEL 3
REMARK VINA RESULT:      -6.4      3.465      6.228
REMARK  Name = 5318517_Andrographolide.pdbqt.pdb
REMARK  6 active torsions:
REMARK  status: ('A' for Active; 'I' for Inactive)
REMARK    1  A    between atoms: C_3  and  C_16
REMARK    2  A    between atoms: C_4  and  C_19
REMARK    3  A    between atoms: C_6  and  O_14
REMARK    4  A    between atoms: C_16  and  O_17
REMARK    5  A    between atoms: C_22  and  C_23
REMARK    6  A    between atoms: C_24  and  O_27
REMARK                            x       y       z     vdW  Elec       q    Type
REMARK                         _______ _______ _______ _____ _____    ______ ____
ROOT
ATOM      1  C   UNL     1      58.669  36.778  75.382  0.00  0.00    +0.000 C 
ATOM      2  C   UNL     1      57.325  37.524  75.638  0.00  0.00    +0.000 C 
ATOM      3  C   UNL     1      56.886  38.747  74.812  0.00  0.00    +0.000 C 
ATOM      4  C   UNL     1      59.328  36.076  76.603  0.00  0.00    +0.000 C 
ATOM      5  C   UNL     1      59.565  37.802  74.853  0.00  0.00    +0.000 C 
ATOM      6  C   UNL     1      58.010  39.582  74.128  0.00  0.00    +0.000 C 
ATOM      7  C   UNL     1      56.579  36.997  76.730  0.00  0.00    +0.000 C 
ATOM      8  C   UNL     1      59.341  39.143  74.240  0.00  0.00    +0.000 C 
ATOM      9  C   UNL     1      58.390  35.685  74.305  0.00  0.00    +0.000 C 
ATOM     10  C   UNL     1      57.161  36.039  77.719  0.00  0.00    +0.000 C 
ATOM     11  C   UNL     1      58.491  35.568  77.699  0.00  0.00    +0.000 C 
ATOM     12  C   UNL     1      56.152  39.743  75.781  0.00  0.00    +0.000 C 
ATOM     13  C   UNL     1      58.936  34.911  78.771  0.00  0.00    +0.000 C 
ENDROOT
BRANCH   6  14
ATOM     14  O   UNL     1      57.697  40.615  73.261  0.00  0.00    +0.000 OA
ATOM     15  H   UNL     1      57.444  40.292  72.378  0.00  0.00    +0.000 HD
ENDBRANCH   6  14
BRANCH   4  16
ATOM     16  C   UNL     1      60.739  35.807  76.608  0.00  0.00    +0.000 C 
ATOM     17  C   UNL     1      62.243  35.519  76.602  0.00  0.00    +0.000 C 
BRANCH  17  20
ATOM     18  O   UNL     1      65.797  35.729  76.708  0.00  0.00    +0.000 OA
ATOM     19  O   UNL     1      64.389  37.576  76.488  0.00  0.00    +0.000 OA
ATOM     20  C   UNL     1      63.517  35.283  76.593  0.00  0.00    +0.000 C 
ATOM     21  C   UNL     1      64.177  34.006  76.693  0.00  0.00    +0.000 C 
ATOM     22  C   UNL     1      64.569  36.375  76.584  0.00  0.00    +0.000 C 
ATOM     23  C   UNL     1      65.502  34.439  76.771  0.00  0.00    +0.000 C 
BRANCH  21  24
ATOM     24  O   UNL     1      63.641  33.011  77.461  0.00  0.00    +0.000 OA
ATOM     25  H   UNL     1      64.324  32.400  77.789  0.00  0.00    +0.000 HD
ENDBRANCH  21  24
ENDBRANCH  17  20
ENDBRANCH   4  16
BRANCH   3  26
ATOM     26  C   UNL     1      55.947  38.266  73.759  0.00  0.00    +0.000 C 
BRANCH  26  27
ATOM     27  O   UNL     1      55.110  37.843  72.807  0.00  0.00    +0.000 OA
ATOM     28  H   UNL     1      54.688  37.004  73.069  0.00  0.00    +0.000 HD
ENDBRANCH  26  27
ENDBRANCH   3  26
TORSDOF 6
ENDMDL
MODEL 4
REMARK VINA RESULT:      -6.2      5.434     11.276
REMARK  Name = 5318517_Andrographolide.pdbqt.pdb
REMARK  6 active torsions:
REMARK  status: ('A' for Active; 'I' for Inactive)
REMARK    1  A    between atoms: C_3  and  C_16
REMARK    2  A    between atoms: C_4  and  C_19
REMARK    3  A    between atoms: C_6  and  O_14
REMARK    4  A    between atoms: C_16  and  O_17
REMARK    5  A    between atoms: C_22  and  C_23
REMARK    6  A    between atoms: C_24  and  O_27
REMARK                            x       y       z     vdW  Elec       q    Type
REMARK                         _______ _______ _______ _____ _____    ______ ____
ROOT
ATOM      1  C   UNL     1      56.975  35.570  86.507  0.00  0.00    +0.000 C 
ATOM      2  C   UNL     1      57.291  36.245  87.877  0.00  0.00    +0.000 C 
ATOM      3  C   UNL     1      56.393  37.332  88.491  0.00  0.00    +0.000 C 
ATOM      4  C   UNL     1      58.186  35.058  85.678  0.00  0.00    +0.000 C 
ATOM      5  C   UNL     1      56.250  36.590  85.753  0.00  0.00    +0.000 C 
ATOM      6  C   UNL     1      55.511  38.163  87.511  0.00  0.00    +0.000 C 
ATOM      7  C   UNL     1      58.505  35.791  88.468  0.00  0.00    +0.000 C 
ATOM      8  C   UNL     1      55.527  37.834  86.144  0.00  0.00    +0.000 C 
ATOM      9  C   UNL     1      56.053  34.347  86.799  0.00  0.00    +0.000 C 
ATOM     10  C   UNL     1      59.521  34.994  87.716  0.00  0.00    +0.000 C 
ATOM     11  C   UNL     1      59.411  34.618  86.361  0.00  0.00    +0.000 C 
ATOM     12  C   UNL     1      57.324  38.376  89.207  0.00  0.00    +0.000 C 
ATOM     13  C   UNL     1      60.493  34.118  85.762  0.00  0.00    +0.000 C 
ENDROOT
BRANCH   6  14
ATOM     14  O   UNL     1      54.578  39.067  87.990  0.00  0.00    +0.000 OA
ATOM     15  H   UNL     1      54.726  39.289  88.926  0.00  0.00    +0.000 HD
ENDBRANCH   6  14
BRANCH   4  16
ATOM     16  C   UNL     1      58.071  34.892  84.256  0.00  0.00    +0.000 C 
ATOM     17  C   UNL     1      57.951  34.703  82.741  0.00  0.00    +0.000 C 
BRANCH  17  20
ATOM     18  O   UNL     1      58.115  33.533  79.381  0.00  0.00    +0.000 OA
ATOM     19  O   UNL     1      59.450  32.716  81.111  0.00  0.00    +0.000 OA
ATOM     20  C   UNL     1      57.841  34.538  81.461  0.00  0.00    +0.000 C 
ATOM     21  C   UNL     1      56.949  35.220  80.558  0.00  0.00    +0.000 C 
ATOM     22  C   UNL     1      58.595  33.474  80.687  0.00  0.00    +0.000 C 
ATOM     23  C   UNL     1      57.214  34.503  79.390  0.00  0.00    +0.000 C 
BRANCH  21  24
ATOM     24  O   UNL     1      55.701  35.592  80.972  0.00  0.00    +0.000 OA
ATOM     25  H   UNL     1      55.638  36.553  81.113  0.00  0.00    +0.000 HD
ENDBRANCH  21  24
ENDBRANCH  17  20
ENDBRANCH   4  16
BRANCH   3  26
ATOM     26  C   UNL     1      55.501  36.672  89.486  0.00  0.00    +0.000 C 
BRANCH  26  27
ATOM     27  O   UNL     1      54.696  36.072  90.369  0.00  0.00    +0.000 OA
ATOM     28  H   UNL     1      54.615  35.122  90.168  0.00  0.00    +0.000 HD
ENDBRANCH  26  27
ENDBRANCH   3  26
TORSDOF 6
ENDMDL
MODEL 5
REMARK VINA RESULT:      -5.8     18.166     21.049
REMARK  Name = 5318517_Andrographolide.pdbqt.pdb
REMARK  6 active torsions:
REMARK  status: ('A' for Active; 'I' for Inactive)
REMARK    1  A    between atoms: C_3  and  C_16
REMARK    2  A    between atoms: C_4  and  C_19
REMARK    3  A    between atoms: C_6  and  O_14
REMARK    4  A    between atoms: C_16  and  O_17
REMARK    5  A    between atoms: C_22  and  C_23
REMARK    6  A    between atoms: C_24  and  O_27
REMARK                            x       y       z     vdW  Elec       q    Type
REMARK                         _______ _______ _______ _____ _____    ______ ____
ROOT
ATOM      1  C   UNL     1      45.841  25.305  84.217  0.00  0.00    +0.000 C 
ATOM      2  C   UNL     1      46.637  25.841  85.445  0.00  0.00    +0.000 C 
ATOM      3  C   UNL     1      47.520  24.933  86.320  0.00  0.00    +0.000 C 
ATOM      4  C   UNL     1      44.524  26.048  83.853  0.00  0.00    +0.000 C 
ATOM      5  C   UNL     1      45.552  23.912  84.545  0.00  0.00    +0.000 C 
ATOM      6  C   UNL     1      47.173  23.414  86.344  0.00  0.00    +0.000 C 
ATOM      7  C   UNL     1      46.429  27.226  85.699  0.00  0.00    +0.000 C 
ATOM      8  C   UNL     1      46.132  22.946  85.522  0.00  0.00    +0.000 C 
ATOM      9  C   UNL     1      46.788  25.391  82.981  0.00  0.00    +0.000 C 
ATOM     10  C   UNL     1      45.329  28.009  85.056  0.00  0.00    +0.000 C 
ATOM     11  C   UNL     1      44.379  27.479  84.159  0.00  0.00    +0.000 C 
ATOM     12  C   UNL     1      47.383  25.420  87.808  0.00  0.00    +0.000 C 
ATOM     13  C   UNL     1      43.321  28.230  83.853  0.00  0.00    +0.000 C 
ENDROOT
BRANCH   6  14
ATOM     14  O   UNL     1      47.994  22.510  86.996  0.00  0.00    +0.000 OA
ATOM     15  H   UNL     1      48.100  22.723  87.940  0.00  0.00    +0.000 HD
ENDBRANCH   6  14
BRANCH   4  16
ATOM     16  C   UNL     1      43.498  25.378  83.105  0.00  0.00    +0.000 C 
ATOM     17  C   UNL     1      42.401  24.657  82.317  0.00  0.00    +0.000 C 
BRANCH  17  20
ATOM     18  O   UNL     1      39.337  23.252  81.164  0.00  0.00    +0.000 OA
ATOM     19  O   UNL     1      39.681  24.018  83.341  0.00  0.00    +0.000 OA
ATOM     20  C   UNL     1      41.465  24.053  81.654  0.00  0.00    +0.000 C 
ATOM     21  C   UNL     1      41.502  23.612  80.282  0.00  0.00    +0.000 C 
ATOM     22  C   UNL     1      40.079  23.797  82.210  0.00  0.00    +0.000 C 
ATOM     23  C   UNL     1      40.178  23.190  80.143  0.00  0.00    +0.000 C 
BRANCH  21  24
ATOM     24  O   UNL     1      42.187  24.333  79.345  0.00  0.00    +0.000 OA
ATOM     25  H   UNL     1      43.028  23.905  79.104  0.00  0.00    +0.000 HD
ENDBRANCH  21  24
ENDBRANCH  17  20
ENDBRANCH   4  16
BRANCH   3  26
ATOM     26  C   UNL     1      48.928  25.089  85.855  0.00  0.00    +0.000 C 
BRANCH  26  27
ATOM     27  O   UNL     1      50.193  25.220  85.446  0.00  0.00    +0.000 OA
ATOM     28  H   UNL     1      50.581  26.046  85.787  0.00  0.00    +0.000 HD
ENDBRANCH  26  27
ENDBRANCH   3  26
TORSDOF 6
ENDMDL
MODEL 6
REMARK VINA RESULT:      -5.7      2.588      4.291
REMARK  Name = 5318517_Andrographolide.pdbqt.pdb
REMARK  6 active torsions:
REMARK  status: ('A' for Active; 'I' for Inactive)
REMARK    1  A    between atoms: C_3  and  C_16
REMARK    2  A    between atoms: C_4  and  C_19
REMARK    3  A    between atoms: C_6  and  O_14
REMARK    4  A    between atoms: C_16  and  O_17
REMARK    5  A    between atoms: C_22  and  C_23
REMARK    6  A    between atoms: C_24  and  O_27
REMARK                            x       y       z     vdW  Elec       q    Type
REMARK                         _______ _______ _______ _____ _____    ______ ____
ROOT
ATOM      1  C   UNL     1      63.521  35.416  76.103  0.00  0.00    +0.000 C 
ATOM      2  C   UNL     1      64.591  35.548  74.978  0.00  0.00    +0.000 C 
ATOM      3  C   UNL     1      65.740  36.571  75.043  0.00  0.00    +0.000 C 
ATOM      4  C   UNL     1      62.110  34.920  75.678  0.00  0.00    +0.000 C 
ATOM      5  C   UNL     1      63.426  36.754  76.680  0.00  0.00    +0.000 C 
ATOM      6  C   UNL     1      65.513  37.840  75.919  0.00  0.00    +0.000 C 
ATOM      7  C   UNL     1      64.373  34.672  73.877  0.00  0.00    +0.000 C 
ATOM      8  C   UNL     1      64.316  37.950  76.650  0.00  0.00    +0.000 C 
ATOM      9  C   UNL     1      64.079  34.406  77.152  0.00  0.00    +0.000 C 
ATOM     10  C   UNL     1      63.089  33.932  73.677  0.00  0.00    +0.000 C 
ATOM     11  C   UNL     1      61.963  34.025  74.521  0.00  0.00    +0.000 C 
ATOM     12  C   UNL     1      65.991  37.104  73.586  0.00  0.00    +0.000 C 
ATOM     13  C   UNL     1      60.815  33.499  74.092  0.00  0.00    +0.000 C 
ENDROOT
BRANCH   6  14
ATOM     14  O   UNL     1      66.539  38.742  76.139  0.00  0.00    +0.000 OA
ATOM     15  H   UNL     1      67.252  38.364  76.684  0.00  0.00    +0.000 HD
ENDBRANCH   6  14
BRANCH   4  16
ATOM     16  C   UNL     1      60.962  35.227  76.485  0.00  0.00    +0.000 C 
ATOM     17  C   UNL     1      59.743  35.550  77.354  0.00  0.00    +0.000 C 
BRANCH  17  20
ATOM     18  O   UNL     1      57.140  35.577  79.784  0.00  0.00    +0.000 OA
ATOM     19  O   UNL     1      58.460  33.712  79.310  0.00  0.00    +0.000 OA
ATOM     20  C   UNL     1      58.717  35.830  78.094  0.00  0.00    +0.000 C 
ATOM     21  C   UNL     1      58.011  37.083  78.183  0.00  0.00    +0.000 C 
ATOM     22  C   UNL     1      58.134  34.870  79.112  0.00  0.00    +0.000 C 
ATOM     23  C   UNL     1      57.137  36.779  79.229  0.00  0.00    +0.000 C 
BRANCH  21  24
ATOM     24  O   UNL     1      58.686  38.264  78.056  0.00  0.00    +0.000 OA
ATOM     25  H   UNL     1      58.339  38.802  77.322  0.00  0.00    +0.000 HD
ENDBRANCH  21  24
ENDBRANCH  17  20
ENDBRANCH   4  16
BRANCH   3  26
ATOM     26  C   UNL     1      66.949  35.859  75.546  0.00  0.00    +0.000 C 
BRANCH  26  27
ATOM     27  O   UNL     1      68.027  35.217  76.006  0.00  0.00    +0.000 OA
ATOM     28  H   UNL     1      68.425  35.705  76.750  0.00  0.00    +0.000 HD
ENDBRANCH  26  27
ENDBRANCH   3  26
TORSDOF 6
ENDMDL
MODEL 7
REMARK VINA RESULT:      -5.7      4.050      5.304
REMARK  Name = 5318517_Andrographolide.pdbqt.pdb
REMARK  6 active torsions:
REMARK  status: ('A' for Active; 'I' for Inactive)
REMARK    1  A    between atoms: C_3  and  C_16
REMARK    2  A    between atoms: C_4  and  C_19
REMARK    3  A    between atoms: C_6  and  O_14
REMARK    4  A    between atoms: C_16  and  O_17
REMARK    5  A    between atoms: C_22  and  C_23
REMARK    6  A    between atoms: C_24  and  O_27
REMARK                            x       y       z     vdW  Elec       q    Type
REMARK                         _______ _______ _______ _____ _____    ______ ____
ROOT
ATOM      1  C   UNL     1      59.400  33.739  72.409  0.00  0.00    +0.000 C 
ATOM      2  C   UNL     1      60.429  33.651  71.242  0.00  0.00    +0.000 C 
ATOM      3  C   UNL     1      61.694  32.778  71.317  0.00  0.00    +0.000 C 
ATOM      4  C   UNL     1      58.606  35.069  72.549  0.00  0.00    +0.000 C 
ATOM      5  C   UNL     1      60.188  33.501  73.615  0.00  0.00    +0.000 C 
ATOM      6  C   UNL     1      62.244  32.445  72.737  0.00  0.00    +0.000 C 
ATOM      7  C   UNL     1      60.109  34.487  70.135  0.00  0.00    +0.000 C 
ATOM      8  C   UNL     1      61.528  32.894  73.861  0.00  0.00    +0.000 C 
ATOM      9  C   UNL     1      58.365  32.593  72.197  0.00  0.00    +0.000 C 
ATOM     10  C   UNL     1      59.074  35.564  70.209  0.00  0.00    +0.000 C 
ATOM     11  C   UNL     1      58.324  35.885  71.359  0.00  0.00    +0.000 C 
ATOM     12  C   UNL     1      62.853  33.547  70.586  0.00  0.00    +0.000 C 
ATOM     13  C   UNL     1      57.616  37.015  71.347  0.00  0.00    +0.000 C 
ENDROOT
BRANCH   6  14
ATOM     14  O   UNL     1      63.295  31.559  72.900  0.00  0.00    +0.000 OA
ATOM     15  H   UNL     1      64.080  31.819  72.384  0.00  0.00    +0.000 HD
ENDBRANCH   6  14
BRANCH   4  16
ATOM     16  C   UNL     1      58.035  35.442  73.813  0.00  0.00    +0.000 C 
ATOM     17  C   UNL     1      57.434  35.832  75.166  0.00  0.00    +0.000 C 
BRANCH  17  20
ATOM     18  O   UNL     1      56.363  37.536  78.104  0.00  0.00    +0.000 OA
ATOM     19  O   UNL     1      57.896  38.410  76.578  0.00  0.00    +0.000 OA
ATOM     20  C   UNL     1      56.933  36.166  76.314  0.00  0.00    +0.000 C 
ATOM     21  C   UNL     1      56.012  35.412  77.126  0.00  0.00    +0.000 C 
ATOM     22  C   UNL     1      57.163  37.516  76.964  0.00  0.00    +0.000 C 
ATOM     23  C   UNL     1      55.759  36.358  78.122  0.00  0.00    +0.000 C 
BRANCH  21  24
ATOM     24  O   UNL     1      55.058  34.630  76.541  0.00  0.00    +0.000 OA
ATOM     25  H   UNL     1      54.558  34.115  77.199  0.00  0.00    +0.000 HD
ENDBRANCH  21  24
ENDBRANCH  17  20
ENDBRANCH   4  16
BRANCH   3  26
ATOM     26  C   UNL     1      61.401  31.498  70.612  0.00  0.00    +0.000 C 
BRANCH  26  27
ATOM     27  O   UNL     1      61.132  30.346  69.990  0.00  0.00    +0.000 OA
ATOM     28  H   UNL     1      61.539  29.598  70.463  0.00  0.00    +0.000 HD
ENDBRANCH  26  27
ENDBRANCH   3  26
TORSDOF 6
ENDMDL
MODEL 8
REMARK VINA RESULT:      -5.6     19.974     23.654
REMARK  Name = 5318517_Andrographolide.pdbqt.pdb
REMARK  6 active torsions:
REMARK  status: ('A' for Active; 'I' for Inactive)
REMARK    1  A    between atoms: C_3  and  C_16
REMARK    2  A    between atoms: C_4  and  C_19
REMARK    3  A    between atoms: C_6  and  O_14
REMARK    4  A    between atoms: C_16  and  O_17
REMARK    5  A    between atoms: C_22  and  C_23
REMARK    6  A    between atoms: C_24  and  O_27
REMARK                            x       y       z     vdW  Elec       q    Type
REMARK                         _______ _______ _______ _____ _____    ______ ____
ROOT
ATOM      1  C   UNL     1      40.659  22.956  81.683  0.00  0.00    +0.000 C 
ATOM      2  C   UNL     1      39.408  22.408  80.931  0.00  0.00    +0.000 C 
ATOM      3  C   UNL     1      39.439  22.028  79.440  0.00  0.00    +0.000 C 
ATOM      4  C   UNL     1      40.397  23.915  82.879  0.00  0.00    +0.000 C 
ATOM      5  C   UNL     1      41.436  23.642  80.655  0.00  0.00    +0.000 C 
ATOM      6  C   UNL     1      40.519  22.718  78.553  0.00  0.00    +0.000 C 
ATOM      7  C   UNL     1      38.239  22.342  81.741  0.00  0.00    +0.000 C 
ATOM      8  C   UNL     1      41.442  23.586  79.165  0.00  0.00    +0.000 C 
ATOM      9  C   UNL     1      41.442  21.724  82.231  0.00  0.00    +0.000 C 
ATOM     10  C   UNL     1      38.139  23.016  83.072  0.00  0.00    +0.000 C 
ATOM     11  C   UNL     1      39.158  23.793  83.662  0.00  0.00    +0.000 C 
ATOM     12  C   UNL     1      38.057  22.434  78.812  0.00  0.00    +0.000 C 
ATOM     13  C   UNL     1      38.846  24.525  84.732  0.00  0.00    +0.000 C 
ENDROOT
BRANCH   6  14
ATOM     14  O   UNL     1      40.703  22.336  77.236  0.00  0.00    +0.000 OA
ATOM     15  H   UNL     1      41.641  22.182  77.023  0.00  0.00    +0.000 HD
ENDBRANCH   6  14
BRANCH   4  16
ATOM     16  C   UNL     1      41.414  24.836  83.304  0.00  0.00    +0.000 C 
ATOM     17  C   UNL     1      42.504  25.809  83.762  0.00  0.00    +0.000 C 
BRANCH  17  20
ATOM     18  O   UNL     1      45.558  27.557  84.313  0.00  0.00    +0.000 OA
ATOM     19  O   UNL     1      45.427  25.432  83.358  0.00  0.00    +0.000 OA
ATOM     20  C   UNL     1      43.432  26.629  84.144  0.00  0.00    +0.000 C 
ATOM     21  C   UNL     1      43.267  27.909  84.784  0.00  0.00    +0.000 C 
ATOM     22  C   UNL     1      44.906  26.410  83.867  0.00  0.00    +0.000 C 
ATOM     23  C   UNL     1      44.598  28.333  84.793  0.00  0.00    +0.000 C 
BRANCH  21  24
ATOM     24  O   UNL     1      42.203  28.706  84.469  0.00  0.00    +0.000 OA
ATOM     25  H   UNL     1      42.444  29.649  84.471  0.00  0.00    +0.000 HD
ENDBRANCH  21  24
ENDBRANCH  17  20
ENDBRANCH   4  16
BRANCH   3  26
ATOM     26  C   UNL     1      39.630  20.552  79.355  0.00  0.00    +0.000 C 
BRANCH  26  27
ATOM     27  O   UNL     1      39.790  19.227  79.285  0.00  0.00    +0.000 OA
ATOM     28  H   UNL     1      39.133  18.834  78.682  0.00  0.00    +0.000 HD
ENDBRANCH  26  27
ENDBRANCH   3  26
TORSDOF 6
ENDMDL
MODEL 9
REMARK VINA RESULT:      -5.5      6.735      8.874
REMARK  Name = 5318517_Andrographolide.pdbqt.pdb
REMARK  6 active torsions:
REMARK  status: ('A' for Active; 'I' for Inactive)
REMARK    1  A    between atoms: C_3  and  C_16
REMARK    2  A    between atoms: C_4  and  C_19
REMARK    3  A    between atoms: C_6  and  O_14
REMARK    4  A    between atoms: C_16  and  O_17
REMARK    5  A    between atoms: C_22  and  C_23
REMARK    6  A    between atoms: C_24  and  O_27
REMARK                            x       y       z     vdW  Elec       q    Type
REMARK                         _______ _______ _______ _____ _____    ______ ____
ROOT
ATOM      1  C   UNL     1      55.733  41.070  71.151  0.00  0.00    +0.000 C 
ATOM      2  C   UNL     1      54.904  42.118  70.347  0.00  0.00    +0.000 C 
ATOM      3  C   UNL     1      55.139  43.634  70.475  0.00  0.00    +0.000 C 
ATOM      4  C   UNL     1      55.027  39.728  71.494  0.00  0.00    +0.000 C 
ATOM      5  C   UNL     1      56.110  41.763  72.379  0.00  0.00    +0.000 C 
ATOM      6  C   UNL     1      55.778  44.144  71.801  0.00  0.00    +0.000 C 
ATOM      7  C   UNL     1      53.892  41.539  69.530  0.00  0.00    +0.000 C 
ATOM      8  C   UNL     1      56.169  43.201  72.769  0.00  0.00    +0.000 C 
ATOM      9  C   UNL     1      56.997  40.734  70.302  0.00  0.00    +0.000 C 
ATOM     10  C   UNL     1      53.462  40.114  69.666  0.00  0.00    +0.000 C 
ATOM     11  C   UNL     1      53.980  39.200  70.607  0.00  0.00    +0.000 C 
ATOM     12  C   UNL     1      53.740  44.345  70.381  0.00  0.00    +0.000 C 
ATOM     13  C   UNL     1      53.340  38.042  70.772  0.00  0.00    +0.000 C 
ENDROOT
BRANCH   6  14
ATOM     14  O   UNL     1      56.144  45.471  71.946  0.00  0.00    +0.000 OA
ATOM     15  H   UNL     1      56.897  45.582  72.554  0.00  0.00    +0.000 HD
ENDBRANCH   6  14
BRANCH   4  16
ATOM     16  C   UNL     1      55.479  38.937  72.604  0.00  0.00    +0.000 C 
ATOM     17  C   UNL     1      55.955  38.083  73.783  0.00  0.00    +0.000 C 
BRANCH  17  20
ATOM     18  O   UNL     1      56.227  35.953  76.624  0.00  0.00    +0.000 OA
ATOM     19  O   UNL     1      54.235  36.950  75.930  0.00  0.00    +0.000 OA
ATOM     20  C   UNL     1      56.364  37.357  74.775  0.00  0.00    +0.000 C 
ATOM     21  C   UNL     1      57.703  36.891  75.032  0.00  0.00    +0.000 C 
ATOM     22  C   UNL     1      55.434  36.763  75.815  0.00  0.00    +0.000 C 
ATOM     23  C   UNL     1      57.450  36.066  76.130  0.00  0.00    +0.000 C 
BRANCH  21  24
ATOM     24  O   UNL     1      58.531  36.566  73.995  0.00  0.00    +0.000 OA
ATOM     25  H   UNL     1      58.278  35.722  73.581  0.00  0.00    +0.000 HD
ENDBRANCH  21  24
ENDBRANCH  17  20
ENDBRANCH   4  16
BRANCH   3  26
ATOM     26  C   UNL     1      56.007  44.054  69.339  0.00  0.00    +0.000 C 
BRANCH  26  27
ATOM     27  O   UNL     1      56.780  44.441  68.320  0.00  0.00    +0.000 OA
ATOM     28  H   UNL     1      56.235  44.697  67.554  0.00  0.00    +0.000 HD
ENDBRANCH  26  27
ENDBRANCH   3  26
TORSDOF 6
ENDMDL
