REMARK  Name = 5326018_Caulerpin.pdbqt.pdb
REMARK  4 active torsions:
REMARK  status: ('A' for Active; 'I' for Inactive)
REMARK    1  A    between atoms: C_11  and  C_26
REMARK    2  A    between atoms: C_12  and  C_30
REMARK    3  A    between atoms: C_26  and  O_27
REMARK    4  A    between atoms: C_30  and  O_31
REMARK                            x       y       z     vdW  Elec       q    Type
REMARK                         _______ _______ _______ _____ _____    ______ ____
ROOT
ATOM      1  N   UNL     1       3.125   0.952  -0.356  0.00  0.00    +0.000 N 
ATOM      2  N   UNL     1      -3.125  -0.952  -0.357  0.00  0.00    +0.000 N 
ATOM      3  C   UNL     1       1.679  -0.716  -0.157  0.00  0.00    +0.000 C 
ATOM      4  C   UNL     1      -1.679   0.716  -0.156  0.00  0.00    +0.000 C 
ATOM      5  C   UNL     1       1.802   0.670  -0.086  0.00  0.00    +0.000 C 
ATOM      6  C   UNL     1      -1.802  -0.669  -0.087  0.00  0.00    +0.000 C 
ATOM      7  C   UNL     1       2.953  -1.280  -0.407  0.00  0.00    +0.000 A 
ATOM      8  C   UNL     1      -2.953   1.281  -0.406  0.00  0.00    +0.000 A 
ATOM      9  C   UNL     1       3.843  -0.213  -0.523  0.00  0.00    +0.000 A 
ATOM     10  C   UNL     1      -3.843   0.214  -0.523  0.00  0.00    +0.000 A 
ATOM     11  C   UNL     1       0.834   1.714   0.125  0.00  0.00    +0.000 C 
ATOM     12  C   UNL     1      -0.834  -1.714   0.123  0.00  0.00    +0.000 C 
ATOM     13  C   UNL     1      -0.426   1.390  -0.011  0.00  0.00    +0.000 C 
ATOM     14  C   UNL     1       0.426  -1.390  -0.013  0.00  0.00    +0.000 C 
ATOM     15  C   UNL     1       3.439  -2.591  -0.565  0.00  0.00    +0.000 A 
ATOM     16  C   UNL     1      -3.440   2.592  -0.562  0.00  0.00    +0.000 A 
ATOM     17  C   UNL     1       5.206  -0.389  -0.786  0.00  0.00    +0.000 A 
ATOM     18  C   UNL     1      -5.206   0.390  -0.786  0.00  0.00    +0.000 A 
ATOM     19  C   UNL     1       4.798  -2.785  -0.822  0.00  0.00    +0.000 A 
ATOM     20  C   UNL     1      -4.798   2.786  -0.819  0.00  0.00    +0.000 A 
ATOM     21  C   UNL     1       5.663  -1.701  -0.929  0.00  0.00    +0.000 A 
ATOM     22  C   UNL     1      -5.663   1.702  -0.927  0.00  0.00    +0.000 A 
ATOM     23  H   UNL     1       3.543   1.870  -0.439  0.00  0.00    +0.000 HD
ATOM     24  H   UNL     1      -3.544  -1.870  -0.441  0.00  0.00    +0.000 HD
ENDROOT
BRANCH  11  26
ATOM     25  O   UNL     1       0.440   4.063   0.353  0.00  0.00    +0.000 OA
ATOM     26  C   UNL     1       1.140   3.091   0.610  0.00  0.00    +0.000 C 
BRANCH  26  27
ATOM     27  O   UNL     1       2.272   3.048   1.371  0.00  0.00    +0.000 OA
ATOM     28  C   UNL     1       2.797   4.258   1.849  0.00  0.00    +0.000 C 
ENDBRANCH  26  27
ENDBRANCH  11  26
BRANCH  12  30
ATOM     29  O   UNL     1      -0.440  -4.064   0.349  0.00  0.00    +0.000 OA
ATOM     30  C   UNL     1      -1.140  -3.092   0.607  0.00  0.00    +0.000 C 
BRANCH  30  31
ATOM     31  O   UNL     1      -2.272  -3.049   1.368  0.00  0.00    +0.000 OA
ATOM     32  C   UNL     1      -2.797  -4.260   1.845  0.00  0.00    +0.000 C 
ENDBRANCH  30  31
ENDBRANCH  12  30
TORSDOF 4
