MODEL 1
REMARK VINA RESULT:      -7.8      0.000      0.000
REMARK  Name = 5326018_Caulerpin.pdbqt.pdb
REMARK  4 active torsions:
REMARK  status: ('A' for Active; 'I' for Inactive)
REMARK    1  A    between atoms: C_11  and  C_26
REMARK    2  A    between atoms: C_12  and  C_30
REMARK    3  A    between atoms: C_26  and  O_27
REMARK    4  A    between atoms: C_30  and  O_31
REMARK                            x       y       z     vdW  Elec       q    Type
REMARK                         _______ _______ _______ _____ _____    ______ ____
ROOT
ATOM      1  N   UNL     1      59.966  35.170  78.914  0.00  0.00    +0.000 N 
ATOM      2  N   UNL     1      57.812  36.030  72.806  0.00  0.00    +0.000 N 
ATOM      3  C   UNL     1      58.350  35.907  77.589  0.00  0.00    +0.000 C 
ATOM      4  C   UNL     1      59.542  35.675  74.146  0.00  0.00    +0.000 C 
ATOM      5  C   UNL     1      59.703  35.576  77.623  0.00  0.00    +0.000 C 
ATOM      6  C   UNL     1      58.230  36.140  74.116  0.00  0.00    +0.000 C 
ATOM      7  C   UNL     1      57.807  35.762  78.887  0.00  0.00    +0.000 A 
ATOM      8  C   UNL     1      59.943  35.341  72.830  0.00  0.00    +0.000 A 
ATOM      9  C   UNL     1      58.841  35.303  79.701  0.00  0.00    +0.000 A 
ATOM     10  C   UNL     1      58.842  35.577  72.008  0.00  0.00    +0.000 A 
ATOM     11  C   UNL     1      60.711  35.532  76.596  0.00  0.00    +0.000 C 
ATOM     12  C   UNL     1      57.342  36.588  75.157  0.00  0.00    +0.000 C 
ATOM     13  C   UNL     1      60.295  35.558  75.356  0.00  0.00    +0.000 C 
ATOM     14  C   UNL     1      57.680  36.301  76.388  0.00  0.00    +0.000 C 
ATOM     15  C   UNL     1      56.533  35.958  79.453  0.00  0.00    +0.000 A 
ATOM     16  C   UNL     1      61.127  34.845  72.253  0.00  0.00    +0.000 A 
ATOM     17  C   UNL     1      58.670  35.031  81.063  0.00  0.00    +0.000 A 
ATOM     18  C   UNL     1      58.862  35.345  70.628  0.00  0.00    +0.000 A 
ATOM     19  C   UNL     1      56.346  35.697  80.812  0.00  0.00    +0.000 A 
ATOM     20  C   UNL     1      61.167  34.614  70.877  0.00  0.00    +0.000 A 
ATOM     21  C   UNL     1      57.398  35.243  81.600  0.00  0.00    +0.000 A 
ATOM     22  C   UNL     1      60.053  34.862  70.082  0.00  0.00    +0.000 A 
ATOM     23  H   UNL     1      60.842  34.809  79.268  0.00  0.00    +0.000 HD
ATOM     24  H   UNL     1      56.887  36.231  72.446  0.00  0.00    +0.000 HD
ENDROOT
BRANCH  11  26
ATOM     25  O   UNL     1      62.850  36.603  76.650  0.00  0.00    +0.000 OA
ATOM     26  C   UNL     1      62.183  35.590  76.827  0.00  0.00    +0.000 C 
BRANCH  26  27
ATOM     27  O   UNL     1      62.607  34.372  77.273  0.00  0.00    +0.000 OA
ATOM     28  C   UNL     1      63.973  34.068  77.173  0.00  0.00    +0.000 C 
ENDBRANCH  26  27
ENDBRANCH  11  26
BRANCH  12  30
ATOM     29  O   UNL     1      55.492  37.472  73.923  0.00  0.00    +0.000 OA
ATOM     30  C   UNL     1      56.146  37.457  74.959  0.00  0.00    +0.000 C 
BRANCH  30  31
ATOM     31  O   UNL     1      55.926  38.169  76.102  0.00  0.00    +0.000 OA
ATOM     32  C   UNL     1      55.947  39.571  76.026  0.00  0.00    +0.000 C 
ENDBRANCH  30  31
ENDBRANCH  12  30
TORSDOF 4
ENDMDL
MODEL 2
REMARK VINA RESULT:      -6.7      6.703     10.197
REMARK  Name = 5326018_Caulerpin.pdbqt.pdb
REMARK  4 active torsions:
REMARK  status: ('A' for Active; 'I' for Inactive)
REMARK    1  A    between atoms: C_11  and  C_26
REMARK    2  A    between atoms: C_12  and  C_30
REMARK    3  A    between atoms: C_26  and  O_27
REMARK    4  A    between atoms: C_30  and  O_31
REMARK                            x       y       z     vdW  Elec       q    Type
REMARK                         _______ _______ _______ _____ _____    ______ ____
ROOT
ATOM      1  N   UNL     1      58.493  34.941  88.828  0.00  0.00    +0.000 N 
ATOM      2  N   UNL     1      56.576  36.773  82.857  0.00  0.00    +0.000 N 
ATOM      3  C   UNL     1      57.488  36.468  87.574  0.00  0.00    +0.000 C 
ATOM      4  C   UNL     1      57.901  35.486  84.082  0.00  0.00    +0.000 C 
ATOM      5  C   UNL     1      58.374  35.393  87.530  0.00  0.00    +0.000 C 
ATOM      6  C   UNL     1      57.127  36.642  84.115  0.00  0.00    +0.000 C 
ATOM      7  C   UNL     1      57.120  36.708  88.919  0.00  0.00    +0.000 A 
ATOM      8  C   UNL     1      57.870  34.946  82.773  0.00  0.00    +0.000 A 
ATOM      9  C   UNL     1      57.767  35.740  89.686  0.00  0.00    +0.000 A 
ATOM     10  C   UNL     1      57.036  35.775  82.023  0.00  0.00    +0.000 A 
ATOM     11  C   UNL     1      59.032  34.730  86.436  0.00  0.00    +0.000 C 
ATOM     12  C   UNL     1      56.805  37.557  85.179  0.00  0.00    +0.000 C 
ATOM     13  C   UNL     1      58.572  34.970  85.235  0.00  0.00    +0.000 C 
ATOM     14  C   UNL     1      57.047  37.155  86.400  0.00  0.00    +0.000 C 
ATOM     15  C   UNL     1      56.286  37.640  89.564  0.00  0.00    +0.000 A 
ATOM     16  C   UNL     1      58.452  33.827  82.151  0.00  0.00    +0.000 A 
ATOM     17  C   UNL     1      57.628  35.657  91.076  0.00  0.00    +0.000 A 
ATOM     18  C   UNL     1      56.755  35.544  80.672  0.00  0.00    +0.000 A 
ATOM     19  C   UNL     1      56.140  37.576  90.951  0.00  0.00    +0.000 A 
ATOM     20  C   UNL     1      58.187  33.585  80.802  0.00  0.00    +0.000 A 
ATOM     21  C   UNL     1      56.802  36.601  91.691  0.00  0.00    +0.000 A 
ATOM     22  C   UNL     1      57.354  34.431  80.078  0.00  0.00    +0.000 A 
ATOM     23  H   UNL     1      59.019  34.136  89.143  0.00  0.00    +0.000 HD
ATOM     24  H   UNL     1      55.916  37.479  82.554  0.00  0.00    +0.000 HD
ENDROOT
BRANCH  11  26
ATOM     25  O   UNL     1      61.290  34.136  85.911  0.00  0.00    +0.000 OA
ATOM     26  C   UNL     1      60.268  33.901  86.544  0.00  0.00    +0.000 C 
BRANCH  26  27
ATOM     27  O   UNL     1      60.051  32.906  87.453  0.00  0.00    +0.000 OA
ATOM     28  C   UNL     1      61.079  31.978  87.678  0.00  0.00    +0.000 C 
ENDBRANCH  26  27
ENDBRANCH  11  26
BRANCH  12  30
ATOM     29  O   UNL     1      56.115  39.461  83.903  0.00  0.00    +0.000 OA
ATOM     30  C   UNL     1      56.344  38.965  84.999  0.00  0.00    +0.000 C 
BRANCH  30  31
ATOM     31  O   UNL     1      56.212  39.544  86.228  0.00  0.00    +0.000 OA
ATOM     32  C   UNL     1      55.048  40.284  86.491  0.00  0.00    +0.000 C 
ENDBRANCH  30  31
ENDBRANCH  12  30
TORSDOF 4
ENDMDL
MODEL 3
REMARK VINA RESULT:      -6.3      1.890      2.657
REMARK  Name = 5326018_Caulerpin.pdbqt.pdb
REMARK  4 active torsions:
REMARK  status: ('A' for Active; 'I' for Inactive)
REMARK    1  A    between atoms: C_11  and  C_26
REMARK    2  A    between atoms: C_12  and  C_30
REMARK    3  A    between atoms: C_26  and  O_27
REMARK    4  A    between atoms: C_30  and  O_31
REMARK                            x       y       z     vdW  Elec       q    Type
REMARK                         _______ _______ _______ _____ _____    ______ ____
ROOT
ATOM      1  N   UNL     1      58.624  35.402  77.047  0.00  0.00    +0.000 N 
ATOM      2  N   UNL     1      57.877  36.489  70.648  0.00  0.00    +0.000 N 
ATOM      3  C   UNL     1      57.625  36.576  75.454  0.00  0.00    +0.000 C 
ATOM      4  C   UNL     1      59.125  35.627  72.264  0.00  0.00    +0.000 C 
ATOM      5  C   UNL     1      58.728  35.767  75.721  0.00  0.00    +0.000 C 
ATOM      6  C   UNL     1      58.110  36.545  72.006  0.00  0.00    +0.000 C 
ATOM      7  C   UNL     1      56.885  36.754  76.648  0.00  0.00    +0.000 A 
ATOM      8  C   UNL     1      59.555  35.058  71.041  0.00  0.00    +0.000 A 
ATOM      9  C   UNL     1      57.535  36.011  77.632  0.00  0.00    +0.000 A 
ATOM     10  C   UNL     1      58.760  35.619  70.043  0.00  0.00    +0.000 A 
ATOM     11  C   UNL     1      59.780  35.264  74.878  0.00  0.00    +0.000 C 
ATOM     12  C   UNL     1      57.319  37.377  72.875  0.00  0.00    +0.000 C 
ATOM     13  C   UNL     1      59.591  35.340  73.585  0.00  0.00    +0.000 C 
ATOM     14  C   UNL     1      57.339  37.089  74.151  0.00  0.00    +0.000 C 
ATOM     15  C   UNL     1      55.715  37.458  76.988  0.00  0.00    +0.000 A 
ATOM     16  C   UNL     1      60.530  34.109  70.680  0.00  0.00    +0.000 A 
ATOM     17  C   UNL     1      57.076  35.938  78.952  0.00  0.00    +0.000 A 
ATOM     18  C   UNL     1      58.891  35.282  68.691  0.00  0.00    +0.000 A 
ATOM     19  C   UNL     1      55.247  37.401  78.303  0.00  0.00    +0.000 A 
ATOM     20  C   UNL     1      60.678  33.765  69.336  0.00  0.00    +0.000 A 
ATOM     21  C   UNL     1      55.919  36.654  79.265  0.00  0.00    +0.000 A 
ATOM     22  C   UNL     1      59.872  34.344  68.361  0.00  0.00    +0.000 A 
ATOM     23  H   UNL     1      59.234  34.770  77.550  0.00  0.00    +0.000 HD
ATOM     24  H   UNL     1      57.163  36.991  70.134  0.00  0.00    +0.000 HD
ENDROOT
BRANCH  11  26
ATOM     25  O   UNL     1      61.257  34.070  76.332  0.00  0.00    +0.000 OA
ATOM     26  C   UNL     1      61.112  34.787  75.350  0.00  0.00    +0.000 C 
BRANCH  26  27
ATOM     27  O   UNL     1      62.074  35.259  74.504  0.00  0.00    +0.000 OA
ATOM     28  C   UNL     1      63.120  36.019  75.048  0.00  0.00    +0.000 C 
ENDBRANCH  26  27
ENDBRANCH  11  26
BRANCH  12  30
ATOM     29  O   UNL     1      55.450  38.871  72.828  0.00  0.00    +0.000 OA
ATOM     30  C   UNL     1      56.589  38.611  72.461  0.00  0.00    +0.000 C 
BRANCH  30  31
ATOM     31  O   UNL     1      57.406  39.357  71.661  0.00  0.00    +0.000 OA
ATOM     32  C   UNL     1      56.830  40.387  70.902  0.00  0.00    +0.000 C 
ENDBRANCH  30  31
ENDBRANCH  12  30
TORSDOF 4
ENDMDL
MODEL 4
REMARK VINA RESULT:      -6.1      5.240      8.118
REMARK  Name = 5326018_Caulerpin.pdbqt.pdb
REMARK  4 active torsions:
REMARK  status: ('A' for Active; 'I' for Inactive)
REMARK    1  A    between atoms: C_11  and  C_26
REMARK    2  A    between atoms: C_12  and  C_30
REMARK    3  A    between atoms: C_26  and  O_27
REMARK    4  A    between atoms: C_30  and  O_31
REMARK                            x       y       z     vdW  Elec       q    Type
REMARK                         _______ _______ _______ _____ _____    ______ ____
ROOT
ATOM      1  N   UNL     1      55.723  40.732  74.963  0.00  0.00    +0.000 N 
ATOM      2  N   UNL     1      57.203  40.263  68.616  0.00  0.00    +0.000 N 
ATOM      3  C   UNL     1      56.210  39.413  73.249  0.00  0.00    +0.000 C 
ATOM      4  C   UNL     1      56.336  41.487  70.248  0.00  0.00    +0.000 C 
ATOM      5  C   UNL     1      55.746  40.684  73.584  0.00  0.00    +0.000 C 
ATOM      6  C   UNL     1      56.666  40.185  69.885  0.00  0.00    +0.000 C 
ATOM      7  C   UNL     1      56.405  38.666  74.435  0.00  0.00    +0.000 A 
ATOM      8  C   UNL     1      56.616  42.354  69.164  0.00  0.00    +0.000 A 
ATOM      9  C   UNL     1      56.088  39.514  75.495  0.00  0.00    +0.000 A 
ATOM     10  C   UNL     1      57.154  41.561  68.152  0.00  0.00    +0.000 A 
ATOM     11  C   UNL     1      55.411  41.830  72.781  0.00  0.00    +0.000 C 
ATOM     12  C   UNL     1      56.602  38.938  70.602  0.00  0.00    +0.000 C 
ATOM     13  C   UNL     1      55.822  41.824  71.539  0.00  0.00    +0.000 C 
ATOM     14  C   UNL     1      56.449  39.008  71.899  0.00  0.00    +0.000 C 
ATOM     15  C   UNL     1      56.836  37.357  74.718  0.00  0.00    +0.000 A 
ATOM     16  C   UNL     1      56.483  43.738  68.944  0.00  0.00    +0.000 A 
ATOM     17  C   UNL     1      56.176  39.118  76.835  0.00  0.00    +0.000 A 
ATOM     18  C   UNL     1      57.566  42.081  66.920  0.00  0.00    +0.000 A 
ATOM     19  C   UNL     1      56.924  36.943  76.049  0.00  0.00    +0.000 A 
ATOM     20  C   UNL     1      56.883  44.273  67.719  0.00  0.00    +0.000 A 
ATOM     21  C   UNL     1      56.598  37.811  77.086  0.00  0.00    +0.000 A 
ATOM     22  C   UNL     1      57.413  43.455  66.726  0.00  0.00    +0.000 A 
ATOM     23  H   UNL     1      55.488  41.533  75.536  0.00  0.00    +0.000 HD
ATOM     24  H   UNL     1      57.597  39.502  68.076  0.00  0.00    +0.000 HD
ENDROOT
BRANCH  11  26
ATOM     25  O   UNL     1      53.521  43.285  72.594  0.00  0.00    +0.000 OA
ATOM     26  C   UNL     1      54.529  42.955  73.207  0.00  0.00    +0.000 C 
BRANCH  26  27
ATOM     27  O   UNL     1      55.026  43.492  74.359  0.00  0.00    +0.000 OA
ATOM     28  C   UNL     1      54.146  44.191  75.199  0.00  0.00    +0.000 C 
ENDBRANCH  26  27
ENDBRANCH  11  26
BRANCH  12  30
ATOM     29  O   UNL     1      57.516  37.090  69.385  0.00  0.00    +0.000 OA
ATOM     30  C   UNL     1      56.564  37.582  69.978  0.00  0.00    +0.000 C 
BRANCH  30  31
ATOM     31  O   UNL     1      55.339  37.027  70.210  0.00  0.00    +0.000 OA
ATOM     32  C   UNL     1      54.564  36.645  69.104  0.00  0.00    +0.000 C 
ENDBRANCH  30  31
ENDBRANCH  12  30
TORSDOF 4
ENDMDL
MODEL 5
REMARK VINA RESULT:      -6.1      4.628      7.507
REMARK  Name = 5326018_Caulerpin.pdbqt.pdb
REMARK  4 active torsions:
REMARK  status: ('A' for Active; 'I' for Inactive)
REMARK    1  A    between atoms: C_11  and  C_26
REMARK    2  A    between atoms: C_12  and  C_30
REMARK    3  A    between atoms: C_26  and  O_27
REMARK    4  A    between atoms: C_30  and  O_31
REMARK                            x       y       z     vdW  Elec       q    Type
REMARK                         _______ _______ _______ _____ _____    ______ ____
ROOT
ATOM      1  N   UNL     1      59.334  33.516  72.716  0.00  0.00    +0.000 N 
ATOM      2  N   UNL     1      58.088  33.265  66.307  0.00  0.00    +0.000 N 
ATOM      3  C   UNL     1      58.942  34.634  70.843  0.00  0.00    +0.000 C 
ATOM      4  C   UNL     1      58.864  32.223  68.103  0.00  0.00    +0.000 C 
ATOM      5  C   UNL     1      59.359  33.402  71.342  0.00  0.00    +0.000 C 
ATOM      6  C   UNL     1      58.582  33.481  67.577  0.00  0.00    +0.000 C 
ATOM      7  C   UNL     1      58.727  35.521  71.925  0.00  0.00    +0.000 A 
ATOM      8  C   UNL     1      58.599  31.240  67.119  0.00  0.00    +0.000 A 
ATOM      9  C   UNL     1      58.984  34.797  73.088  0.00  0.00    +0.000 A 
ATOM     10  C   UNL     1      58.118  31.921  66.000  0.00  0.00    +0.000 A 
ATOM     11  C   UNL     1      59.691  32.161  70.692  0.00  0.00    +0.000 C 
ATOM     12  C   UNL     1      58.655  34.802  68.145  0.00  0.00    +0.000 C 
ATOM     13  C   UNL     1      59.323  32.029  69.443  0.00  0.00    +0.000 C 
ATOM     14  C   UNL     1      58.761  34.882  69.446  0.00  0.00    +0.000 C 
ATOM     15  C   UNL     1      58.321  36.864  72.035  0.00  0.00    +0.000 A 
ATOM     16  C   UNL     1      58.702  29.838  67.068  0.00  0.00    +0.000 A 
ATOM     17  C   UNL     1      58.860  35.350  74.367  0.00  0.00    +0.000 A 
ATOM     18  C   UNL     1      57.735  31.268  64.823  0.00  0.00    +0.000 A 
ATOM     19  C   UNL     1      58.198  37.434  73.304  0.00  0.00    +0.000 A 
ATOM     20  C   UNL     1      58.330  29.171  65.900  0.00  0.00    +0.000 A 
ATOM     21  C   UNL     1      58.465  36.687  74.448  0.00  0.00    +0.000 A 
ATOM     22  C   UNL     1      57.857  29.877  64.798  0.00  0.00    +0.000 A 
ATOM     23  H   UNL     1      59.527  32.784  73.388  0.00  0.00    +0.000 HD
ATOM     24  H   UNL     1      57.733  33.965  65.667  0.00  0.00    +0.000 HD
ENDROOT
BRANCH  11  26
ATOM     25  O   UNL     1      60.336  29.886  71.054  0.00  0.00    +0.000 OA
ATOM     26  C   UNL     1      60.527  31.075  71.280  0.00  0.00    +0.000 C 
BRANCH  26  27
ATOM     27  O   UNL     1      61.503  31.638  72.050  0.00  0.00    +0.000 OA
ATOM     28  C   UNL     1      62.699  30.928  72.230  0.00  0.00    +0.000 C 
ENDBRANCH  26  27
ENDBRANCH  11  26
BRANCH  12  30
ATOM     29  O   UNL     1      58.147  37.093  67.675  0.00  0.00    +0.000 OA
ATOM     30  C   UNL     1      58.752  36.073  67.368  0.00  0.00    +0.000 C 
BRANCH  30  31
ATOM     31  O   UNL     1      59.614  35.887  66.327  0.00  0.00    +0.000 OA
ATOM     32  C   UNL     1      60.958  36.252  66.506  0.00  0.00    +0.000 C 
ENDBRANCH  30  31
ENDBRANCH  12  30
TORSDOF 4
ENDMDL
MODEL 6
REMARK VINA RESULT:      -5.9     44.597     47.046
REMARK  Name = 5326018_Caulerpin.pdbqt.pdb
REMARK  4 active torsions:
REMARK  status: ('A' for Active; 'I' for Inactive)
REMARK    1  A    between atoms: C_11  and  C_26
REMARK    2  A    between atoms: C_12  and  C_30
REMARK    3  A    between atoms: C_26  and  O_27
REMARK    4  A    between atoms: C_30  and  O_31
REMARK                            x       y       z     vdW  Elec       q    Type
REMARK                         _______ _______ _______ _____ _____    ______ ____
ROOT
ATOM      1  N   UNL     1      25.564   8.235  87.717  0.00  0.00    +0.000 N 
ATOM      2  N   UNL     1      20.226   7.988  83.959  0.00  0.00    +0.000 N 
ATOM      3  C   UNL     1      24.008   6.980  86.760  0.00  0.00    +0.000 C 
ATOM      4  C   UNL     1      21.553   9.214  85.243  0.00  0.00    +0.000 C 
ATOM      5  C   UNL     1      24.300   8.280  87.167  0.00  0.00    +0.000 C 
ATOM      6  C   UNL     1      21.181   7.905  84.950  0.00  0.00    +0.000 C 
ATOM      7  C   UNL     1      25.079   6.130  87.128  0.00  0.00    +0.000 A 
ATOM      8  C   UNL     1      20.768  10.101  84.467  0.00  0.00    +0.000 A 
ATOM      9  C   UNL     1      26.040   6.941  87.730  0.00  0.00    +0.000 A 
ATOM     10  C   UNL     1      19.940   9.307  83.674  0.00  0.00    +0.000 A 
ATOM     11  C   UNL     1      23.578   9.518  87.031  0.00  0.00    +0.000 C 
ATOM     12  C   UNL     1      21.662   6.636  85.431  0.00  0.00    +0.000 C 
ATOM     13  C   UNL     1      22.589   9.535  86.174  0.00  0.00    +0.000 C 
ATOM     14  C   UNL     1      22.806   6.638  86.065  0.00  0.00    +0.000 C 
ATOM     15  C   UNL     1      25.339   4.754  86.993  0.00  0.00    +0.000 A 
ATOM     16  C   UNL     1      20.687  11.501  84.344  0.00  0.00    +0.000 A 
ATOM     17  C   UNL     1      27.255   6.444  88.214  0.00  0.00    +0.000 A 
ATOM     18  C   UNL     1      19.026   9.842  82.760  0.00  0.00    +0.000 A 
ATOM     19  C   UNL     1      26.545   4.240  87.476  0.00  0.00    +0.000 A 
ATOM     20  C   UNL     1      19.776  12.052  83.441  0.00  0.00    +0.000 A 
ATOM     21  C   UNL     1      27.483   5.073  88.076  0.00  0.00    +0.000 A 
ATOM     22  C   UNL     1      18.961  11.234  82.666  0.00  0.00    +0.000 A 
ATOM     23  H   UNL     1      26.102   9.020  88.062  0.00  0.00    +0.000 HD
ATOM     24  H   UNL     1      19.783   7.215  83.477  0.00  0.00    +0.000 HD
ENDROOT
BRANCH  11  26
ATOM     25  O   UNL     1      23.700  11.873  87.433  0.00  0.00    +0.000 OA
ATOM     26  C   UNL     1      23.778  10.732  87.873  0.00  0.00    +0.000 C 
BRANCH  26  27
ATOM     27  O   UNL     1      24.025  10.342  89.157  0.00  0.00    +0.000 OA
ATOM     28  C   UNL     1      24.860  11.146  89.946  0.00  0.00    +0.000 C 
ENDBRANCH  26  27
ENDBRANCH  11  26
BRANCH  12  30
ATOM     29  O   UNL     1      20.796   4.600  86.343  0.00  0.00    +0.000 OA
ATOM     30  C   UNL     1      20.908   5.349  85.380  0.00  0.00    +0.000 C 
BRANCH  30  31
ATOM     31  O   UNL     1      20.380   5.198  84.131  0.00  0.00    +0.000 OA
ATOM     32  C   UNL     1      19.877   3.938  83.771  0.00  0.00    +0.000 C 
ENDBRANCH  30  31
ENDBRANCH  12  30
TORSDOF 4
ENDMDL
MODEL 7
REMARK VINA RESULT:      -5.9     12.633     15.436
REMARK  Name = 5326018_Caulerpin.pdbqt.pdb
REMARK  4 active torsions:
REMARK  status: ('A' for Active; 'I' for Inactive)
REMARK    1  A    between atoms: C_11  and  C_26
REMARK    2  A    between atoms: C_12  and  C_30
REMARK    3  A    between atoms: C_26  and  O_27
REMARK    4  A    between atoms: C_30  and  O_31
REMARK                            x       y       z     vdW  Elec       q    Type
REMARK                         _______ _______ _______ _____ _____    ______ ____
ROOT
ATOM      1  N   UNL     1      42.278  36.433  80.749  0.00  0.00    +0.000 N 
ATOM      2  N   UNL     1      47.372  39.911  78.592  0.00  0.00    +0.000 N 
ATOM      3  C   UNL     1      44.366  37.095  81.085  0.00  0.00    +0.000 C 
ATOM      4  C   UNL     1      45.450  38.916  78.112  0.00  0.00    +0.000 C 
ATOM      5  C   UNL     1      43.387  36.942  80.106  0.00  0.00    +0.000 C 
ATOM      6  C   UNL     1      46.487  38.952  79.040  0.00  0.00    +0.000 C 
ATOM      7  C   UNL     1      43.865  36.612  82.318  0.00  0.00    +0.000 A 
ATOM      8  C   UNL     1      45.742  39.815  77.058  0.00  0.00    +0.000 A 
ATOM      9  C   UNL     1      42.555  36.199  82.079  0.00  0.00    +0.000 A 
ATOM     10  C   UNL     1      46.955  40.423  77.381  0.00  0.00    +0.000 A 
ATOM     11  C   UNL     1      43.362  37.279  78.707  0.00  0.00    +0.000 C 
ATOM     12  C   UNL     1      46.688  38.263  80.289  0.00  0.00    +0.000 C 
ATOM     13  C   UNL     1      44.292  38.092  78.276  0.00  0.00    +0.000 C 
ATOM     14  C   UNL     1      45.645  37.677  80.817  0.00  0.00    +0.000 C 
ATOM     15  C   UNL     1      44.386  36.501  83.620  0.00  0.00    +0.000 A 
ATOM     16  C   UNL     1      45.090  40.189  75.868  0.00  0.00    +0.000 A 
ATOM     17  C   UNL     1      41.733  35.672  83.080  0.00  0.00    +0.000 A 
ATOM     18  C   UNL     1      47.558  41.389  76.569  0.00  0.00    +0.000 A 
ATOM     19  C   UNL     1      43.581  35.971  84.630  0.00  0.00    +0.000 A 
ATOM     20  C   UNL     1      45.681  41.147  75.043  0.00  0.00    +0.000 A 
ATOM     21  C   UNL     1      42.278  35.564  84.361  0.00  0.00    +0.000 A 
ATOM     22  C   UNL     1      46.893  41.734  75.390  0.00  0.00    +0.000 A 
ATOM     23  H   UNL     1      41.370  36.256  80.339  0.00  0.00    +0.000 HD
ATOM     24  H   UNL     1      48.211  40.228  79.062  0.00  0.00    +0.000 HD
ENDROOT
BRANCH  11  26
ATOM     25  O   UNL     1      41.753  37.350  76.937  0.00  0.00    +0.000 OA
ATOM     26  C   UNL     1      42.450  36.680  77.689  0.00  0.00    +0.000 C 
BRANCH  26  27
ATOM     27  O   UNL     1      42.561  35.321  77.746  0.00  0.00    +0.000 OA
ATOM     28  C   UNL     1      42.952  34.638  76.584  0.00  0.00    +0.000 C 
ENDBRANCH  26  27
ENDBRANCH  11  26
BRANCH  12  30
ATOM     29  O   UNL     1      48.611  36.988  80.927  0.00  0.00    +0.000 OA
ATOM     30  C   UNL     1      48.005  38.053  80.958  0.00  0.00    +0.000 C 
BRANCH  30  31
ATOM     31  O   UNL     1      48.387  39.221  81.553  0.00  0.00    +0.000 OA
ATOM     32  C   UNL     1      48.254  39.329  82.946  0.00  0.00    +0.000 C 
ENDBRANCH  30  31
ENDBRANCH  12  30
TORSDOF 4
ENDMDL
MODEL 8
REMARK VINA RESULT:      -5.9     17.996     20.219
REMARK  Name = 5326018_Caulerpin.pdbqt.pdb
REMARK  4 active torsions:
REMARK  status: ('A' for Active; 'I' for Inactive)
REMARK    1  A    between atoms: C_11  and  C_26
REMARK    2  A    between atoms: C_12  and  C_30
REMARK    3  A    between atoms: C_26  and  O_27
REMARK    4  A    between atoms: C_30  and  O_31
REMARK                            x       y       z     vdW  Elec       q    Type
REMARK                         _______ _______ _______ _____ _____    ______ ____
ROOT
ATOM      1  N   UNL     1      50.094  21.817  84.135  0.00  0.00    +0.000 N 
ATOM      2  N   UNL     1      44.020  24.133  83.479  0.00  0.00    +0.000 N 
ATOM      3  C   UNL     1      47.951  21.372  83.783  0.00  0.00    +0.000 C 
ATOM      4  C   UNL     1      46.084  24.479  84.210  0.00  0.00    +0.000 C 
ATOM      5  C   UNL     1      48.824  22.332  84.290  0.00  0.00    +0.000 C 
ATOM      6  C   UNL     1      45.184  23.485  83.835  0.00  0.00    +0.000 C 
ATOM      7  C   UNL     1      48.697  20.239  83.378  0.00  0.00    +0.000 A 
ATOM      8  C   UNL     1      45.437  25.737  84.141  0.00  0.00    +0.000 A 
ATOM      9  C   UNL     1      50.038  20.542  83.613  0.00  0.00    +0.000 A 
ATOM     10  C   UNL     1      44.142  25.491  83.685  0.00  0.00    +0.000 A 
ATOM     11  C   UNL     1      48.603  23.655  84.813  0.00  0.00    +0.000 C 
ATOM     12  C   UNL     1      45.322  22.057  83.712  0.00  0.00    +0.000 C 
ATOM     13  C   UNL     1      47.439  24.201  84.571  0.00  0.00    +0.000 C 
ATOM     14  C   UNL     1      46.539  21.578  83.696  0.00  0.00    +0.000 C 
ATOM     15  C   UNL     1      48.371  18.990  82.817  0.00  0.00    +0.000 A 
ATOM     16  C   UNL     1      45.824  27.064  84.404  0.00  0.00    +0.000 A 
ATOM     17  C   UNL     1      51.078  19.654  83.319  0.00  0.00    +0.000 A 
ATOM     18  C   UNL     1      43.206  26.510  83.480  0.00  0.00    +0.000 A 
ATOM     19  C   UNL     1      49.397  18.089  82.523  0.00  0.00    +0.000 A 
ATOM     20  C   UNL     1      44.900  28.092  84.211  0.00  0.00    +0.000 A 
ATOM     21  C   UNL     1      50.725  18.418  82.772  0.00  0.00    +0.000 A 
ATOM     22  C   UNL     1      43.614  27.816  83.758  0.00  0.00    +0.000 A 
ATOM     23  H   UNL     1      50.966  22.283  84.350  0.00  0.00    +0.000 HD
ATOM     24  H   UNL     1      43.180  23.709  83.105  0.00  0.00    +0.000 HD
ENDROOT
BRANCH  11  26
ATOM     25  O   UNL     1      50.751  24.251  85.682  0.00  0.00    +0.000 OA
ATOM     26  C   UNL     1      49.535  24.396  85.712  0.00  0.00    +0.000 C 
BRANCH  26  27
ATOM     27  O   UNL     1      48.807  25.233  86.507  0.00  0.00    +0.000 OA
ATOM     28  C   UNL     1      49.497  26.158  87.304  0.00  0.00    +0.000 C 
ENDBRANCH  26  27
ENDBRANCH  11  26
BRANCH  12  30
ATOM     29  O   UNL     1      43.042  21.384  83.992  0.00  0.00    +0.000 OA
ATOM     30  C   UNL     1      44.198  21.075  83.732  0.00  0.00    +0.000 C 
BRANCH  30  31
ATOM     31  O   UNL     1      44.685  19.844  83.398  0.00  0.00    +0.000 OA
ATOM     32  C   UNL     1      43.846  18.969  82.691  0.00  0.00    +0.000 C 
ENDBRANCH  30  31
ENDBRANCH  12  30
TORSDOF 4
ENDMDL
MODEL 9
REMARK VINA RESULT:      -5.9     18.102     20.227
REMARK  Name = 5326018_Caulerpin.pdbqt.pdb
REMARK  4 active torsions:
REMARK  status: ('A' for Active; 'I' for Inactive)
REMARK    1  A    between atoms: C_11  and  C_26
REMARK    2  A    between atoms: C_12  and  C_30
REMARK    3  A    between atoms: C_26  and  O_27
REMARK    4  A    between atoms: C_30  and  O_31
REMARK                            x       y       z     vdW  Elec       q    Type
REMARK                         _______ _______ _______ _____ _____    ______ ____
ROOT
ATOM      1  N   UNL     1      43.962  24.265  83.486  0.00  0.00    +0.000 N 
ATOM      2  N   UNL     1      50.026  21.945  84.221  0.00  0.00    +0.000 N 
ATOM      3  C   UNL     1      46.012  24.603  84.258  0.00  0.00    +0.000 C 
ATOM      4  C   UNL     1      47.890  21.503  83.825  0.00  0.00    +0.000 C 
ATOM      5  C   UNL     1      45.120  23.612  83.855  0.00  0.00    +0.000 C 
ATOM      6  C   UNL     1      48.752  22.456  84.360  0.00  0.00    +0.000 C 
ATOM      7  C   UNL     1      45.365  25.860  84.194  0.00  0.00    +0.000 A 
ATOM      8  C   UNL     1      48.644  20.375  83.417  0.00  0.00    +0.000 A 
ATOM      9  C   UNL     1      44.079  25.620  83.712  0.00  0.00    +0.000 A 
ATOM     10  C   UNL     1      49.980  20.676  83.681  0.00  0.00    +0.000 A 
ATOM     11  C   UNL     1      45.261  22.187  83.715  0.00  0.00    +0.000 C 
ATOM     12  C   UNL     1      48.521  23.772  84.896  0.00  0.00    +0.000 C 
ATOM     13  C   UNL     1      46.479  21.709  83.715  0.00  0.00    +0.000 C 
ATOM     14  C   UNL     1      47.361  24.321  84.640  0.00  0.00    +0.000 C 
ATOM     15  C   UNL     1      45.747  27.184  84.482  0.00  0.00    +0.000 A 
ATOM     16  C   UNL     1      48.330  19.134  82.835  0.00  0.00    +0.000 A 
ATOM     17  C   UNL     1      43.146  26.642  83.503  0.00  0.00    +0.000 A 
ATOM     18  C   UNL     1      51.026  19.793  83.394  0.00  0.00    +0.000 A 
ATOM     19  C   UNL     1      44.826  28.215  84.285  0.00  0.00    +0.000 A 
ATOM     20  C   UNL     1      49.361  18.238  82.547  0.00  0.00    +0.000 A 
ATOM     21  C   UNL     1      43.548  27.944  83.805  0.00  0.00    +0.000 A 
ATOM     22  C   UNL     1      50.684  18.564  82.825  0.00  0.00    +0.000 A 
ATOM     23  H   UNL     1      43.130  23.845  83.091  0.00  0.00    +0.000 HD
ATOM     24  H   UNL     1      50.894  22.408  84.458  0.00  0.00    +0.000 HD
ENDROOT
BRANCH  11  26
ATOM     25  O   UNL     1      42.987  21.499  83.996  0.00  0.00    +0.000 OA
ATOM     26  C   UNL     1      44.139  21.204  83.701  0.00  0.00    +0.000 C 
BRANCH  26  27
ATOM     27  O   UNL     1      44.619  19.993  83.295  0.00  0.00    +0.000 OA
ATOM     28  C   UNL     1      43.718  19.075  82.735  0.00  0.00    +0.000 C 
ENDBRANCH  26  27
ENDBRANCH  11  26
BRANCH  12  30
ATOM     29  O   UNL     1      50.627  24.239  85.932  0.00  0.00    +0.000 OA
ATOM     30  C   UNL     1      49.436  24.502  85.822  0.00  0.00    +0.000 C 
BRANCH  30  31
ATOM     31  O   UNL     1      48.727  25.477  86.462  0.00  0.00    +0.000 OA
ATOM     32  C   UNL     1      49.348  26.165  87.516  0.00  0.00    +0.000 C 
ENDBRANCH  30  31
ENDBRANCH  12  30
TORSDOF 4
ENDMDL
