MODEL 1
REMARK VINA RESULT:      -3.9      0.000      0.000
REMARK  Name = 5350_Sulforaphane.pdbqt.pdb
REMARK  3 active torsions:
REMARK  status: ('A' for Active; 'I' for Inactive)
REMARK    1  A    between atoms: C_1  and  C_2
REMARK    2  A    between atoms: C_3  and  N_5
REMARK    3  A    between atoms: C_7  and  S_8
REMARK                            x       y       z     vdW  Elec       q    Type
REMARK                         _______ _______ _______ _____ _____    ______ ____
ROOT
ATOM      1  C   UNL     1      56.730  35.787  81.243  0.00  0.00    +0.000 C 
ATOM      2  C   UNL     1      57.253  36.162  82.634  0.00  0.00    +0.000 C 
ENDROOT
BRANCH   2   3
ATOM      3  S   UNL     1      57.850  36.594  84.234  0.00  0.00    +0.000 S 
ATOM      4  O   UNL     1      56.846  35.708  84.909  0.00  0.00    +0.000 OA
ATOM      5  C   UNL     1      56.796  37.998  84.362  0.00  0.00    +0.000 C 
ENDBRANCH   2   3
BRANCH   1   6
ATOM      6  C   UNL     1      56.207  35.415  79.853  0.00  0.00    +0.000 C 
ATOM      7  C   UNL     1      55.684  35.042  78.461  0.00  0.00    +0.000 C 
BRANCH   7   9
ATOM      8  S   UNL     1      56.090  36.512  75.319  0.00  0.00    +0.000 S 
ATOM      9  N   UNL     1      55.239  34.711  77.241  0.00  0.00    +0.000 NA
ATOM     10  C   UNL     1      55.610  35.486  76.441  0.00  0.00    +0.000 C 
ENDBRANCH   7   9
ENDBRANCH   1   6
TORSDOF 3
ENDMDL
MODEL 2
REMARK VINA RESULT:      -3.7      3.735      6.989
REMARK  Name = 5350_Sulforaphane.pdbqt.pdb
REMARK  3 active torsions:
REMARK  status: ('A' for Active; 'I' for Inactive)
REMARK    1  A    between atoms: C_1  and  C_2
REMARK    2  A    between atoms: C_3  and  N_5
REMARK    3  A    between atoms: C_7  and  S_8
REMARK                            x       y       z     vdW  Elec       q    Type
REMARK                         _______ _______ _______ _____ _____    ______ ____
ROOT
ATOM      1  C   UNL     1      56.295  36.210  79.881  0.00  0.00    +0.000 C 
ATOM      2  C   UNL     1      55.800  36.160  78.431  0.00  0.00    +0.000 C 
ENDROOT
BRANCH   2   3
ATOM      3  S   UNL     1      55.226  36.103  76.767  0.00  0.00    +0.000 S 
ATOM      4  O   UNL     1      54.987  34.624  76.842  0.00  0.00    +0.000 OA
ATOM      5  C   UNL     1      56.843  35.874  76.108  0.00  0.00    +0.000 C 
ENDBRANCH   2   3
BRANCH   1   6
ATOM      6  C   UNL     1      56.791  36.256  81.329  0.00  0.00    +0.000 C 
ATOM      7  C   UNL     1      57.288  36.302  82.779  0.00  0.00    +0.000 C 
BRANCH   7   9
ATOM      8  S   UNL     1      56.253  38.154  85.553  0.00  0.00    +0.000 S 
ATOM      9  N   UNL     1      57.721  36.356  84.046  0.00  0.00    +0.000 NA
ATOM     10  C   UNL     1      57.086  37.122  84.668  0.00  0.00    +0.000 C 
ENDBRANCH   7   9
ENDBRANCH   1   6
TORSDOF 3
ENDMDL
MODEL 3
REMARK VINA RESULT:      -3.7      3.435      4.062
REMARK  Name = 5350_Sulforaphane.pdbqt.pdb
REMARK  3 active torsions:
REMARK  status: ('A' for Active; 'I' for Inactive)
REMARK    1  A    between atoms: C_1  and  C_2
REMARK    2  A    between atoms: C_3  and  N_5
REMARK    3  A    between atoms: C_7  and  S_8
REMARK                            x       y       z     vdW  Elec       q    Type
REMARK                         _______ _______ _______ _____ _____    ______ ____
ROOT
ATOM      1  C   UNL     1      56.508  35.389  77.824  0.00  0.00    +0.000 C 
ATOM      2  C   UNL     1      56.874  34.617  79.096  0.00  0.00    +0.000 C 
ENDROOT
BRANCH   2   3
ATOM      3  S   UNL     1      57.298  33.732  80.559  0.00  0.00    +0.000 S 
ATOM      4  O   UNL     1      56.819  34.848  81.439  0.00  0.00    +0.000 OA
ATOM      5  C   UNL     1      58.950  34.342  80.573  0.00  0.00    +0.000 C 
ENDBRANCH   2   3
BRANCH   1   6
ATOM      6  C   UNL     1      56.143  36.158  76.551  0.00  0.00    +0.000 C 
ATOM      7  C   UNL     1      55.778  36.928  75.276  0.00  0.00    +0.000 C 
BRANCH   7   9
ATOM      8  S   UNL     1      57.726  38.666  72.956  0.00  0.00    +0.000 S 
ATOM      9  N   UNL     1      55.472  37.605  74.161  0.00  0.00    +0.000 NA
ATOM     10  C   UNL     1      56.440  38.046  73.665  0.00  0.00    +0.000 C 
ENDBRANCH   7   9
ENDBRANCH   1   6
TORSDOF 3
ENDMDL
MODEL 4
REMARK VINA RESULT:      -3.6      4.562      6.716
REMARK  Name = 5350_Sulforaphane.pdbqt.pdb
REMARK  3 active torsions:
REMARK  status: ('A' for Active; 'I' for Inactive)
REMARK    1  A    between atoms: C_1  and  C_2
REMARK    2  A    between atoms: C_3  and  N_5
REMARK    3  A    between atoms: C_7  and  S_8
REMARK                            x       y       z     vdW  Elec       q    Type
REMARK                         _______ _______ _______ _____ _____    ______ ____
ROOT
ATOM      1  C   UNL     1      57.381  35.829  82.427  0.00  0.00    +0.000 C 
ATOM      2  C   UNL     1      57.645  34.738  81.383  0.00  0.00    +0.000 C 
ENDROOT
BRANCH   2   3
ATOM      3  S   UNL     1      57.952  33.487  80.182  0.00  0.00    +0.000 S 
ATOM      4  O   UNL     1      59.399  33.398  80.564  0.00  0.00    +0.000 OA
ATOM      5  C   UNL     1      58.291  34.650  78.905  0.00  0.00    +0.000 C 
ENDBRANCH   2   3
BRANCH   1   6
ATOM      6  C   UNL     1      57.115  36.921  83.468  0.00  0.00    +0.000 C 
ATOM      7  C   UNL     1      56.849  38.013  84.510  0.00  0.00    +0.000 C 
BRANCH   7   9
ATOM      8  S   UNL     1      55.413  41.191  84.323  0.00  0.00    +0.000 S 
ATOM      9  N   UNL     1      56.619  38.960  85.430  0.00  0.00    +0.000 NA
ATOM     10  C   UNL     1      56.107  39.896  84.942  0.00  0.00    +0.000 C 
ENDBRANCH   7   9
ENDBRANCH   1   6
TORSDOF 3
ENDMDL
MODEL 5
REMARK VINA RESULT:      -3.5      5.177      7.928
REMARK  Name = 5350_Sulforaphane.pdbqt.pdb
REMARK  3 active torsions:
REMARK  status: ('A' for Active; 'I' for Inactive)
REMARK    1  A    between atoms: C_1  and  C_2
REMARK    2  A    between atoms: C_3  and  N_5
REMARK    3  A    between atoms: C_7  and  S_8
REMARK                            x       y       z     vdW  Elec       q    Type
REMARK                         _______ _______ _______ _____ _____    ______ ____
ROOT
ATOM      1  C   UNL     1      55.893  37.015  75.569  0.00  0.00    +0.000 C 
ATOM      2  C   UNL     1      56.031  37.868  74.303  0.00  0.00    +0.000 C 
ENDROOT
BRANCH   2   3
ATOM      3  S   UNL     1      56.189  38.852  72.850  0.00  0.00    +0.000 S 
ATOM      4  O   UNL     1      55.008  38.189  72.206  0.00  0.00    +0.000 OA
ATOM      5  C   UNL     1      57.315  37.732  72.089  0.00  0.00    +0.000 C 
ENDBRANCH   2   3
BRANCH   1   6
ATOM      6  C   UNL     1      55.752  36.162  76.833  0.00  0.00    +0.000 C 
ATOM      7  C   UNL     1      55.611  35.308  78.099  0.00  0.00    +0.000 C 
BRANCH   7   9
ATOM      8  S   UNL     1      57.968  33.809  80.194  0.00  0.00    +0.000 S 
ATOM      9  N   UNL     1      55.495  34.553  79.199  0.00  0.00    +0.000 NA
ATOM     10  C   UNL     1      56.553  34.248  79.606  0.00  0.00    +0.000 C 
ENDBRANCH   7   9
ENDBRANCH   1   6
TORSDOF 3
ENDMDL
MODEL 6
REMARK VINA RESULT:      -3.5      4.270      5.028
REMARK  Name = 5350_Sulforaphane.pdbqt.pdb
REMARK  3 active torsions:
REMARK  status: ('A' for Active; 'I' for Inactive)
REMARK    1  A    between atoms: C_1  and  C_2
REMARK    2  A    between atoms: C_3  and  N_5
REMARK    3  A    between atoms: C_7  and  S_8
REMARK                            x       y       z     vdW  Elec       q    Type
REMARK                         _______ _______ _______ _____ _____    ______ ____
ROOT
ATOM      1  C   UNL     1      58.995  35.537  77.477  0.00  0.00    +0.000 C 
ATOM      2  C   UNL     1      58.836  35.086  78.933  0.00  0.00    +0.000 C 
ENDROOT
BRANCH   2   3
ATOM      3  S   UNL     1      58.648  34.570  80.607  0.00  0.00    +0.000 S 
ATOM      4  O   UNL     1      59.615  33.438  80.424  0.00  0.00    +0.000 OA
ATOM      5  C   UNL     1      57.269  33.537  80.242  0.00  0.00    +0.000 C 
ENDBRANCH   2   3
BRANCH   1   6
ATOM      6  C   UNL     1      59.156  35.989  76.023  0.00  0.00    +0.000 C 
ATOM      7  C   UNL     1      59.316  36.442  74.567  0.00  0.00    +0.000 C 
BRANCH   7   9
ATOM      8  S   UNL     1      57.144  38.050  72.356  0.00  0.00    +0.000 S 
ATOM      9  N   UNL     1      59.453  36.850  73.298  0.00  0.00    +0.000 NA
ATOM     10  C   UNL     1      58.464  37.356  72.918  0.00  0.00    +0.000 C 
ENDBRANCH   7   9
ENDBRANCH   1   6
TORSDOF 3
ENDMDL
MODEL 7
REMARK VINA RESULT:      -3.4      5.513      8.128
REMARK  Name = 5350_Sulforaphane.pdbqt.pdb
REMARK  3 active torsions:
REMARK  status: ('A' for Active; 'I' for Inactive)
REMARK    1  A    between atoms: C_1  and  C_2
REMARK    2  A    between atoms: C_3  and  N_5
REMARK    3  A    between atoms: C_7  and  S_8
REMARK                            x       y       z     vdW  Elec       q    Type
REMARK                         _______ _______ _______ _____ _____    ______ ____
ROOT
ATOM      1  C   UNL     1      56.256  37.213  74.682  0.00  0.00    +0.000 C 
ATOM      2  C   UNL     1      56.642  38.033  73.446  0.00  0.00    +0.000 C 
ENDROOT
BRANCH   2   3
ATOM      3  S   UNL     1      57.085  38.978  72.027  0.00  0.00    +0.000 S 
ATOM      4  O   UNL     1      58.192  38.030  71.673  0.00  0.00    +0.000 OA
ATOM      5  C   UNL     1      58.178  40.019  72.934  0.00  0.00    +0.000 C 
ENDBRANCH   2   3
BRANCH   1   6
ATOM      6  C   UNL     1      55.867  36.394  75.916  0.00  0.00    +0.000 C 
ATOM      7  C   UNL     1      55.477  35.573  77.151  0.00  0.00    +0.000 C 
BRANCH   7   9
ATOM      8  S   UNL     1      57.383  33.965  79.596  0.00  0.00    +0.000 S 
ATOM      9  N   UNL     1      55.145  34.846  78.227  0.00  0.00    +0.000 NA
ATOM     10  C   UNL     1      56.107  34.483  78.793  0.00  0.00    +0.000 C 
ENDBRANCH   7   9
ENDBRANCH   1   6
TORSDOF 3
ENDMDL
MODEL 8
REMARK VINA RESULT:      -3.4      5.832      7.097
REMARK  Name = 5350_Sulforaphane.pdbqt.pdb
REMARK  3 active torsions:
REMARK  status: ('A' for Active; 'I' for Inactive)
REMARK    1  A    between atoms: C_1  and  C_2
REMARK    2  A    between atoms: C_3  and  N_5
REMARK    3  A    between atoms: C_7  and  S_8
REMARK                            x       y       z     vdW  Elec       q    Type
REMARK                         _______ _______ _______ _____ _____    ______ ____
ROOT
ATOM      1  C   UNL     1      58.639  35.720  77.138  0.00  0.00    +0.000 C 
ATOM      2  C   UNL     1      57.117  35.835  77.275  0.00  0.00    +0.000 C 
ENDROOT
BRANCH   2   3
ATOM      3  S   UNL     1      55.367  35.966  77.428  0.00  0.00    +0.000 S 
ATOM      4  O   UNL     1      55.160  34.586  76.878  0.00  0.00    +0.000 OA
ATOM      5  C   UNL     1      55.179  36.699  75.838  0.00  0.00    +0.000 C 
ENDBRANCH   2   3
BRANCH   1   6
ATOM      6  C   UNL     1      60.160  35.608  77.002  0.00  0.00    +0.000 C 
ATOM      7  C   UNL     1      61.683  35.496  76.865  0.00  0.00    +0.000 C 
BRANCH   7   9
ATOM      8  S   UNL     1      64.211  37.860  76.397  0.00  0.00    +0.000 S 
ATOM      9  N   UNL     1      63.015  35.390  76.756  0.00  0.00    +0.000 NA
ATOM     10  C   UNL     1      63.503  36.447  76.605  0.00  0.00    +0.000 C 
ENDBRANCH   7   9
ENDBRANCH   1   6
TORSDOF 3
ENDMDL
MODEL 9
REMARK VINA RESULT:      -3.3      2.404      2.959
REMARK  Name = 5350_Sulforaphane.pdbqt.pdb
REMARK  3 active torsions:
REMARK  status: ('A' for Active; 'I' for Inactive)
REMARK    1  A    between atoms: C_1  and  C_2
REMARK    2  A    between atoms: C_3  and  N_5
REMARK    3  A    between atoms: C_7  and  S_8
REMARK                            x       y       z     vdW  Elec       q    Type
REMARK                         _______ _______ _______ _____ _____    ______ ____
ROOT
ATOM      1  C   UNL     1      57.604  36.298  83.445  0.00  0.00    +0.000 C 
ATOM      2  C   UNL     1      57.682  37.143  84.720  0.00  0.00    +0.000 C 
ENDROOT
BRANCH   2   3
ATOM      3  S   UNL     1      57.772  38.119  86.184  0.00  0.00    +0.000 S 
ATOM      4  O   UNL     1      59.256  37.926  86.287  0.00  0.00    +0.000 OA
ATOM      5  C   UNL     1      57.454  36.748  87.242  0.00  0.00    +0.000 C 
ENDBRANCH   2   3
BRANCH   1   6
ATOM      6  C   UNL     1      57.528  35.451  82.171  0.00  0.00    +0.000 C 
ATOM      7  C   UNL     1      57.453  34.604  80.895  0.00  0.00    +0.000 C 
BRANCH   7   9
ATOM      8  S   UNL     1      55.558  34.895  77.976  0.00  0.00    +0.000 S 
ATOM      9  N   UNL     1      57.396  33.871  79.774  0.00  0.00    +0.000 NA
ATOM     10  C   UNL     1      56.612  34.321  79.026  0.00  0.00    +0.000 C 
ENDBRANCH   7   9
ENDBRANCH   1   6
TORSDOF 3
ENDMDL
