MODEL 1
REMARK VINA RESULT:      -5.8      0.000      0.000
REMARK  Name = 5357283_Methylferulate.pdbqt.pdb
REMARK  5 active torsions:
REMARK  status: ('A' for Active; 'I' for Inactive)
REMARK    1  A    between atoms: C_1  and  C_11
REMARK    2  A    between atoms: C_2  and  O_7
REMARK    3  A    between atoms: C_5  and  O_9
REMARK    4  A    between atoms: C_12  and  C_14
REMARK    5  A    between atoms: C_14  and  O_15
REMARK                            x       y       z     vdW  Elec       q    Type
REMARK                         _______ _______ _______ _____ _____    ______ ____
ROOT
ATOM      1  C   UNL     1      57.174  35.728  79.511  0.00  0.00    +0.000 A 
ATOM      2  C   UNL     1      57.494  35.430  81.896  0.00  0.00    +0.000 A 
ATOM      3  C   UNL     1      56.811  36.016  80.826  0.00  0.00    +0.000 A 
ATOM      4  C   UNL     1      58.225  34.851  79.252  0.00  0.00    +0.000 A 
ATOM      5  C   UNL     1      58.546  34.553  81.621  0.00  0.00    +0.000 A 
ATOM      6  C   UNL     1      58.913  34.262  80.308  0.00  0.00    +0.000 A 
ENDROOT
BRANCH   2   7
ATOM      7  O   UNL     1      57.201  35.659  83.219  0.00  0.00    +0.000 OA
ATOM      8  C   UNL     1      57.054  37.008  83.579  0.00  0.00    +0.000 C 
ENDBRANCH   2   7
BRANCH   5   9
ATOM      9  O   UNL     1      59.226  33.969  82.656  0.00  0.00    +0.000 OA
ATOM     10  H   UNL     1      60.139  34.311  82.663  0.00  0.00    +0.000 HD
ENDBRANCH   5   9
BRANCH   1  11
ATOM     11  C   UNL     1      56.468  36.335  78.431  0.00  0.00    +0.000 C 
ATOM     12  C   UNL     1      55.871  36.846  77.521  0.00  0.00    +0.000 C 
BRANCH  12  14
ATOM     13  O   UNL     1      54.131  36.934  76.003  0.00  0.00    +0.000 OA
ATOM     14  C   UNL     1      55.155  37.455  76.425  0.00  0.00    +0.000 C 
BRANCH  14  15
ATOM     15  O   UNL     1      55.776  38.596  76.002  0.00  0.00    +0.000 OA
ATOM     16  C   UNL     1      55.490  39.792  76.683  0.00  0.00    +0.000 C 
ENDBRANCH  14  15
ENDBRANCH  12  14
ENDBRANCH   1  11
TORSDOF 5
ENDMDL
MODEL 2
REMARK VINA RESULT:      -4.9      3.492      4.884
REMARK  Name = 5357283_Methylferulate.pdbqt.pdb
REMARK  5 active torsions:
REMARK  status: ('A' for Active; 'I' for Inactive)
REMARK    1  A    between atoms: C_1  and  C_11
REMARK    2  A    between atoms: C_2  and  O_7
REMARK    3  A    between atoms: C_5  and  O_9
REMARK    4  A    between atoms: C_12  and  C_14
REMARK    5  A    between atoms: C_14  and  O_15
REMARK                            x       y       z     vdW  Elec       q    Type
REMARK                         _______ _______ _______ _____ _____    ______ ____
ROOT
ATOM      1  C   UNL     1      58.716  35.786  78.780  0.00  0.00    +0.000 A 
ATOM      2  C   UNL     1      57.886  35.527  81.044  0.00  0.00    +0.000 A 
ATOM      3  C   UNL     1      58.876  35.310  80.081  0.00  0.00    +0.000 A 
ATOM      4  C   UNL     1      57.564  36.484  78.428  0.00  0.00    +0.000 A 
ATOM      5  C   UNL     1      56.736  36.229  80.676  0.00  0.00    +0.000 A 
ATOM      6  C   UNL     1      56.571  36.707  79.377  0.00  0.00    +0.000 A 
ENDROOT
BRANCH   2   7
ATOM      7  O   UNL     1      57.965  35.093  82.345  0.00  0.00    +0.000 OA
ATOM      8  C   UNL     1      58.538  33.824  82.523  0.00  0.00    +0.000 C 
ENDBRANCH   2   7
BRANCH   5   9
ATOM      9  O   UNL     1      55.756  36.453  81.605  0.00  0.00    +0.000 OA
ATOM     10  H   UNL     1      55.487  37.389  81.557  0.00  0.00    +0.000 HD
ENDBRANCH   5   9
BRANCH   1  11
ATOM     11  C   UNL     1      59.736  35.554  77.810  0.00  0.00    +0.000 C 
ATOM     12  C   UNL     1      60.595  35.360  76.992  0.00  0.00    +0.000 C 
BRANCH  12  14
ATOM     13  O   UNL     1      62.102  36.072  75.391  0.00  0.00    +0.000 OA
ATOM     14  C   UNL     1      61.624  35.127  76.005  0.00  0.00    +0.000 C 
BRANCH  14  15
ATOM     15  O   UNL     1      61.920  33.798  75.905  0.00  0.00    +0.000 OA
ATOM     16  C   UNL     1      61.259  33.049  74.916  0.00  0.00    +0.000 C 
ENDBRANCH  14  15
ENDBRANCH  12  14
ENDBRANCH   1  11
TORSDOF 5
ENDMDL
MODEL 3
REMARK VINA RESULT:      -4.5      2.866      6.604
REMARK  Name = 5357283_Methylferulate.pdbqt.pdb
REMARK  5 active torsions:
REMARK  status: ('A' for Active; 'I' for Inactive)
REMARK    1  A    between atoms: C_1  and  C_11
REMARK    2  A    between atoms: C_2  and  O_7
REMARK    3  A    between atoms: C_5  and  O_9
REMARK    4  A    between atoms: C_12  and  C_14
REMARK    5  A    between atoms: C_14  and  O_15
REMARK                            x       y       z     vdW  Elec       q    Type
REMARK                         _______ _______ _______ _____ _____    ______ ____
ROOT
ATOM      1  C   UNL     1      58.365  36.185  77.134  0.00  0.00    +0.000 A 
ATOM      2  C   UNL     1      58.135  37.753  75.298  0.00  0.00    +0.000 A 
ATOM      3  C   UNL     1      57.669  37.214  76.501  0.00  0.00    +0.000 A 
ATOM      4  C   UNL     1      59.535  35.683  76.569  0.00  0.00    +0.000 A 
ATOM      5  C   UNL     1      59.310  37.239  74.744  0.00  0.00    +0.000 A 
ATOM      6  C   UNL     1      60.010  36.210  75.372  0.00  0.00    +0.000 A 
ENDROOT
BRANCH   2   7
ATOM      7  O   UNL     1      57.510  38.766  74.612  0.00  0.00    +0.000 OA
ATOM      8  C   UNL     1      56.264  38.438  74.055  0.00  0.00    +0.000 C 
ENDBRANCH   2   7
BRANCH   5   9
ATOM      9  O   UNL     1      59.782  37.754  73.567  0.00  0.00    +0.000 OA
ATOM     10  H   UNL     1      60.678  37.403  73.409  0.00  0.00    +0.000 HD
ENDBRANCH   5   9
BRANCH   1  11
ATOM     11  C   UNL     1      57.876  35.646  78.360  0.00  0.00    +0.000 C 
ATOM     12  C   UNL     1      57.463  35.191  79.393  0.00  0.00    +0.000 C 
BRANCH  12  14
ATOM     13  O   UNL     1      56.347  35.358  81.410  0.00  0.00    +0.000 OA
ATOM     14  C   UNL     1      56.963  34.641  80.632  0.00  0.00    +0.000 C 
BRANCH  14  15
ATOM     15  O   UNL     1      57.279  33.318  80.748  0.00  0.00    +0.000 OA
ATOM     16  C   UNL     1      58.356  32.969  81.580  0.00  0.00    +0.000 C 
ENDBRANCH  14  15
ENDBRANCH  12  14
ENDBRANCH   1  11
TORSDOF 5
ENDMDL
MODEL 4
REMARK VINA RESULT:      -4.4     60.096     60.907
REMARK  Name = 5357283_Methylferulate.pdbqt.pdb
REMARK  5 active torsions:
REMARK  status: ('A' for Active; 'I' for Inactive)
REMARK    1  A    between atoms: C_1  and  C_11
REMARK    2  A    between atoms: C_2  and  O_7
REMARK    3  A    between atoms: C_5  and  O_9
REMARK    4  A    between atoms: C_12  and  C_14
REMARK    5  A    between atoms: C_14  and  O_15
REMARK                            x       y       z     vdW  Elec       q    Type
REMARK                         _______ _______ _______ _____ _____    ______ ____
ROOT
ATOM      1  C   UNL     1       4.476  12.101  96.535  0.00  0.00    +0.000 A 
ATOM      2  C   UNL     1       4.301  14.378  95.719  0.00  0.00    +0.000 A 
ATOM      3  C   UNL     1       3.699  13.192  96.149  0.00  0.00    +0.000 A 
ATOM      4  C   UNL     1       5.866  12.184  96.495  0.00  0.00    +0.000 A 
ATOM      5  C   UNL     1       5.696  14.447  95.684  0.00  0.00    +0.000 A 
ATOM      6  C   UNL     1       6.478  13.359  96.069  0.00  0.00    +0.000 A 
ENDROOT
BRANCH   2   7
ATOM      7  O   UNL     1       3.610  15.497  95.322  0.00  0.00    +0.000 OA
ATOM      8  C   UNL     1       2.463  15.255  94.550  0.00  0.00    +0.000 C 
ENDBRANCH   2   7
BRANCH   5   9
ATOM      9  O   UNL     1       6.305  15.600  95.268  0.00  0.00    +0.000 OA
ATOM     10  H   UNL     1       6.538  15.508  94.325  0.00  0.00    +0.000 HD
ENDBRANCH   5   9
BRANCH   1  11
ATOM     11  C   UNL     1       3.845  10.899  96.969  0.00  0.00    +0.000 C 
ATOM     12  C   UNL     1       3.311   9.886  97.336  0.00  0.00    +0.000 C 
BRANCH  12  14
ATOM     13  O   UNL     1       3.307   7.839  98.410  0.00  0.00    +0.000 OA
ATOM     14  C   UNL     1       2.667   8.671  97.780  0.00  0.00    +0.000 C 
BRANCH  14  15
ATOM     15  O   UNL     1       1.356   8.639  97.400  0.00  0.00    +0.000 OA
ATOM     16  C   UNL     1       1.015   7.867  96.276  0.00  0.00    +0.000 C 
ENDBRANCH  14  15
ENDBRANCH  12  14
ENDBRANCH   1  11
TORSDOF 5
ENDMDL
MODEL 5
REMARK VINA RESULT:      -4.3      4.481      7.330
REMARK  Name = 5357283_Methylferulate.pdbqt.pdb
REMARK  5 active torsions:
REMARK  status: ('A' for Active; 'I' for Inactive)
REMARK    1  A    between atoms: C_1  and  C_11
REMARK    2  A    between atoms: C_2  and  O_7
REMARK    3  A    between atoms: C_5  and  O_9
REMARK    4  A    between atoms: C_12  and  C_14
REMARK    5  A    between atoms: C_14  and  O_15
REMARK                            x       y       z     vdW  Elec       q    Type
REMARK                         _______ _______ _______ _____ _____    ______ ____
ROOT
ATOM      1  C   UNL     1      60.296  35.678  76.673  0.00  0.00    +0.000 A 
ATOM      2  C   UNL     1      60.551  36.319  74.348  0.00  0.00    +0.000 A 
ATOM      3  C   UNL     1      59.758  35.849  75.398  0.00  0.00    +0.000 A 
ATOM      4  C   UNL     1      61.636  35.976  76.910  0.00  0.00    +0.000 A 
ATOM      5  C   UNL     1      61.893  36.614  74.601  0.00  0.00    +0.000 A 
ATOM      6  C   UNL     1      62.437  36.445  75.874  0.00  0.00    +0.000 A 
ENDROOT
BRANCH   2   7
ATOM      7  O   UNL     1      60.099  36.515  73.065  0.00  0.00    +0.000 OA
ATOM      8  C   UNL     1      59.432  35.424  72.488  0.00  0.00    +0.000 C 
ENDBRANCH   2   7
BRANCH   5   9
ATOM      9  O   UNL     1      62.686  37.077  73.586  0.00  0.00    +0.000 OA
ATOM     10  H   UNL     1      63.531  37.381  73.964  0.00  0.00    +0.000 HD
ENDBRANCH   5   9
BRANCH   1  11
ATOM     11  C   UNL     1      59.473  35.196  77.732  0.00  0.00    +0.000 C 
ATOM     12  C   UNL     1      58.778  34.788  78.625  0.00  0.00    +0.000 C 
BRANCH  12  14
ATOM     13  O   UNL     1      56.963  34.944  80.047  0.00  0.00    +0.000 OA
ATOM     14  C   UNL     1      57.940  34.297  79.694  0.00  0.00    +0.000 C 
BRANCH  14  15
ATOM     15  O   UNL     1      58.403  33.106  80.177  0.00  0.00    +0.000 OA
ATOM     16  C   UNL     1      58.518  32.961  81.570  0.00  0.00    +0.000 C 
ENDBRANCH  14  15
ENDBRANCH  12  14
ENDBRANCH   1  11
TORSDOF 5
ENDMDL
MODEL 6
REMARK VINA RESULT:      -4.1     17.013     17.561
REMARK  Name = 5357283_Methylferulate.pdbqt.pdb
REMARK  5 active torsions:
REMARK  status: ('A' for Active; 'I' for Inactive)
REMARK    1  A    between atoms: C_1  and  C_11
REMARK    2  A    between atoms: C_2  and  O_7
REMARK    3  A    between atoms: C_5  and  O_9
REMARK    4  A    between atoms: C_12  and  C_14
REMARK    5  A    between atoms: C_14  and  O_15
REMARK                            x       y       z     vdW  Elec       q    Type
REMARK                         _______ _______ _______ _____ _____    ______ ____
ROOT
ATOM      1  C   UNL     1      44.449  25.043  83.453  0.00  0.00    +0.000 A 
ATOM      2  C   UNL     1      46.069  26.275  84.771  0.00  0.00    +0.000 A 
ATOM      3  C   UNL     1      44.747  26.032  84.389  0.00  0.00    +0.000 A 
ATOM      4  C   UNL     1      45.472  24.285  82.888  0.00  0.00    +0.000 A 
ATOM      5  C   UNL     1      47.085  25.507  84.196  0.00  0.00    +0.000 A 
ATOM      6  C   UNL     1      46.793  24.516  83.260  0.00  0.00    +0.000 A 
ENDROOT
BRANCH   2   7
ATOM      7  O   UNL     1      46.448  27.229  85.685  0.00  0.00    +0.000 OA
ATOM      8  C   UNL     1      45.442  28.130  86.066  0.00  0.00    +0.000 C 
ENDBRANCH   2   7
BRANCH   5   9
ATOM      9  O   UNL     1      48.386  25.729  84.558  0.00  0.00    +0.000 OA
ATOM     10  H   UNL     1      48.731  26.479  84.040  0.00  0.00    +0.000 HD
ENDBRANCH   5   9
BRANCH   1  11
ATOM     11  C   UNL     1      43.094  24.810  83.074  0.00  0.00    +0.000 C 
ATOM     12  C   UNL     1      41.951  24.613  82.756  0.00  0.00    +0.000 C 
BRANCH  12  14
ATOM     13  O   UNL     1      39.842  23.743  83.123  0.00  0.00    +0.000 OA
ATOM     14  C   UNL     1      40.579  24.371  82.375  0.00  0.00    +0.000 C 
BRANCH  14  15
ATOM     15  O   UNL     1      40.302  24.919  81.155  0.00  0.00    +0.000 OA
ATOM     16  C   UNL     1      40.311  24.069  80.035  0.00  0.00    +0.000 C 
ENDBRANCH  14  15
ENDBRANCH  12  14
ENDBRANCH   1  11
TORSDOF 5
ENDMDL
MODEL 7
REMARK VINA RESULT:      -4.1     59.685     60.576
REMARK  Name = 5357283_Methylferulate.pdbqt.pdb
REMARK  5 active torsions:
REMARK  status: ('A' for Active; 'I' for Inactive)
REMARK    1  A    between atoms: C_1  and  C_11
REMARK    2  A    between atoms: C_2  and  O_7
REMARK    3  A    between atoms: C_5  and  O_9
REMARK    4  A    between atoms: C_12  and  C_14
REMARK    5  A    between atoms: C_14  and  O_15
REMARK                            x       y       z     vdW  Elec       q    Type
REMARK                         _______ _______ _______ _____ _____    ______ ____
ROOT
ATOM      1  C   UNL     1       4.217   7.373  87.480  0.00  0.00    +0.000 A 
ATOM      2  C   UNL     1       3.688   9.641  86.802  0.00  0.00    +0.000 A 
ATOM      3  C   UNL     1       4.548   8.539  86.791  0.00  0.00    +0.000 A 
ATOM      4  C   UNL     1       3.020   7.297  88.189  0.00  0.00    +0.000 A 
ATOM      5  C   UNL     1       2.491   9.550  87.517  0.00  0.00    +0.000 A 
ATOM      6  C   UNL     1       2.155   8.386  88.208  0.00  0.00    +0.000 A 
ENDROOT
BRANCH   2   7
ATOM      7  O   UNL     1       3.938  10.825  86.151  0.00  0.00    +0.000 OA
ATOM      8  C   UNL     1       4.374  10.700  84.822  0.00  0.00    +0.000 C 
ENDBRANCH   2   7
BRANCH   5   9
ATOM      9  O   UNL     1       1.635  10.617  87.539  0.00  0.00    +0.000 OA
ATOM     10  H   UNL     1       1.940  11.249  88.217  0.00  0.00    +0.000 HD
ENDBRANCH   5   9
BRANCH   1  11
ATOM     11  C   UNL     1       5.106   6.259  87.459  0.00  0.00    +0.000 C 
ATOM     12  C   UNL     1       5.857   5.320  87.439  0.00  0.00    +0.000 C 
BRANCH  12  14
ATOM     13  O   UNL     1       7.818   4.243  88.016  0.00  0.00    +0.000 OA
ATOM     14  C   UNL     1       6.754   4.188  87.414  0.00  0.00    +0.000 C 
BRANCH  14  15
ATOM     15  O   UNL     1       6.239   3.166  86.670  0.00  0.00    +0.000 OA
ATOM     16  C   UNL     1       6.158   3.340  85.278  0.00  0.00    +0.000 C 
ENDBRANCH  14  15
ENDBRANCH  12  14
ENDBRANCH   1  11
TORSDOF 5
ENDMDL
MODEL 8
REMARK VINA RESULT:      -4.0     16.854     18.105
REMARK  Name = 5357283_Methylferulate.pdbqt.pdb
REMARK  5 active torsions:
REMARK  status: ('A' for Active; 'I' for Inactive)
REMARK    1  A    between atoms: C_1  and  C_11
REMARK    2  A    between atoms: C_2  and  O_7
REMARK    3  A    between atoms: C_5  and  O_9
REMARK    4  A    between atoms: C_12  and  C_14
REMARK    5  A    between atoms: C_14  and  O_15
REMARK                            x       y       z     vdW  Elec       q    Type
REMARK                         _______ _______ _______ _____ _____    ______ ____
ROOT
ATOM      1  C   UNL     1      45.495  24.406  83.383  0.00  0.00    +0.000 A 
ATOM      2  C   UNL     1      43.311  25.373  82.959  0.00  0.00    +0.000 A 
ATOM      3  C   UNL     1      44.177  24.276  82.946  0.00  0.00    +0.000 A 
ATOM      4  C   UNL     1      45.961  25.637  83.839  0.00  0.00    +0.000 A 
ATOM      5  C   UNL     1      43.793  26.601  83.419  0.00  0.00    +0.000 A 
ATOM      6  C   UNL     1      45.109  26.737  83.857  0.00  0.00    +0.000 A 
ENDROOT
BRANCH   2   7
ATOM      7  O   UNL     1      42.001  25.330  82.546  0.00  0.00    +0.000 OA
ATOM      8  C   UNL     1      41.242  24.268  83.061  0.00  0.00    +0.000 C 
ENDBRANCH   2   7
BRANCH   5   9
ATOM      9  O   UNL     1      42.960  27.688  83.440  0.00  0.00    +0.000 OA
ATOM     10  H   UNL     1      42.300  27.589  82.730  0.00  0.00    +0.000 HD
ENDBRANCH   5   9
BRANCH   1  11
ATOM     11  C   UNL     1      46.364  23.276  83.362  0.00  0.00    +0.000 C 
ATOM     12  C   UNL     1      47.098  22.324  83.343  0.00  0.00    +0.000 C 
BRANCH  12  14
ATOM     13  O   UNL     1      47.519  20.063  83.121  0.00  0.00    +0.000 OA
ATOM     14  C   UNL     1      47.980  21.180  83.315  0.00  0.00    +0.000 C 
BRANCH  14  15
ATOM     15  O   UNL     1      49.277  21.551  83.526  0.00  0.00    +0.000 OA
ATOM     16  C   UNL     1      49.692  21.769  84.851  0.00  0.00    +0.000 C 
ENDBRANCH  14  15
ENDBRANCH  12  14
ENDBRANCH   1  11
TORSDOF 5
ENDMDL
MODEL 9
REMARK VINA RESULT:      -4.0      8.205     10.046
REMARK  Name = 5357283_Methylferulate.pdbqt.pdb
REMARK  5 active torsions:
REMARK  status: ('A' for Active; 'I' for Inactive)
REMARK    1  A    between atoms: C_1  and  C_11
REMARK    2  A    between atoms: C_2  and  O_7
REMARK    3  A    between atoms: C_5  and  O_9
REMARK    4  A    between atoms: C_12  and  C_14
REMARK    5  A    between atoms: C_14  and  O_15
REMARK                            x       y       z     vdW  Elec       q    Type
REMARK                         _______ _______ _______ _____ _____    ______ ____
ROOT
ATOM      1  C   UNL     1      59.456  32.562  71.951  0.00  0.00    +0.000 A 
ATOM      2  C   UNL     1      59.899  31.368  69.887  0.00  0.00    +0.000 A 
ATOM      3  C   UNL     1      59.384  32.479  70.561  0.00  0.00    +0.000 A 
ATOM      4  C   UNL     1      60.045  31.533  72.682  0.00  0.00    +0.000 A 
ATOM      5  C   UNL     1      60.487  30.344  70.634  0.00  0.00    +0.000 A 
ATOM      6  C   UNL     1      60.562  30.422  72.024  0.00  0.00    +0.000 A 
ENDROOT
BRANCH   2   7
ATOM      7  O   UNL     1      59.869  31.208  68.522  0.00  0.00    +0.000 OA
ATOM      8  C   UNL     1      60.551  32.189  67.786  0.00  0.00    +0.000 C 
ENDBRANCH   2   7
BRANCH   5   9
ATOM      9  O   UNL     1      60.998  29.248  69.992  0.00  0.00    +0.000 OA
ATOM     10  H   UNL     1      61.822  29.507  69.540  0.00  0.00    +0.000 HD
ENDBRANCH   5   9
BRANCH   1  11
ATOM     11  C   UNL     1      58.925  33.702  72.621  0.00  0.00    +0.000 C 
ATOM     12  C   UNL     1      58.476  34.663  73.188  0.00  0.00    +0.000 C 
BRANCH  12  14
ATOM     13  O   UNL     1      56.901  35.706  74.519  0.00  0.00    +0.000 OA
ATOM     14  C   UNL     1      57.932  35.815  73.869  0.00  0.00    +0.000 C 
BRANCH  14  15
ATOM     15  O   UNL     1      58.707  36.920  73.665  0.00  0.00    +0.000 OA
ATOM     16  C   UNL     1      59.700  37.212  74.616  0.00  0.00    +0.000 C 
ENDBRANCH  14  15
ENDBRANCH  12  14
ENDBRANCH   1  11
TORSDOF 5
ENDMDL
