MODEL 1
REMARK VINA RESULT:      -6.1      0.000      0.000
REMARK  Name = 5358691_Yuanhuacine.pdbqt.pdb
REMARK  12 active torsions:
REMARK  status: ('A' for Active; 'I' for Inactive)
REMARK    1  A    between atoms: C_9  and  C_48
REMARK    2  A    between atoms: C_13  and  C_23
REMARK    3  A    between atoms: C_14  and  O_26
REMARK    4  A    between atoms: C_15  and  O_28
REMARK    5  A    between atoms: C_16  and  O_39
REMARK    6  A    between atoms: C_17  and  C_30
REMARK    7  A    between atoms: C_31  and  C_32
REMARK    8  A    between atoms: C_33  and  C_34
REMARK    9  A    between atoms: C_35  and  C_36
REMARK   10  A    between atoms: O_39  and  C_41
REMARK   11  A    between atoms: C_41  and  C_42
REMARK   12  A    between atoms: C_48  and  O_49
REMARK                            x       y       z     vdW  Elec       q    Type
REMARK                         _______ _______ _______ _____ _____    ______ ____
ROOT
ATOM      1  O   UNL     1      64.198  33.022  68.866  0.00  0.00    +0.000 OA
ATOM      2  O   UNL     1      61.635  31.067  70.231  0.00  0.00    +0.000 OA
ATOM      3  O   UNL     1      60.849  33.042  69.175  0.00  0.00    +0.000 OA
ATOM      4  O   UNL     1      59.617  32.132  70.882  0.00  0.00    +0.000 OA
ATOM      5  O   UNL     1      67.082  30.508  72.399  0.00  0.00    +0.000 OA
ATOM      6  C   UNL     1      62.621  33.260  70.586  0.00  0.00    +0.000 C 
ATOM      7  C   UNL     1      62.531  31.818  71.107  0.00  0.00    +0.000 C 
ATOM      8  C   UNL     1      63.719  33.835  69.862  0.00  0.00    +0.000 C 
ATOM      9  C   UNL     1      65.158  33.583  69.772  0.00  0.00    +0.000 C 
ATOM     10  C   UNL     1      61.239  33.693  70.345  0.00  0.00    +0.000 C 
ATOM     11  C   UNL     1      63.858  31.124  71.081  0.00  0.00    +0.000 C 
ATOM     12  C   UNL     1      61.915  31.845  72.539  0.00  0.00    +0.000 C 
ATOM     13  C   UNL     1      60.203  33.342  71.440  0.00  0.00    +0.000 C 
ATOM     14  C   UNL     1      65.091  31.764  71.679  0.00  0.00    +0.000 C 
ATOM     15  C   UNL     1      65.823  32.728  70.793  0.00  0.00    +0.000 C 
ATOM     16  C   UNL     1      60.876  32.847  72.708  0.00  0.00    +0.000 C 
ATOM     17  C   UNL     1      60.469  31.804  69.787  0.00  0.00    +0.000 C 
ATOM     18  C   UNL     1      64.086  29.728  70.965  0.00  0.00    +0.000 C 
ATOM     19  C   UNL     1      62.137  30.803  73.636  0.00  0.00    +0.000 C 
ATOM     20  C   UNL     1      65.956  30.481  71.909  0.00  0.00    +0.000 C 
ATOM     21  C   UNL     1      65.205  29.277  71.425  0.00  0.00    +0.000 C 
ATOM     22  C   UNL     1      65.801  27.968  71.024  0.00  0.00    +0.000 C 
ENDROOT
BRANCH  13  23
ATOM     23  C   UNL     1      59.183  34.496  71.588  0.00  0.00    +0.000 C 
ATOM     24  C   UNL     1      57.964  34.449  72.507  0.00  0.00    +0.000 C 
ATOM     25  C   UNL     1      59.100  35.532  70.728  0.00  0.00    +0.000 C 
ENDBRANCH  13  23
BRANCH  14  26
ATOM     26  O   UNL     1      64.786  32.428  72.887  0.00  0.00    +0.000 OA
ATOM     27  H   UNL     1      64.305  31.793  73.453  0.00  0.00    +0.000 HD
ENDBRANCH  14  26
BRANCH  15  28
ATOM     28  O   UNL     1      67.171  32.953  71.084  0.00  0.00    +0.000 OA
ATOM     29  H   UNL     1      67.367  33.130  72.029  0.00  0.00    +0.000 HD
ENDBRANCH  15  28
BRANCH  17  30
ATOM     30  C   UNL     1      59.733  30.986  68.828  0.00  0.00    +0.000 C 
ATOM     31  C   UNL     1      59.128  30.312  68.041  0.00  0.00    +0.000 C 
BRANCH  31  32
ATOM     32  C   UNL     1      58.355  29.451  67.038  0.00  0.00    +0.000 C 
ATOM     33  C   UNL     1      57.749  28.775  66.252  0.00  0.00    +0.000 C 
BRANCH  33  34
ATOM     34  C   UNL     1      56.977  27.911  65.250  0.00  0.00    +0.000 C 
ATOM     35  C   UNL     1      56.206  27.047  64.250  0.00  0.00    +0.000 C 
BRANCH  35  36
ATOM     36  C   UNL     1      55.433  26.181  63.249  0.00  0.00    +0.000 C 
ATOM     37  C   UNL     1      54.660  25.315  62.250  0.00  0.00    +0.000 C 
ATOM     38  C   UNL     1      53.885  24.450  61.251  0.00  0.00    +0.000 C 
ENDBRANCH  35  36
ENDBRANCH  33  34
ENDBRANCH  31  32
ENDBRANCH  17  30
BRANCH  16  39
ATOM     39  O   UNL     1      60.544  33.242  74.015  0.00  0.00    +0.000 OA
BRANCH  39  41
ATOM     40  O   UNL     1      62.587  34.081  74.652  0.00  0.00    +0.000 OA
ATOM     41  C   UNL     1      61.377  34.186  74.545  0.00  0.00    +0.000 C 
BRANCH  41  42
ATOM     42  C   UNL     1      60.600  35.347  75.016  0.00  0.00    +0.000 A 
ATOM     43  C   UNL     1      59.865  35.301  76.200  0.00  0.00    +0.000 A 
ATOM     44  C   UNL     1      60.617  36.509  74.246  0.00  0.00    +0.000 A 
ATOM     45  C   UNL     1      59.145  36.419  76.614  0.00  0.00    +0.000 A 
ATOM     46  C   UNL     1      59.897  37.626  74.662  0.00  0.00    +0.000 A 
ATOM     47  C   UNL     1      59.162  37.580  75.844  0.00  0.00    +0.000 A 
ENDBRANCH  41  42
ENDBRANCH  39  41
ENDBRANCH  16  39
BRANCH   9  48
ATOM     48  C   UNL     1      65.981  34.560  69.071  0.00  0.00    +0.000 C 
BRANCH  48  49
ATOM     49  O   UNL     1      66.736  35.452  68.436  0.00  0.00    +0.000 OA
ATOM     50  H   UNL     1      67.679  35.248  68.559  0.00  0.00    +0.000 HD
ENDBRANCH  48  49
ENDBRANCH   9  48
TORSDOF 12
ENDMDL
MODEL 2
REMARK VINA RESULT:      -6.0     22.137     25.406
REMARK  Name = 5358691_Yuanhuacine.pdbqt.pdb
REMARK  12 active torsions:
REMARK  status: ('A' for Active; 'I' for Inactive)
REMARK    1  A    between atoms: C_9  and  C_48
REMARK    2  A    between atoms: C_13  and  C_23
REMARK    3  A    between atoms: C_14  and  O_26
REMARK    4  A    between atoms: C_15  and  O_28
REMARK    5  A    between atoms: C_16  and  O_39
REMARK    6  A    between atoms: C_17  and  C_30
REMARK    7  A    between atoms: C_31  and  C_32
REMARK    8  A    between atoms: C_33  and  C_34
REMARK    9  A    between atoms: C_35  and  C_36
REMARK   10  A    between atoms: O_39  and  C_41
REMARK   11  A    between atoms: C_41  and  C_42
REMARK   12  A    between atoms: C_48  and  O_49
REMARK                            x       y       z     vdW  Elec       q    Type
REMARK                         _______ _______ _______ _____ _____    ______ ____
ROOT
ATOM      1  O   UNL     1      44.301  26.733  84.128  0.00  0.00    +0.000 OA
ATOM      2  O   UNL     1      44.792  23.433  85.193  0.00  0.00    +0.000 OA
ATOM      3  O   UNL     1      44.311  23.611  82.875  0.00  0.00    +0.000 OA
ATOM      4  O   UNL     1      43.750  21.681  83.979  0.00  0.00    +0.000 OA
ATOM      5  O   UNL     1      43.154  27.471  89.154  0.00  0.00    +0.000 OA
ATOM      6  C   UNL     1      42.989  24.795  84.299  0.00  0.00    +0.000 C 
ATOM      7  C   UNL     1      43.575  24.150  85.563  0.00  0.00    +0.000 C 
ATOM      8  C   UNL     1      43.057  26.185  83.943  0.00  0.00    +0.000 C 
ATOM      9  C   UNL     1      43.184  27.446  84.676  0.00  0.00    +0.000 C 
ATOM     10  C   UNL     1      42.982  23.746  83.272  0.00  0.00    +0.000 C 
ATOM     11  C   UNL     1      43.959  25.169  86.592  0.00  0.00    +0.000 C 
ATOM     12  C   UNL     1      42.545  23.122  86.119  0.00  0.00    +0.000 C 
ATOM     13  C   UNL     1      42.484  22.349  83.714  0.00  0.00    +0.000 C 
ATOM     14  C   UNL     1      42.996  26.254  87.020  0.00  0.00    +0.000 C 
ATOM     15  C   UNL     1      42.951  27.473  86.145  0.00  0.00    +0.000 C 
ATOM     16  C   UNL     1      41.827  22.397  85.083  0.00  0.00    +0.000 C 
ATOM     17  C   UNL     1      44.716  22.729  83.929  0.00  0.00    +0.000 C 
ATOM     18  C   UNL     1      44.961  25.038  87.587  0.00  0.00    +0.000 C 
ATOM     19  C   UNL     1      42.413  22.672  87.575  0.00  0.00    +0.000 C 
ATOM     20  C   UNL     1      43.619  26.612  88.410  0.00  0.00    +0.000 C 
ATOM     21  C   UNL     1      44.839  25.772  88.643  0.00  0.00    +0.000 C 
ATOM     22  C   UNL     1      45.967  26.091  89.568  0.00  0.00    +0.000 C 
ENDROOT
BRANCH  13  23
ATOM     23  C   UNL     1      41.679  21.690  82.570  0.00  0.00    +0.000 C 
ATOM     24  C   UNL     1      41.694  20.193  82.263  0.00  0.00    +0.000 C 
ATOM     25  C   UNL     1      41.116  22.384  81.560  0.00  0.00    +0.000 C 
ENDBRANCH  13  23
BRANCH  14  26
ATOM     26  O   UNL     1      41.681  25.753  87.135  0.00  0.00    +0.000 OA
ATOM     27  H   UNL     1      41.108  26.312  86.575  0.00  0.00    +0.000 HD
ENDBRANCH  14  26
BRANCH  15  28
ATOM     28  O   UNL     1      42.484  28.652  86.731  0.00  0.00    +0.000 OA
ATOM     29  H   UNL     1      41.761  28.533  87.382  0.00  0.00    +0.000 HD
ENDBRANCH  15  28
BRANCH  17  30
ATOM     30  C   UNL     1      46.027  22.166  83.624  0.00  0.00    +0.000 C 
ATOM     31  C   UNL     1      47.107  21.704  83.374  0.00  0.00    +0.000 C 
BRANCH  31  32
ATOM     32  C   UNL     1      48.484  21.115  83.058  0.00  0.00    +0.000 C 
ATOM     33  C   UNL     1      49.564  20.654  82.809  0.00  0.00    +0.000 C 
BRANCH  33  34
ATOM     34  C   UNL     1      50.943  20.068  82.491  0.00  0.00    +0.000 C 
ATOM     35  C   UNL     1      52.321  19.481  82.174  0.00  0.00    +0.000 C 
BRANCH  35  36
ATOM     36  C   UNL     1      53.700  18.893  81.855  0.00  0.00    +0.000 C 
ATOM     37  C   UNL     1      55.078  18.307  81.536  0.00  0.00    +0.000 C 
ATOM     38  C   UNL     1      56.457  17.721  81.219  0.00  0.00    +0.000 C 
ENDBRANCH  35  36
ENDBRANCH  33  34
ENDBRANCH  31  32
ENDBRANCH  17  30
BRANCH  16  39
ATOM     39  O   UNL     1      40.621  21.765  85.431  0.00  0.00    +0.000 OA
BRANCH  39  41
ATOM     40  O   UNL     1      39.271  23.541  85.982  0.00  0.00    +0.000 OA
ATOM     41  C   UNL     1      39.516  22.557  85.305  0.00  0.00    +0.000 C 
BRANCH  41  42
ATOM     42  C   UNL     1      38.625  22.029  84.256  0.00  0.00    +0.000 A 
ATOM     43  C   UNL     1      37.911  22.878  83.411  0.00  0.00    +0.000 A 
ATOM     44  C   UNL     1      38.509  20.647  84.123  0.00  0.00    +0.000 A 
ATOM     45  C   UNL     1      37.080  22.341  82.430  0.00  0.00    +0.000 A 
ATOM     46  C   UNL     1      37.679  20.112  83.142  0.00  0.00    +0.000 A 
ATOM     47  C   UNL     1      36.965  20.959  82.296  0.00  0.00    +0.000 A 
ENDBRANCH  41  42
ENDBRANCH  39  41
ENDBRANCH  16  39
BRANCH   9  48
ATOM     48  C   UNL     1      42.987  28.687  83.939  0.00  0.00    +0.000 C 
BRANCH  48  49
ATOM     49  O   UNL     1      42.802  29.818  83.263  0.00  0.00    +0.000 OA
ATOM     50  H   UNL     1      41.852  30.015  83.184  0.00  0.00    +0.000 HD
ENDBRANCH  48  49
ENDBRANCH   9  48
TORSDOF 12
ENDMDL
MODEL 3
REMARK VINA RESULT:      -5.9     23.127     25.808
REMARK  Name = 5358691_Yuanhuacine.pdbqt.pdb
REMARK  12 active torsions:
REMARK  status: ('A' for Active; 'I' for Inactive)
REMARK    1  A    between atoms: C_9  and  C_48
REMARK    2  A    between atoms: C_13  and  C_23
REMARK    3  A    between atoms: C_14  and  O_26
REMARK    4  A    between atoms: C_15  and  O_28
REMARK    5  A    between atoms: C_16  and  O_39
REMARK    6  A    between atoms: C_17  and  C_30
REMARK    7  A    between atoms: C_31  and  C_32
REMARK    8  A    between atoms: C_33  and  C_34
REMARK    9  A    between atoms: C_35  and  C_36
REMARK   10  A    between atoms: O_39  and  C_41
REMARK   11  A    between atoms: C_41  and  C_42
REMARK   12  A    between atoms: C_48  and  O_49
REMARK                            x       y       z     vdW  Elec       q    Type
REMARK                         _______ _______ _______ _____ _____    ______ ____
ROOT
ATOM      1  O   UNL     1      41.941  26.860  84.443  0.00  0.00    +0.000 OA
ATOM      2  O   UNL     1      41.956  24.051  82.352  0.00  0.00    +0.000 OA
ATOM      3  O   UNL     1      39.772  24.774  82.940  0.00  0.00    +0.000 OA
ATOM      4  O   UNL     1      40.110  22.562  82.437  0.00  0.00    +0.000 OA
ATOM      5  O   UNL     1      46.722  25.167  85.627  0.00  0.00    +0.000 OA
ATOM      6  C   UNL     1      41.295  24.612  84.624  0.00  0.00    +0.000 C 
ATOM      7  C   UNL     1      42.357  23.927  83.751  0.00  0.00    +0.000 C 
ATOM      8  C   UNL     1      41.415  25.892  85.261  0.00  0.00    +0.000 C 
ATOM      9  C   UNL     1      42.522  26.718  85.747  0.00  0.00    +0.000 C 
ATOM     10  C   UNL     1      39.997  24.116  84.149  0.00  0.00    +0.000 C 
ATOM     11  C   UNL     1      43.701  24.576  83.883  0.00  0.00    +0.000 C 
ATOM     12  C   UNL     1      42.403  22.414  84.120  0.00  0.00    +0.000 C 
ATOM     13  C   UNL     1      39.895  22.596  83.876  0.00  0.00    +0.000 C 
ATOM     14  C   UNL     1      44.311  24.850  85.240  0.00  0.00    +0.000 C 
ATOM     15  C   UNL     1      43.874  26.119  85.910  0.00  0.00    +0.000 C 
ATOM     16  C   UNL     1      41.098  21.848  84.423  0.00  0.00    +0.000 C 
ATOM     17  C   UNL     1      40.536  23.885  82.117  0.00  0.00    +0.000 C 
ATOM     18  C   UNL     1      44.735  24.598  82.912  0.00  0.00    +0.000 C 
ATOM     19  C   UNL     1      43.605  21.482  83.961  0.00  0.00    +0.000 C 
ATOM     20  C   UNL     1      45.816  24.951  84.826  0.00  0.00    +0.000 C 
ATOM     21  C   UNL     1      45.941  24.766  83.343  0.00  0.00    +0.000 C 
ATOM     22  C   UNL     1      47.071  25.236  82.487  0.00  0.00    +0.000 C 
ENDROOT
BRANCH  13  23
ATOM     23  C   UNL     1      38.497  22.080  84.292  0.00  0.00    +0.000 C 
ATOM     24  C   UNL     1      37.762  20.939  83.591  0.00  0.00    +0.000 C 
ATOM     25  C   UNL     1      37.669  22.755  85.115  0.00  0.00    +0.000 C 
ENDBRANCH  13  23
BRANCH  14  26
ATOM     26  O   UNL     1      44.072  23.782  86.132  0.00  0.00    +0.000 OA
ATOM     27  H   UNL     1      44.750  23.100  85.956  0.00  0.00    +0.000 HD
ENDBRANCH  14  26
BRANCH  15  28
ATOM     28  O   UNL     1      44.732  26.649  86.877  0.00  0.00    +0.000 OA
ATOM     29  H   UNL     1      44.298  26.918  87.715  0.00  0.00    +0.000 HD
ENDBRANCH  15  28
BRANCH  17  30
ATOM     30  C   UNL     1      40.258  24.156  80.710  0.00  0.00    +0.000 C 
ATOM     31  C   UNL     1      40.031  24.377  79.552  0.00  0.00    +0.000 C 
BRANCH  31  32
ATOM     32  C   UNL     1      39.741  24.658  78.075  0.00  0.00    +0.000 C 
ATOM     33  C   UNL     1      39.515  24.878  76.917  0.00  0.00    +0.000 C 
BRANCH  33  34
ATOM     34  C   UNL     1      39.228  25.159  75.439  0.00  0.00    +0.000 C 
ATOM     35  C   UNL     1      38.943  25.442  73.962  0.00  0.00    +0.000 C 
BRANCH  35  36
ATOM     36  C   UNL     1      38.659  25.724  72.482  0.00  0.00    +0.000 C 
ATOM     37  C   UNL     1      38.374  26.006  71.004  0.00  0.00    +0.000 C 
ATOM     38  C   UNL     1      38.089  26.290  69.526  0.00  0.00    +0.000 C 
ENDBRANCH  35  36
ENDBRANCH  33  34
ENDBRANCH  31  32
ENDBRANCH  17  30
BRANCH  16  39
ATOM     39  O   UNL     1      41.051  20.645  85.148  0.00  0.00    +0.000 OA
BRANCH  39  41
ATOM     40  O   UNL     1      41.936  21.262  87.177  0.00  0.00    +0.000 OA
ATOM     41  C   UNL     1      41.027  20.807  86.504  0.00  0.00    +0.000 C 
BRANCH  41  42
ATOM     42  C   UNL     1      39.754  20.309  87.056  0.00  0.00    +0.000 A 
ATOM     43  C   UNL     1      39.101  20.972  88.095  0.00  0.00    +0.000 A 
ATOM     44  C   UNL     1      39.207  19.149  86.511  0.00  0.00    +0.000 A 
ATOM     45  C   UNL     1      37.899  20.471  88.589  0.00  0.00    +0.000 A 
ATOM     46  C   UNL     1      38.005  18.651  87.007  0.00  0.00    +0.000 A 
ATOM     47  C   UNL     1      37.352  19.312  88.045  0.00  0.00    +0.000 A 
ENDBRANCH  41  42
ENDBRANCH  39  41
ENDBRANCH  16  39
BRANCH   9  48
ATOM     48  C   UNL     1      42.200  27.886  86.556  0.00  0.00    +0.000 C 
BRANCH  48  49
ATOM     49  O   UNL     1      41.900  28.949  87.298  0.00  0.00    +0.000 OA
ATOM     50  H   UNL     1      42.550  29.057  88.014  0.00  0.00    +0.000 HD
ENDBRANCH  48  49
ENDBRANCH   9  48
TORSDOF 12
ENDMDL
MODEL 4
REMARK VINA RESULT:      -5.6     22.747     25.463
REMARK  Name = 5358691_Yuanhuacine.pdbqt.pdb
REMARK  12 active torsions:
REMARK  status: ('A' for Active; 'I' for Inactive)
REMARK    1  A    between atoms: C_9  and  C_48
REMARK    2  A    between atoms: C_13  and  C_23
REMARK    3  A    between atoms: C_14  and  O_26
REMARK    4  A    between atoms: C_15  and  O_28
REMARK    5  A    between atoms: C_16  and  O_39
REMARK    6  A    between atoms: C_17  and  C_30
REMARK    7  A    between atoms: C_31  and  C_32
REMARK    8  A    between atoms: C_33  and  C_34
REMARK    9  A    between atoms: C_35  and  C_36
REMARK   10  A    between atoms: O_39  and  C_41
REMARK   11  A    between atoms: C_41  and  C_42
REMARK   12  A    between atoms: C_48  and  O_49
REMARK                            x       y       z     vdW  Elec       q    Type
REMARK                         _______ _______ _______ _____ _____    ______ ____
ROOT
ATOM      1  O   UNL     1      41.947  26.896  84.454  0.00  0.00    +0.000 OA
ATOM      2  O   UNL     1      41.896  24.051  82.414  0.00  0.00    +0.000 OA
ATOM      3  O   UNL     1      39.731  24.846  82.970  0.00  0.00    +0.000 OA
ATOM      4  O   UNL     1      40.008  22.617  82.509  0.00  0.00    +0.000 OA
ATOM      5  O   UNL     1      46.667  25.088  85.708  0.00  0.00    +0.000 OA
ATOM      6  C   UNL     1      41.235  24.671  84.669  0.00  0.00    +0.000 C 
ATOM      7  C   UNL     1      42.284  23.940  83.818  0.00  0.00    +0.000 C 
ATOM      8  C   UNL     1      41.387  25.958  85.285  0.00  0.00    +0.000 C 
ATOM      9  C   UNL     1      42.513  26.761  85.765  0.00  0.00    +0.000 C 
ATOM     10  C   UNL     1      39.927  24.204  84.192  0.00  0.00    +0.000 C 
ATOM     11  C   UNL     1      43.645  24.552  83.949  0.00  0.00    +0.000 C 
ATOM     12  C   UNL     1      42.283  22.433  84.214  0.00  0.00    +0.000 C 
ATOM     13  C   UNL     1      39.783  22.682  83.946  0.00  0.00    +0.000 C 
ATOM     14  C   UNL     1      44.251  24.833  85.306  0.00  0.00    +0.000 C 
ATOM     15  C   UNL     1      43.846  26.126  85.951  0.00  0.00    +0.000 C 
ATOM     16  C   UNL     1      40.960  21.910  84.516  0.00  0.00    +0.000 C 
ATOM     17  C   UNL     1      40.475  23.921  82.169  0.00  0.00    +0.000 C 
ATOM     18  C   UNL     1      44.687  24.527  82.987  0.00  0.00    +0.000 C 
ATOM     19  C   UNL     1      43.458  21.464  84.081  0.00  0.00    +0.000 C 
ATOM     20  C   UNL     1      45.762  24.883  84.903  0.00  0.00    +0.000 C 
ATOM     21  C   UNL     1      45.893  24.669  83.424  0.00  0.00    +0.000 C 
ATOM     22  C   UNL     1      47.042  25.091  82.570  0.00  0.00    +0.000 C 
ENDROOT
BRANCH  13  23
ATOM     23  C   UNL     1      38.368  22.214  84.359  0.00  0.00    +0.000 C 
ATOM     24  C   UNL     1      37.637  21.031  83.726  0.00  0.00    +0.000 C 
ATOM     25  C   UNL     1      37.526  22.958  85.105  0.00  0.00    +0.000 C 
ENDBRANCH  13  23
BRANCH  14  26
ATOM     26  O   UNL     1      43.974  23.788  86.215  0.00  0.00    +0.000 OA
ATOM     27  H   UNL     1      43.619  23.039  85.696  0.00  0.00    +0.000 HD
ENDBRANCH  14  26
BRANCH  15  28
ATOM     28  O   UNL     1      44.712  26.648  86.915  0.00  0.00    +0.000 OA
ATOM     29  H   UNL     1      44.503  27.561  87.208  0.00  0.00    +0.000 HD
ENDBRANCH  15  28
BRANCH  17  30
ATOM     30  C   UNL     1      40.215  24.174  80.755  0.00  0.00    +0.000 C 
ATOM     31  C   UNL     1      40.001  24.381  79.593  0.00  0.00    +0.000 C 
BRANCH  31  32
ATOM     32  C   UNL     1      39.726  24.644  78.110  0.00  0.00    +0.000 C 
ATOM     33  C   UNL     1      39.510  24.850  76.947  0.00  0.00    +0.000 C 
BRANCH  33  34
ATOM     34  C   UNL     1      39.235  25.110  75.462  0.00  0.00    +0.000 C 
ATOM     35  C   UNL     1      38.960  25.369  73.979  0.00  0.00    +0.000 C 
BRANCH  35  36
ATOM     36  C   UNL     1      38.683  25.628  72.494  0.00  0.00    +0.000 C 
ATOM     37  C   UNL     1      38.405  25.889  71.011  0.00  0.00    +0.000 C 
ATOM     38  C   UNL     1      38.127  26.150  69.527  0.00  0.00    +0.000 C 
ENDBRANCH  35  36
ENDBRANCH  33  34
ENDBRANCH  31  32
ENDBRANCH  17  30
BRANCH  16  39
ATOM     39  O   UNL     1      40.873  20.723  85.261  0.00  0.00    +0.000 OA
BRANCH  39  41
ATOM     40  O   UNL     1      40.078  21.518  87.265  0.00  0.00    +0.000 OA
ATOM     41  C   UNL     1      40.907  20.905  86.614  0.00  0.00    +0.000 C 
BRANCH  41  42
ATOM     42  C   UNL     1      42.119  20.290  87.183  0.00  0.00    +0.000 A 
ATOM     43  C   UNL     1      42.539  19.015  86.802  0.00  0.00    +0.000 A 
ATOM     44  C   UNL     1      42.850  21.017  88.122  0.00  0.00    +0.000 A 
ATOM     45  C   UNL     1      43.692  18.469  87.361  0.00  0.00    +0.000 A 
ATOM     46  C   UNL     1      44.002  20.468  88.679  0.00  0.00    +0.000 A 
ATOM     47  C   UNL     1      44.422  19.195  88.299  0.00  0.00    +0.000 A 
ENDBRANCH  41  42
ENDBRANCH  39  41
ENDBRANCH  16  39
BRANCH   9  48
ATOM     48  C   UNL     1      42.218  27.951  86.551  0.00  0.00    +0.000 C 
BRANCH  48  49
ATOM     49  O   UNL     1      41.944  29.036  87.271  0.00  0.00    +0.000 OA
ATOM     50  H   UNL     1      42.578  29.746  87.071  0.00  0.00    +0.000 HD
ENDBRANCH  48  49
ENDBRANCH   9  48
TORSDOF 12
ENDMDL
MODEL 5
REMARK VINA RESULT:      -5.5      2.343      3.888
REMARK  Name = 5358691_Yuanhuacine.pdbqt.pdb
REMARK  12 active torsions:
REMARK  status: ('A' for Active; 'I' for Inactive)
REMARK    1  A    between atoms: C_9  and  C_48
REMARK    2  A    between atoms: C_13  and  C_23
REMARK    3  A    between atoms: C_14  and  O_26
REMARK    4  A    between atoms: C_15  and  O_28
REMARK    5  A    between atoms: C_16  and  O_39
REMARK    6  A    between atoms: C_17  and  C_30
REMARK    7  A    between atoms: C_31  and  C_32
REMARK    8  A    between atoms: C_33  and  C_34
REMARK    9  A    between atoms: C_35  and  C_36
REMARK   10  A    between atoms: O_39  and  C_41
REMARK   11  A    between atoms: C_41  and  C_42
REMARK   12  A    between atoms: C_48  and  O_49
REMARK                            x       y       z     vdW  Elec       q    Type
REMARK                         _______ _______ _______ _____ _____    ______ ____
ROOT
ATOM      1  O   UNL     1      61.442  34.449  66.980  0.00  0.00    +0.000 OA
ATOM      2  O   UNL     1      61.374  31.016  67.666  0.00  0.00    +0.000 OA
ATOM      3  O   UNL     1      59.571  32.207  68.649  0.00  0.00    +0.000 OA
ATOM      4  O   UNL     1      60.298  30.275  69.648  0.00  0.00    +0.000 OA
ATOM      5  O   UNL     1      66.514  33.520  66.256  0.00  0.00    +0.000 OA
ATOM      6  C   UNL     1      61.650  33.100  68.888  0.00  0.00    +0.000 C 
ATOM      7  C   UNL     1      62.368  31.873  68.306  0.00  0.00    +0.000 C 
ATOM      8  C   UNL     1      61.649  34.425  68.336  0.00  0.00    +0.000 C 
ATOM      9  C   UNL     1      62.551  35.204  67.486  0.00  0.00    +0.000 C 
ATOM     10  C   UNL     1      60.492  32.581  69.626  0.00  0.00    +0.000 C 
ATOM     11  C   UNL     1      63.368  32.249  67.256  0.00  0.00    +0.000 C 
ATOM     12  C   UNL     1      63.025  31.081  69.477  0.00  0.00    +0.000 C 
ATOM     13  C   UNL     1      60.742  31.347  70.526  0.00  0.00    +0.000 C 
ATOM     14  C   UNL     1      64.401  33.326  67.504  0.00  0.00    +0.000 C 
ATOM     15  C   UNL     1      63.946  34.736  67.266  0.00  0.00    +0.000 C 
ATOM     16  C   UNL     1      62.225  31.067  70.691  0.00  0.00    +0.000 C 
ATOM     17  C   UNL     1      60.119  30.911  68.384  0.00  0.00    +0.000 C 
ATOM     18  C   UNL     1      63.807  31.445  66.172  0.00  0.00    +0.000 C 
ATOM     19  C   UNL     1      64.250  30.172  69.377  0.00  0.00    +0.000 C 
ATOM     20  C   UNL     1      65.460  32.914  66.428  0.00  0.00    +0.000 C 
ATOM     21  C   UNL     1      64.965  31.717  65.672  0.00  0.00    +0.000 C 
ATOM     22  C   UNL     1      65.402  31.294  64.307  0.00  0.00    +0.000 C 
ENDROOT
BRANCH  13  23
ATOM     23  C   UNL     1      59.899  31.459  71.818  0.00  0.00    +0.000 C 
ATOM     24  C   UNL     1      59.084  32.692  72.206  0.00  0.00    +0.000 C 
ATOM     25  C   UNL     1      60.017  30.611  72.861  0.00  0.00    +0.000 C 
ENDBRANCH  13  23
BRANCH  14  26
ATOM     26  O   UNL     1      64.913  33.249  68.817  0.00  0.00    +0.000 OA
ATOM     27  H   UNL     1      65.861  33.483  68.773  0.00  0.00    +0.000 HD
ENDBRANCH  14  26
BRANCH  15  28
ATOM     28  O   UNL     1      64.940  35.683  67.003  0.00  0.00    +0.000 OA
ATOM     29  H   UNL     1      64.824  36.543  67.460  0.00  0.00    +0.000 HD
ENDBRANCH  15  28
BRANCH  17  30
ATOM     30  C   UNL     1      59.181  30.134  67.579  0.00  0.00    +0.000 C 
ATOM     31  C   UNL     1      58.412  29.495  66.916  0.00  0.00    +0.000 C 
BRANCH  31  32
ATOM     32  C   UNL     1      57.431  28.679  66.070  0.00  0.00    +0.000 C 
ATOM     33  C   UNL     1      56.662  28.039  65.406  0.00  0.00    +0.000 C 
BRANCH  33  34
ATOM     34  C   UNL     1      55.684  27.222  64.557  0.00  0.00    +0.000 C 
ATOM     35  C   UNL     1      54.705  26.405  63.710  0.00  0.00    +0.000 C 
BRANCH  35  36
ATOM     36  C   UNL     1      53.724  25.588  62.861  0.00  0.00    +0.000 C 
ATOM     37  C   UNL     1      52.744  24.771  62.014  0.00  0.00    +0.000 C 
ATOM     38  C   UNL     1      51.764  23.953  61.168  0.00  0.00    +0.000 C 
ENDBRANCH  35  36
ENDBRANCH  33  34
ENDBRANCH  31  32
ENDBRANCH  17  30
BRANCH  16  39
ATOM     39  O   UNL     1      62.867  30.754  71.902  0.00  0.00    +0.000 OA
BRANCH  39  41
ATOM     40  O   UNL     1      64.919  31.716  72.279  0.00  0.00    +0.000 OA
ATOM     41  C   UNL     1      63.703  31.730  72.363  0.00  0.00    +0.000 C 
BRANCH  41  42
ATOM     42  C   UNL     1      62.930  32.796  73.025  0.00  0.00    +0.000 A 
ATOM     43  C   UNL     1      62.672  34.011  72.391  0.00  0.00    +0.000 A 
ATOM     44  C   UNL     1      62.453  32.563  74.314  0.00  0.00    +0.000 A 
ATOM     45  C   UNL     1      61.935  34.994  73.049  0.00  0.00    +0.000 A 
ATOM     46  C   UNL     1      61.717  33.546  74.969  0.00  0.00    +0.000 A 
ATOM     47  C   UNL     1      61.459  34.761  74.336  0.00  0.00    +0.000 A 
ENDBRANCH  41  42
ENDBRANCH  39  41
ENDBRANCH  16  39
BRANCH   9  48
ATOM     48  C   UNL     1      62.285  36.628  67.331  0.00  0.00    +0.000 C 
BRANCH  48  49
ATOM     49  O   UNL     1      62.037  37.927  67.188  0.00  0.00    +0.000 OA
ATOM     50  H   UNL     1      61.097  38.073  66.986  0.00  0.00    +0.000 HD
ENDBRANCH  48  49
ENDBRANCH   9  48
TORSDOF 12
ENDMDL
MODEL 6
REMARK VINA RESULT:      -5.5     18.058     20.540
REMARK  Name = 5358691_Yuanhuacine.pdbqt.pdb
REMARK  12 active torsions:
REMARK  status: ('A' for Active; 'I' for Inactive)
REMARK    1  A    between atoms: C_9  and  C_48
REMARK    2  A    between atoms: C_13  and  C_23
REMARK    3  A    between atoms: C_14  and  O_26
REMARK    4  A    between atoms: C_15  and  O_28
REMARK    5  A    between atoms: C_16  and  O_39
REMARK    6  A    between atoms: C_17  and  C_30
REMARK    7  A    between atoms: C_31  and  C_32
REMARK    8  A    between atoms: C_33  and  C_34
REMARK    9  A    between atoms: C_35  and  C_36
REMARK   10  A    between atoms: O_39  and  C_41
REMARK   11  A    between atoms: C_41  and  C_42
REMARK   12  A    between atoms: C_48  and  O_49
REMARK                            x       y       z     vdW  Elec       q    Type
REMARK                         _______ _______ _______ _____ _____    ______ ____
ROOT
ATOM      1  O   UNL     1      51.704  21.345  78.586  0.00  0.00    +0.000 OA
ATOM      2  O   UNL     1      51.020  18.458  80.446  0.00  0.00    +0.000 OA
ATOM      3  O   UNL     1      51.607  20.325  81.790  0.00  0.00    +0.000 OA
ATOM      4  O   UNL     1      52.033  18.214  82.578  0.00  0.00    +0.000 OA
ATOM      5  O   UNL     1      52.670  17.878  74.822  0.00  0.00    +0.000 OA
ATOM      6  C   UNL     1      52.920  19.902  79.980  0.00  0.00    +0.000 C 
ATOM      7  C   UNL     1      52.252  18.555  79.667  0.00  0.00    +0.000 C 
ATOM      8  C   UNL     1      52.929  21.063  79.136  0.00  0.00    +0.000 C 
ATOM      9  C   UNL     1      52.828  21.309  77.696  0.00  0.00    +0.000 C 
ATOM     10  C   UNL     1      52.923  20.024  81.443  0.00  0.00    +0.000 C 
ATOM     11  C   UNL     1      51.871  18.435  78.223  0.00  0.00    +0.000 C 
ATOM     12  C   UNL     1      53.210  17.410  80.113  0.00  0.00    +0.000 C 
ATOM     13  C   UNL     1      53.337  18.764  82.242  0.00  0.00    +0.000 C 
ATOM     14  C   UNL     1      52.863  18.737  77.122  0.00  0.00    +0.000 C 
ATOM     15  C   UNL     1      53.000  20.181  76.741  0.00  0.00    +0.000 C 
ATOM     16  C   UNL     1      53.938  17.702  81.337  0.00  0.00    +0.000 C 
ATOM     17  C   UNL     1      51.119  18.978  81.795  0.00  0.00    +0.000 C 
ATOM     18  C   UNL     1      50.823  17.647  77.681  0.00  0.00    +0.000 C 
ATOM     19  C   UNL     1      53.260  15.996  79.532  0.00  0.00    +0.000 C 
ATOM     20  C   UNL     1      52.198  17.933  75.955  0.00  0.00    +0.000 C 
ATOM     21  C   UNL     1      50.933  17.294  76.445  0.00  0.00    +0.000 C 
ATOM     22  C   UNL     1      49.783  16.855  75.600  0.00  0.00    +0.000 C 
ENDROOT
BRANCH  13  23
ATOM     23  C   UNL     1      54.160  19.177  83.485  0.00  0.00    +0.000 C 
ATOM     24  C   UNL     1      54.189  18.388  84.793  0.00  0.00    +0.000 C 
ATOM     25  C   UNL     1      54.701  20.402  83.648  0.00  0.00    +0.000 C 
ENDBRANCH  13  23
BRANCH  14  26
ATOM     26  O   UNL     1      54.148  18.248  77.444  0.00  0.00    +0.000 OA
ATOM     27  H   UNL     1      54.034  17.342  77.792  0.00  0.00    +0.000 HD
ENDBRANCH  14  26
BRANCH  15  28
ATOM     28  O   UNL     1      53.494  20.452  75.462  0.00  0.00    +0.000 OA
ATOM     29  H   UNL     1      54.280  19.926  75.202  0.00  0.00    +0.000 HD
ENDBRANCH  15  28
BRANCH  17  30
ATOM     30  C   UNL     1      49.797  18.935  82.413  0.00  0.00    +0.000 C 
ATOM     31  C   UNL     1      48.710  18.900  82.919  0.00  0.00    +0.000 C 
BRANCH  31  32
ATOM     32  C   UNL     1      47.322  18.855  83.564  0.00  0.00    +0.000 C 
ATOM     33  C   UNL     1      46.234  18.820  84.070  0.00  0.00    +0.000 C 
BRANCH  33  34
ATOM     34  C   UNL     1      44.845  18.778  84.716  0.00  0.00    +0.000 C 
ATOM     35  C   UNL     1      43.458  18.737  85.362  0.00  0.00    +0.000 C 
BRANCH  35  36
ATOM     36  C   UNL     1      42.069  18.696  86.008  0.00  0.00    +0.000 C 
ATOM     37  C   UNL     1      40.681  18.657  86.653  0.00  0.00    +0.000 C 
ATOM     38  C   UNL     1      39.292  18.618  87.298  0.00  0.00    +0.000 C 
ENDBRANCH  35  36
ENDBRANCH  33  34
ENDBRANCH  31  32
ENDBRANCH  17  30
BRANCH  16  39
ATOM     39  O   UNL     1      55.098  16.958  81.611  0.00  0.00    +0.000 OA
BRANCH  39  41
ATOM     40  O   UNL     1      56.481  17.110  79.782  0.00  0.00    +0.000 OA
ATOM     41  C   UNL     1      56.208  17.382  80.939  0.00  0.00    +0.000 C 
BRANCH  41  42
ATOM     42  C   UNL     1      57.067  18.188  81.825  0.00  0.00    +0.000 A 
ATOM     43  C   UNL     1      57.523  19.451  81.449  0.00  0.00    +0.000 A 
ATOM     44  C   UNL     1      57.419  17.657  83.065  0.00  0.00    +0.000 A 
ATOM     45  C   UNL     1      58.331  20.183  82.316  0.00  0.00    +0.000 A 
ATOM     46  C   UNL     1      58.227  18.390  83.930  0.00  0.00    +0.000 A 
ATOM     47  C   UNL     1      58.682  19.652  83.555  0.00  0.00    +0.000 A 
ENDBRANCH  41  42
ENDBRANCH  39  41
ENDBRANCH  16  39
BRANCH   9  48
ATOM     48  C   UNL     1      53.112  22.653  77.211  0.00  0.00    +0.000 C 
BRANCH  48  49
ATOM     49  O   UNL     1      53.377  23.878  76.765  0.00  0.00    +0.000 OA
ATOM     50  H   UNL     1      54.317  24.091  76.893  0.00  0.00    +0.000 HD
ENDBRANCH  48  49
ENDBRANCH   9  48
TORSDOF 12
ENDMDL
MODEL 7
REMARK VINA RESULT:      -5.5     63.070     66.403
REMARK  Name = 5358691_Yuanhuacine.pdbqt.pdb
REMARK  12 active torsions:
REMARK  status: ('A' for Active; 'I' for Inactive)
REMARK    1  A    between atoms: C_9  and  C_48
REMARK    2  A    between atoms: C_13  and  C_23
REMARK    3  A    between atoms: C_14  and  O_26
REMARK    4  A    between atoms: C_15  and  O_28
REMARK    5  A    between atoms: C_16  and  O_39
REMARK    6  A    between atoms: C_17  and  C_30
REMARK    7  A    between atoms: C_31  and  C_32
REMARK    8  A    between atoms: C_33  and  C_34
REMARK    9  A    between atoms: C_35  and  C_36
REMARK   10  A    between atoms: O_39  and  C_41
REMARK   11  A    between atoms: C_41  and  C_42
REMARK   12  A    between atoms: C_48  and  O_49
REMARK                            x       y       z     vdW  Elec       q    Type
REMARK                         _______ _______ _______ _____ _____    ______ ____
ROOT
ATOM      1  O   UNL     1       1.041  15.380  98.207  0.00  0.00    +0.000 OA
ATOM      2  O   UNL     1       3.427  13.137  96.969  0.00  0.00    +0.000 OA
ATOM      3  O   UNL     1       3.298  13.158  99.339  0.00  0.00    +0.000 OA
ATOM      4  O   UNL     1       5.279  12.577  98.342  0.00  0.00    +0.000 OA
ATOM      5  O   UNL     1       1.805  17.689  93.603  0.00  0.00    +0.000 OA
ATOM      6  C   UNL     1       3.376  15.177  98.291  0.00  0.00    +0.000 C 
ATOM      7  C   UNL     1       3.671  14.576  96.909  0.00  0.00    +0.000 C 
ATOM      8  C   UNL     1       2.213  15.933  98.659  0.00  0.00    +0.000 C 
ATOM      9  C   UNL     1       1.248  16.776  97.952  0.00  0.00    +0.000 C 
ATOM     10  C   UNL     1       4.066  14.319  99.262  0.00  0.00    +0.000 C 
ATOM     11  C   UNL     1       2.772  15.132  95.847  0.00  0.00    +0.000 C 
ATOM     12  C   UNL     1       5.176  14.809  96.576  0.00  0.00    +0.000 C 
ATOM     13  C   UNL     1       5.513  13.897  98.908  0.00  0.00    +0.000 C 
ATOM     14  C   UNL     1       2.580  16.623  95.682  0.00  0.00    +0.000 C 
ATOM     15  C   UNL     1       1.554  17.255  96.576  0.00  0.00    +0.000 C 
ATOM     16  C   UNL     1       6.053  14.688  97.730  0.00  0.00    +0.000 C 
ATOM     17  C   UNL     1       3.863  12.504  98.197  0.00  0.00    +0.000 C 
ATOM     18  C   UNL     1       2.377  14.491  94.645  0.00  0.00    +0.000 C 
ATOM     19  C   UNL     1       5.787  14.908  95.178  0.00  0.00    +0.000 C 
ATOM     20  C   UNL     1       2.090  16.653  94.196  0.00  0.00    +0.000 C 
ATOM     21  C   UNL     1       2.016  15.252  93.666  0.00  0.00    +0.000 C 
ATOM     22  C   UNL     1       1.185  14.787  92.515  0.00  0.00    +0.000 C 
ENDROOT
BRANCH  13  23
ATOM     23  C   UNL     1       6.379  13.862 100.189  0.00  0.00    +0.000 C 
ATOM     24  C   UNL     1       6.274  14.880 101.323  0.00  0.00    +0.000 C 
ATOM     25  C   UNL     1       7.496  13.115 100.312  0.00  0.00    +0.000 C 
ENDBRANCH  13  23
BRANCH  14  26
ATOM     26  O   UNL     1       3.797  17.316  95.858  0.00  0.00    +0.000 OA
ATOM     27  H   UNL     1       3.613  18.085  96.434  0.00  0.00    +0.000 HD
ENDBRANCH  14  26
BRANCH  15  28
ATOM     28  O   UNL     1       1.002  18.464  96.146  0.00  0.00    +0.000 OA
ATOM     29  H   UNL     1       1.489  19.267  96.431  0.00  0.00    +0.000 HD
ENDBRANCH  15  28
BRANCH  17  30
ATOM     30  C   UNL     1       3.449  11.104  98.177  0.00  0.00    +0.000 C 
ATOM     31  C   UNL     1       3.111   9.953  98.160  0.00  0.00    +0.000 C 
BRANCH  31  32
ATOM     32  C   UNL     1       2.680   8.484  98.140  0.00  0.00    +0.000 C 
ATOM     33  C   UNL     1       2.342   7.332  98.125  0.00  0.00    +0.000 C 
BRANCH  33  34
ATOM     34  C   UNL     1       1.907   5.863  98.105  0.00  0.00    +0.000 C 
ATOM     35  C   UNL     1       1.474   4.395  98.087  0.00  0.00    +0.000 C 
BRANCH  35  36
ATOM     36  C   UNL     1       1.039   2.926  98.069  0.00  0.00    +0.000 C 
ATOM     37  C   UNL     1       0.603   1.458  98.052  0.00  0.00    +0.000 C 
ATOM     38  C   UNL     1       0.165  -0.010  98.034  0.00  0.00    +0.000 C 
ENDBRANCH  35  36
ENDBRANCH  33  34
ENDBRANCH  31  32
ENDBRANCH  17  30
BRANCH  16  39
ATOM     39  O   UNL     1       7.333  15.263  97.651  0.00  0.00    +0.000 OA
BRANCH  39  41
ATOM     40  O   UNL     1       6.630  17.389  98.166  0.00  0.00    +0.000 OA
ATOM     41  C   UNL     1       7.439  16.481  98.258  0.00  0.00    +0.000 C 
BRANCH  41  42
ATOM     42  C   UNL     1       8.702  16.568  99.013  0.00  0.00    +0.000 A 
ATOM     43  C   UNL     1       9.769  15.709  98.751  0.00  0.00    +0.000 A 
ATOM     44  C   UNL     1       8.812  17.541 100.006  0.00  0.00    +0.000 A 
ATOM     45  C   UNL     1      10.948  15.824  99.485  0.00  0.00    +0.000 A 
ATOM     46  C   UNL     1       9.991  17.653 100.737  0.00  0.00    +0.000 A 
ATOM     47  C   UNL     1      11.058  16.796 100.477  0.00  0.00    +0.000 A 
ENDBRANCH  41  42
ENDBRANCH  39  41
ENDBRANCH  16  39
BRANCH   9  48
ATOM     48  C   UNL     1       0.316  17.564  98.747  0.00  0.00    +0.000 C 
BRANCH  48  49
ATOM     49  O   UNL     1      -0.533  18.288  99.471  0.00  0.00    +0.000 OA
ATOM     50  H   UNL     1      -0.145  18.503 100.337  0.00  0.00    +0.000 HD
ENDBRANCH  48  49
ENDBRANCH   9  48
TORSDOF 12
ENDMDL
MODEL 8
REMARK VINA RESULT:      -5.5     23.120     25.734
REMARK  Name = 5358691_Yuanhuacine.pdbqt.pdb
REMARK  12 active torsions:
REMARK  status: ('A' for Active; 'I' for Inactive)
REMARK    1  A    between atoms: C_9  and  C_48
REMARK    2  A    between atoms: C_13  and  C_23
REMARK    3  A    between atoms: C_14  and  O_26
REMARK    4  A    between atoms: C_15  and  O_28
REMARK    5  A    between atoms: C_16  and  O_39
REMARK    6  A    between atoms: C_17  and  C_30
REMARK    7  A    between atoms: C_31  and  C_32
REMARK    8  A    between atoms: C_33  and  C_34
REMARK    9  A    between atoms: C_35  and  C_36
REMARK   10  A    between atoms: O_39  and  C_41
REMARK   11  A    between atoms: C_41  and  C_42
REMARK   12  A    between atoms: C_48  and  O_49
REMARK                            x       y       z     vdW  Elec       q    Type
REMARK                         _______ _______ _______ _____ _____    ______ ____
ROOT
ATOM      1  O   UNL     1      42.383  25.933  83.098  0.00  0.00    +0.000 OA
ATOM      2  O   UNL     1      41.887  22.526  82.461  0.00  0.00    +0.000 OA
ATOM      3  O   UNL     1      39.947  23.842  82.095  0.00  0.00    +0.000 OA
ATOM      4  O   UNL     1      39.697  21.637  82.672  0.00  0.00    +0.000 OA
ATOM      5  O   UNL     1      46.239  24.122  86.094  0.00  0.00    +0.000 OA
ATOM      6  C   UNL     1      41.093  24.207  84.026  0.00  0.00    +0.000 C 
ATOM      7  C   UNL     1      42.026  23.003  83.834  0.00  0.00    +0.000 C 
ATOM      8  C   UNL     1      41.485  25.587  84.076  0.00  0.00    +0.000 C 
ATOM      9  C   UNL     1      42.700  26.316  84.443  0.00  0.00    +0.000 C 
ATOM     10  C   UNL     1      39.792  23.804  83.479  0.00  0.00    +0.000 C 
ATOM     11  C   UNL     1      43.466  23.366  84.031  0.00  0.00    +0.000 C 
ATOM     12  C   UNL     1      41.576  21.866  84.801  0.00  0.00    +0.000 C 
ATOM     13  C   UNL     1      39.293  22.387  83.852  0.00  0.00    +0.000 C 
ATOM     14  C   UNL     1      43.924  24.126  85.256  0.00  0.00    +0.000 C 
ATOM     15  C   UNL     1      43.781  25.619  85.193  0.00  0.00    +0.000 C 
ATOM     16  C   UNL     1      40.134  21.772  84.957  0.00  0.00    +0.000 C 
ATOM     17  C   UNL     1      40.531  22.542  81.952  0.00  0.00    +0.000 C 
ATOM     18  C   UNL     1      44.593  22.729  83.450  0.00  0.00    +0.000 C 
ATOM     19  C   UNL     1      42.465  20.759  85.369  0.00  0.00    +0.000 C 
ATOM     20  C   UNL     1      45.437  23.730  85.250  0.00  0.00    +0.000 C 
ATOM     21  C   UNL     1      45.718  22.847  84.071  0.00  0.00    +0.000 C 
ATOM     22  C   UNL     1      47.049  22.631  83.428  0.00  0.00    +0.000 C 
ENDROOT
BRANCH  13  23
ATOM     23  C   UNL     1      37.761  22.406  84.062  0.00  0.00    +0.000 C 
ATOM     24  C   UNL     1      36.835  21.237  83.729  0.00  0.00    +0.000 C 
ATOM     25  C   UNL     1      37.054  23.533  84.285  0.00  0.00    +0.000 C 
ENDBRANCH  13  23
BRANCH  14  26
ATOM     26  O   UNL     1      43.257  23.675  86.415  0.00  0.00    +0.000 OA
ATOM     27  H   UNL     1      42.300  23.814  86.273  0.00  0.00    +0.000 HD
ENDBRANCH  14  26
BRANCH  15  28
ATOM     28  O   UNL     1      44.605  26.367  86.037  0.00  0.00    +0.000 OA
ATOM     29  H   UNL     1      44.794  27.280  85.729  0.00  0.00    +0.000 HD
ENDBRANCH  15  28
BRANCH  17  30
ATOM     30  C   UNL     1      40.553  22.164  80.543  0.00  0.00    +0.000 C 
ATOM     31  C   UNL     1      40.570  21.851  79.384  0.00  0.00    +0.000 C 
BRANCH  31  32
ATOM     32  C   UNL     1      40.592  21.450  77.907  0.00  0.00    +0.000 C 
ATOM     33  C   UNL     1      40.610  21.136  76.748  0.00  0.00    +0.000 C 
BRANCH  33  34
ATOM     34  C   UNL     1      40.635  20.736  75.270  0.00  0.00    +0.000 C 
ATOM     35  C   UNL     1      40.661  20.335  73.793  0.00  0.00    +0.000 C 
BRANCH  35  36
ATOM     36  C   UNL     1      40.687  19.933  72.314  0.00  0.00    +0.000 C 
ATOM     37  C   UNL     1      40.713  19.530  70.837  0.00  0.00    +0.000 C 
ATOM     38  C   UNL     1      40.739  19.126  69.359  0.00  0.00    +0.000 C 
ENDBRANCH  35  36
ENDBRANCH  33  34
ENDBRANCH  31  32
ENDBRANCH  17  30
BRANCH  16  39
ATOM     39  O   UNL     1      39.634  21.088  86.079  0.00  0.00    +0.000 OA
BRANCH  39  41
ATOM     40  O   UNL     1      38.682  22.789  87.296  0.00  0.00    +0.000 OA
ATOM     41  C   UNL     1      39.474  21.869  87.188  0.00  0.00    +0.000 C 
BRANCH  41  42
ATOM     42  C   UNL     1      40.433  21.473  88.235  0.00  0.00    +0.000 A 
ATOM     43  C   UNL     1      41.171  22.420  88.945  0.00  0.00    +0.000 A 
ATOM     44  C   UNL     1      40.590  20.114  88.507  0.00  0.00    +0.000 A 
ATOM     45  C   UNL     1      42.066  22.006  89.929  0.00  0.00    +0.000 A 
ATOM     46  C   UNL     1      41.485  19.704  89.491  0.00  0.00    +0.000 A 
ATOM     47  C   UNL     1      42.222  20.649  90.200  0.00  0.00    +0.000 A 
ENDBRANCH  41  42
ENDBRANCH  39  41
ENDBRANCH  16  39
BRANCH   9  48
ATOM     48  C   UNL     1      42.616  27.764  84.573  0.00  0.00    +0.000 C 
BRANCH  48  49
ATOM     49  O   UNL     1      42.534  29.086  84.695  0.00  0.00    +0.000 OA
ATOM     50  H   UNL     1      41.673  29.340  85.071  0.00  0.00    +0.000 HD
ENDBRANCH  48  49
ENDBRANCH   9  48
TORSDOF 12
ENDMDL
MODEL 9
REMARK VINA RESULT:      -5.4     22.229     26.300
REMARK  Name = 5358691_Yuanhuacine.pdbqt.pdb
REMARK  12 active torsions:
REMARK  status: ('A' for Active; 'I' for Inactive)
REMARK    1  A    between atoms: C_9  and  C_48
REMARK    2  A    between atoms: C_13  and  C_23
REMARK    3  A    between atoms: C_14  and  O_26
REMARK    4  A    between atoms: C_15  and  O_28
REMARK    5  A    between atoms: C_16  and  O_39
REMARK    6  A    between atoms: C_17  and  C_30
REMARK    7  A    between atoms: C_31  and  C_32
REMARK    8  A    between atoms: C_33  and  C_34
REMARK    9  A    between atoms: C_35  and  C_36
REMARK   10  A    between atoms: O_39  and  C_41
REMARK   11  A    between atoms: C_41  and  C_42
REMARK   12  A    between atoms: C_48  and  O_49
REMARK                            x       y       z     vdW  Elec       q    Type
REMARK                         _______ _______ _______ _____ _____    ______ ____
ROOT
ATOM      1  O   UNL     1      40.900  24.939  81.895  0.00  0.00    +0.000 OA
ATOM      2  O   UNL     1      42.302  23.982  84.957  0.00  0.00    +0.000 OA
ATOM      3  O   UNL     1      43.489  25.738  83.888  0.00  0.00    +0.000 OA
ATOM      4  O   UNL     1      44.623  24.335  85.304  0.00  0.00    +0.000 OA
ATOM      5  O   UNL     1      38.937  20.119  82.054  0.00  0.00    +0.000 OA
ATOM      6  C   UNL     1      42.907  23.952  82.603  0.00  0.00    +0.000 C 
ATOM      7  C   UNL     1      42.420  23.110  83.791  0.00  0.00    +0.000 C 
ATOM      8  C   UNL     1      42.107  24.416  81.505  0.00  0.00    +0.000 C 
ATOM      9  C   UNL     1      40.882  23.966  80.841  0.00  0.00    +0.000 C 
ATOM     10  C   UNL     1      44.047  24.734  83.098  0.00  0.00    +0.000 C 
ATOM     11  C   UNL     1      41.067  22.516  83.546  0.00  0.00    +0.000 C 
ATOM     12  C   UNL     1      43.489  22.018  84.097  0.00  0.00    +0.000 C 
ATOM     13  C   UNL     1      45.079  23.977  83.969  0.00  0.00    +0.000 C 
ATOM     14  C   UNL     1      40.761  21.757  82.274  0.00  0.00    +0.000 C 
ATOM     15  C   UNL     1      40.369  22.592  81.091  0.00  0.00    +0.000 C 
ATOM     16  C   UNL     1      44.857  22.475  83.920  0.00  0.00    +0.000 C 
ATOM     17  C   UNL     1      43.361  24.962  85.086  0.00  0.00    +0.000 C 
ATOM     18  C   UNL     1      40.103  22.161  84.525  0.00  0.00    +0.000 C 
ATOM     19  C   UNL     1      43.232  20.664  84.761  0.00  0.00    +0.000 C 
ATOM     20  C   UNL     1      39.538  20.916  82.769  0.00  0.00    +0.000 C 
ATOM     21  C   UNL     1      39.238  21.261  84.197  0.00  0.00    +0.000 C 
ATOM     22  C   UNL     1      37.931  21.071  84.894  0.00  0.00    +0.000 C 
ENDROOT
BRANCH  13  23
ATOM     23  C   UNL     1      46.505  24.489  83.659  0.00  0.00    +0.000 C 
ATOM     24  C   UNL     1      47.505  24.937  84.723  0.00  0.00    +0.000 C 
ATOM     25  C   UNL     1      46.912  24.859  82.427  0.00  0.00    +0.000 C 
ENDBRANCH  13  23
BRANCH  14  26
ATOM     26  O   UNL     1      41.850  20.944  81.891  0.00  0.00    +0.000 OA
ATOM     27  H   UNL     1      42.501  20.967  82.621  0.00  0.00    +0.000 HD
ENDBRANCH  14  26
BRANCH  15  28
ATOM     28  O   UNL     1      39.627  21.958  80.091  0.00  0.00    +0.000 OA
ATOM     29  H   UNL     1      39.678  22.381  79.207  0.00  0.00    +0.000 HD
ENDBRANCH  15  28
BRANCH  17  30
ATOM     30  C   UNL     1      43.055  25.840  86.211  0.00  0.00    +0.000 C 
ATOM     31  C   UNL     1      42.805  26.561  87.137  0.00  0.00    +0.000 C 
BRANCH  31  32
ATOM     32  C   UNL     1      42.487  27.480  88.319  0.00  0.00    +0.000 C 
ATOM     33  C   UNL     1      42.237  28.201  89.246  0.00  0.00    +0.000 C 
BRANCH  33  34
ATOM     34  C   UNL     1      41.916  29.122  90.428  0.00  0.00    +0.000 C 
ATOM     35  C   UNL     1      41.594  30.041  91.608  0.00  0.00    +0.000 C 
BRANCH  35  36
ATOM     36  C   UNL     1      41.273  30.961  92.792  0.00  0.00    +0.000 C 
ATOM     37  C   UNL     1      40.952  31.881  93.973  0.00  0.00    +0.000 C 
ATOM     38  C   UNL     1      40.630  32.802  95.155  0.00  0.00    +0.000 C 
ENDBRANCH  35  36
ENDBRANCH  33  34
ENDBRANCH  31  32
ENDBRANCH  17  30
BRANCH  16  39
ATOM     39  O   UNL     1      45.863  21.507  83.764  0.00  0.00    +0.000 OA
BRANCH  39  41
ATOM     40  O   UNL     1      46.394  21.566  85.999  0.00  0.00    +0.000 OA
ATOM     41  C   UNL     1      46.706  21.396  84.833  0.00  0.00    +0.000 C 
BRANCH  41  42
ATOM     42  C   UNL     1      48.073  21.083  84.377  0.00  0.00    +0.000 A 
ATOM     43  C   UNL     1      49.161  21.127  85.248  0.00  0.00    +0.000 A 
ATOM     44  C   UNL     1      48.259  20.735  83.040  0.00  0.00    +0.000 A 
ATOM     45  C   UNL     1      50.437  20.822  84.780  0.00  0.00    +0.000 A 
ATOM     46  C   UNL     1      49.535  20.430  82.575  0.00  0.00    +0.000 A 
ATOM     47  C   UNL     1      50.623  20.474  83.444  0.00  0.00    +0.000 A 
ENDBRANCH  41  42
ENDBRANCH  39  41
ENDBRANCH  16  39
BRANCH   9  48
ATOM     48  C   UNL     1      40.509  24.608  79.588  0.00  0.00    +0.000 C 
BRANCH  48  49
ATOM     49  O   UNL     1      40.172  25.198  78.444  0.00  0.00    +0.000 OA
ATOM     50  H   UNL     1      40.251  26.164  78.524  0.00  0.00    +0.000 HD
ENDBRANCH  48  49
ENDBRANCH   9  48
TORSDOF 12
ENDMDL
