MODEL 1
REMARK VINA RESULT:      -5.0      0.000      0.000
REMARK  Name = 5386_Tegafur.pdbqt.pdb
REMARK  1 active torsions:
REMARK  status: ('A' for Active; 'I' for Inactive)
REMARK    1  A    between atoms: N_4  and  C_12
REMARK                            x       y       z     vdW  Elec       q    Type
REMARK                         _______ _______ _______ _____ _____    ______ ____
ROOT
ATOM      1  F   UNL     1      59.004  36.628  72.854  0.00  0.00    +0.000 F 
ATOM      2  O   UNL     1      57.879  38.838  77.686  0.00  0.00    +0.000 OA
ATOM      3  O   UNL     1      59.694  39.295  73.494  0.00  0.00    +0.000 OA
ATOM      4  N   UNL     1      57.571  37.069  76.145  0.00  0.00    +0.000 N 
ATOM      5  N   UNL     1      58.693  39.047  75.553  0.00  0.00    +0.000 N 
ATOM      6  C   UNL     1      58.017  38.341  76.575  0.00  0.00    +0.000 C 
ATOM      7  C   UNL     1      57.845  36.717  74.873  0.00  0.00    +0.000 C 
ATOM      8  C   UNL     1      58.444  37.286  73.882  0.00  0.00    +0.000 C 
ATOM      9  C   UNL     1      59.005  38.625  74.253  0.00  0.00    +0.000 C 
ATOM     10  H   UNL     1      59.064  39.946  75.824  0.00  0.00    +0.000 HD
ENDROOT
BRANCH   4  12
ATOM     11  O   UNL     1      55.628  35.692  76.615  0.00  0.00    +0.000 OA
ATOM     12  C   UNL     1      56.894  36.192  76.943  0.00  0.00    +0.000 C 
ATOM     13  C   UNL     1      57.282  35.637  78.192  0.00  0.00    +0.000 C 
ATOM     14  C   UNL     1      56.389  34.664  78.964  0.00  0.00    +0.000 C 
ATOM     15  C   UNL     1      55.538  34.953  77.729  0.00  0.00    +0.000 C 
ENDBRANCH   4  12
TORSDOF 1
ENDMDL
MODEL 2
REMARK VINA RESULT:      -4.6     56.889     58.913
REMARK  Name = 5386_Tegafur.pdbqt.pdb
REMARK  1 active torsions:
REMARK  status: ('A' for Active; 'I' for Inactive)
REMARK    1  A    between atoms: N_4  and  C_12
REMARK                            x       y       z     vdW  Elec       q    Type
REMARK                         _______ _______ _______ _____ _____    ______ ____
ROOT
ATOM      1  F   UNL     1      12.487   8.562 100.149  0.00  0.00    +0.000 F 
ATOM      2  O   UNL     1      14.335   5.298  96.220  0.00  0.00    +0.000 OA
ATOM      3  O   UNL     1      14.219   9.481  98.109  0.00  0.00    +0.000 OA
ATOM      4  N   UNL     1      13.241   5.544  98.303  0.00  0.00    +0.000 N 
ATOM      5  N   UNL     1      14.317   7.348  97.249  0.00  0.00    +0.000 N 
ATOM      6  C   UNL     1      13.987   5.974  97.181  0.00  0.00    +0.000 C 
ATOM      7  C   UNL     1      12.956   6.467  99.244  0.00  0.00    +0.000 C 
ATOM      8  C   UNL     1      13.213   7.722  99.393  0.00  0.00    +0.000 C 
ATOM      9  C   UNL     1      13.957   8.289  98.222  0.00  0.00    +0.000 C 
ATOM     10  H   UNL     1      14.817   7.710  96.450  0.00  0.00    +0.000 HD
ENDROOT
BRANCH   4  12
ATOM     11  O   UNL     1      11.445   3.948  98.645  0.00  0.00    +0.000 OA
ATOM     12  C   UNL     1      12.798   4.265  98.476  0.00  0.00    +0.000 C 
ATOM     13  C   UNL     1      13.547   3.059  98.530  0.00  0.00    +0.000 C 
ATOM     14  C   UNL     1      12.885   1.696  98.739  0.00  0.00    +0.000 C 
ATOM     15  C   UNL     1      11.679   2.634  98.760  0.00  0.00    +0.000 C 
ENDBRANCH   4  12
TORSDOF 1
ENDMDL
MODEL 3
REMARK VINA RESULT:      -4.6     17.694     18.533
REMARK  Name = 5386_Tegafur.pdbqt.pdb
REMARK  1 active torsions:
REMARK  status: ('A' for Active; 'I' for Inactive)
REMARK    1  A    between atoms: N_4  and  C_12
REMARK                            x       y       z     vdW  Elec       q    Type
REMARK                         _______ _______ _______ _____ _____    ______ ____
ROOT
ATOM      1  F   UNL     1      44.736  23.936  82.687  0.00  0.00    +0.000 F 
ATOM      2  O   UNL     1      45.759  28.457  85.517  0.00  0.00    +0.000 OA
ATOM      3  O   UNL     1      42.912  26.095  82.798  0.00  0.00    +0.000 OA
ATOM      4  N   UNL     1      46.319  26.217  85.005  0.00  0.00    +0.000 N 
ATOM      5  N   UNL     1      44.332  27.204  84.231  0.00  0.00    +0.000 N 
ATOM      6  C   UNL     1      45.518  27.381  84.982  0.00  0.00    +0.000 C 
ATOM      7  C   UNL     1      45.862  25.141  84.331  0.00  0.00    +0.000 C 
ATOM      8  C   UNL     1      44.809  24.888  83.631  0.00  0.00    +0.000 C 
ATOM      9  C   UNL     1      43.916  26.084  83.500  0.00  0.00    +0.000 C 
ATOM     10  H   UNL     1      43.745  28.023  84.154  0.00  0.00    +0.000 HD
ENDROOT
BRANCH   4  12
ATOM     11  O   UNL     1      48.704  25.768  85.017  0.00  0.00    +0.000 OA
ATOM     12  C   UNL     1      47.513  26.129  85.659  0.00  0.00    +0.000 C 
ATOM     13  C   UNL     1      47.800  26.356  87.032  0.00  0.00    +0.000 C 
ATOM     14  C   UNL     1      49.209  26.206  87.607  0.00  0.00    +0.000 C 
ATOM     15  C   UNL     1      49.435  25.859  86.137  0.00  0.00    +0.000 C 
ENDBRANCH   4  12
TORSDOF 1
ENDMDL
MODEL 4
REMARK VINA RESULT:      -4.5     17.555     18.222
REMARK  Name = 5386_Tegafur.pdbqt.pdb
REMARK  1 active torsions:
REMARK  status: ('A' for Active; 'I' for Inactive)
REMARK    1  A    between atoms: N_4  and  C_12
REMARK                            x       y       z     vdW  Elec       q    Type
REMARK                         _______ _______ _______ _____ _____    ______ ____
ROOT
ATOM      1  F   UNL     1      48.387  27.001  87.778  0.00  0.00    +0.000 F 
ATOM      2  O   UNL     1      47.039  25.469  82.744  0.00  0.00    +0.000 OA
ATOM      3  O   UNL     1      50.048  25.333  86.209  0.00  0.00    +0.000 OA
ATOM      4  N   UNL     1      46.407  26.453  84.801  0.00  0.00    +0.000 N 
ATOM      5  N   UNL     1      48.469  25.358  84.533  0.00  0.00    +0.000 N 
ATOM      6  C   UNL     1      47.256  25.745  83.918  0.00  0.00    +0.000 C 
ATOM      7  C   UNL     1      46.856  26.657  86.056  0.00  0.00    +0.000 C 
ATOM      8  C   UNL     1      47.930  26.345  86.699  0.00  0.00    +0.000 C 
ATOM      9  C   UNL     1      48.923  25.635  85.830  0.00  0.00    +0.000 C 
ATOM     10  H   UNL     1      49.125  24.883  83.930  0.00  0.00    +0.000 HD
ENDROOT
BRANCH   4  12
ATOM     11  O   UNL     1      44.042  26.127  84.366  0.00  0.00    +0.000 OA
ATOM     12  C   UNL     1      45.180  26.937  84.450  0.00  0.00    +0.000 C 
ATOM     13  C   UNL     1      44.807  28.265  84.109  0.00  0.00    +0.000 C 
ATOM     14  C   UNL     1      43.373  28.637  83.730  0.00  0.00    +0.000 C 
ATOM     15  C   UNL     1      43.245  27.139  83.997  0.00  0.00    +0.000 C 
ENDBRANCH   4  12
TORSDOF 1
ENDMDL
MODEL 5
REMARK VINA RESULT:      -4.2     10.459     11.463
REMARK  Name = 5386_Tegafur.pdbqt.pdb
REMARK  1 active torsions:
REMARK  status: ('A' for Active; 'I' for Inactive)
REMARK    1  A    between atoms: N_4  and  C_12
REMARK                            x       y       z     vdW  Elec       q    Type
REMARK                         _______ _______ _______ _____ _____    ______ ____
ROOT
ATOM      1  F   UNL     1      55.886  38.284  85.400  0.00  0.00    +0.000 F 
ATOM      2  O   UNL     1      56.323  33.311  87.538  0.00  0.00    +0.000 OA
ATOM      3  O   UNL     1      53.650  36.586  85.747  0.00  0.00    +0.000 OA
ATOM      4  N   UNL     1      57.374  35.226  86.630  0.00  0.00    +0.000 N 
ATOM      5  N   UNL     1      55.042  34.941  86.557  0.00  0.00    +0.000 N 
ATOM      6  C   UNL     1      56.281  34.391  86.961  0.00  0.00    +0.000 C 
ATOM      7  C   UNL     1      57.094  36.386  86.002  0.00  0.00    +0.000 C 
ATOM      8  C   UNL     1      56.014  36.962  85.596  0.00  0.00    +0.000 C 
ATOM      9  C   UNL     1      54.787  36.178  85.951  0.00  0.00    +0.000 C 
ATOM     10  H   UNL     1      54.228  34.397  86.807  0.00  0.00    +0.000 HD
ENDROOT
BRANCH   4  12
ATOM     11  O   UNL     1      59.193  34.955  88.213  0.00  0.00    +0.000 OA
ATOM     12  C   UNL     1      58.674  34.924  86.914  0.00  0.00    +0.000 C 
ATOM     13  C   UNL     1      59.718  34.547  86.026  0.00  0.00    +0.000 C 
ATOM     14  C   UNL     1      61.136  34.247  86.516  0.00  0.00    +0.000 C 
ATOM     15  C   UNL     1      60.422  34.593  87.822  0.00  0.00    +0.000 C 
ENDBRANCH   4  12
TORSDOF 1
ENDMDL
MODEL 6
REMARK VINA RESULT:      -4.2     58.114     60.419
REMARK  Name = 5386_Tegafur.pdbqt.pdb
REMARK  1 active torsions:
REMARK  status: ('A' for Active; 'I' for Inactive)
REMARK    1  A    between atoms: N_4  and  C_12
REMARK                            x       y       z     vdW  Elec       q    Type
REMARK                         _______ _______ _______ _____ _____    ______ ____
ROOT
ATOM      1  F   UNL     1      15.019   2.434 101.846  0.00  0.00    +0.000 F 
ATOM      2  O   UNL     1      11.009   3.409  98.315  0.00  0.00    +0.000 OA
ATOM      3  O   UNL     1      12.452   1.276 102.115  0.00  0.00    +0.000 OA
ATOM      4  N   UNL     1      13.154   3.959  99.149  0.00  0.00    +0.000 N 
ATOM      5  N   UNL     1      11.748   2.436 100.255  0.00  0.00    +0.000 N 
ATOM      6  C   UNL     1      11.902   3.301  99.147  0.00  0.00    +0.000 C 
ATOM      7  C   UNL     1      13.997   3.679 100.164  0.00  0.00    +0.000 C 
ATOM      8  C   UNL     1      13.944   2.918 101.204  0.00  0.00    +0.000 C 
ATOM      9  C   UNL     1      12.670   2.130 101.265  0.00  0.00    +0.000 C 
ATOM     10  H   UNL     1      10.884   1.913 100.276  0.00  0.00    +0.000 HD
ENDROOT
BRANCH   4  12
ATOM     11  O   UNL     1      13.997   4.441  96.924  0.00  0.00    +0.000 OA
ATOM     12  C   UNL     1      13.548   4.844  98.188  0.00  0.00    +0.000 C 
ATOM     13  C   UNL     1      13.599   6.263  98.246  0.00  0.00    +0.000 C 
ATOM     14  C   UNL     1      14.079   7.111  97.066  0.00  0.00    +0.000 C 
ATOM     15  C   UNL     1      14.215   5.696  96.508  0.00  0.00    +0.000 C 
ENDBRANCH   4  12
TORSDOF 1
ENDMDL
MODEL 7
REMARK VINA RESULT:      -4.2     46.381     47.265
REMARK  Name = 5386_Tegafur.pdbqt.pdb
REMARK  1 active torsions:
REMARK  status: ('A' for Active; 'I' for Inactive)
REMARK    1  A    between atoms: N_4  and  C_12
REMARK                            x       y       z     vdW  Elec       q    Type
REMARK                         _______ _______ _______ _____ _____    ______ ____
ROOT
ATOM      1  F   UNL     1      18.868  14.078  81.508  0.00  0.00    +0.000 F 
ATOM      2  O   UNL     1      15.441  13.118  85.611  0.00  0.00    +0.000 OA
ATOM      3  O   UNL     1      17.082  11.885  81.504  0.00  0.00    +0.000 OA
ATOM      4  N   UNL     1      17.313  14.292  84.767  0.00  0.00    +0.000 N 
ATOM      5  N   UNL     1      16.353  12.491  83.602  0.00  0.00    +0.000 N 
ATOM      6  C   UNL     1      16.302  13.304  84.759  0.00  0.00    +0.000 C 
ATOM      7  C   UNL     1      18.152  14.324  83.711  0.00  0.00    +0.000 C 
ATOM      8  C   UNL     1      18.277  13.634  82.629  0.00  0.00    +0.000 C 
ATOM      9  C   UNL     1      17.210  12.589  82.498  0.00  0.00    +0.000 C 
ATOM     10  H   UNL     1      15.625  11.794  83.534  0.00  0.00    +0.000 HD
ENDROOT
BRANCH   4  12
ATOM     11  O   UNL     1      18.401  15.030  86.807  0.00  0.00    +0.000 OA
ATOM     12  C   UNL     1      17.478  15.203  85.769  0.00  0.00    +0.000 C 
ATOM     13  C   UNL     1      16.799  16.434  85.979  0.00  0.00    +0.000 C 
ATOM     14  C   UNL     1      17.105  17.341  87.172  0.00  0.00    +0.000 C 
ATOM     15  C   UNL     1      18.075  16.184  87.404  0.00  0.00    +0.000 C 
ENDBRANCH   4  12
TORSDOF 1
ENDMDL
MODEL 8
REMARK VINA RESULT:      -4.2     18.808     20.191
REMARK  Name = 5386_Tegafur.pdbqt.pdb
REMARK  1 active torsions:
REMARK  status: ('A' for Active; 'I' for Inactive)
REMARK    1  A    between atoms: N_4  and  C_12
REMARK                            x       y       z     vdW  Elec       q    Type
REMARK                         _______ _______ _______ _____ _____    ______ ____
ROOT
ATOM      1  F   UNL     1      42.198  27.197  88.773  0.00  0.00    +0.000 F 
ATOM      2  O   UNL     1      45.444  28.369  84.579  0.00  0.00    +0.000 OA
ATOM      3  O   UNL     1      44.206  29.183  88.925  0.00  0.00    +0.000 OA
ATOM      4  N   UNL     1      43.850  26.927  85.566  0.00  0.00    +0.000 N 
ATOM      5  N   UNL     1      44.850  28.678  86.772  0.00  0.00    +0.000 N 
ATOM      6  C   UNL     1      44.768  28.001  85.533  0.00  0.00    +0.000 C 
ATOM      7  C   UNL     1      43.200  26.707  86.728  0.00  0.00    +0.000 C 
ATOM      8  C   UNL     1      43.210  27.260  87.893  0.00  0.00    +0.000 C 
ATOM      9  C   UNL     1      44.118  28.452  87.945  0.00  0.00    +0.000 C 
ATOM     10  H   UNL     1      45.466  29.479  86.785  0.00  0.00    +0.000 HD
ENDROOT
BRANCH   4  12
ATOM     11  O   UNL     1      42.455  26.275  83.689  0.00  0.00    +0.000 OA
ATOM     12  C   UNL     1      43.587  26.119  84.499  0.00  0.00    +0.000 C 
ATOM     13  C   UNL     1      44.335  25.015  84.008  0.00  0.00    +0.000 C 
ATOM     14  C   UNL     1      43.889  24.204  82.790  0.00  0.00    +0.000 C 
ATOM     15  C   UNL     1      42.773  25.242  82.899  0.00  0.00    +0.000 C 
ENDBRANCH   4  12
TORSDOF 1
ENDMDL
MODEL 9
REMARK VINA RESULT:      -4.1     17.579     18.577
REMARK  Name = 5386_Tegafur.pdbqt.pdb
REMARK  1 active torsions:
REMARK  status: ('A' for Active; 'I' for Inactive)
REMARK    1  A    between atoms: N_4  and  C_12
REMARK                            x       y       z     vdW  Elec       q    Type
REMARK                         _______ _______ _______ _____ _____    ______ ____
ROOT
ATOM      1  F   UNL     1      48.407  23.499  84.479  0.00  0.00    +0.000 F 
ATOM      2  O   UNL     1      46.202  28.109  86.320  0.00  0.00    +0.000 OA
ATOM      3  O   UNL     1      49.911  25.439  85.886  0.00  0.00    +0.000 OA
ATOM      4  N   UNL     1      46.025  26.177  84.965  0.00  0.00    +0.000 N 
ATOM      5  N   UNL     1      48.046  26.783  86.001  0.00  0.00    +0.000 N 
ATOM      6  C   UNL     1      46.685  27.112  85.796  0.00  0.00    +0.000 C 
ATOM      7  C   UNL     1      46.754  25.140  84.505  0.00  0.00    +0.000 C 
ATOM      8  C   UNL     1      47.980  24.763  84.634  0.00  0.00    +0.000 C 
ATOM      9  C   UNL     1      48.756  25.664  85.546  0.00  0.00    +0.000 C 
ATOM     10  H   UNL     1      48.549  27.402  86.620  0.00  0.00    +0.000 HD
ENDROOT
BRANCH   4  12
ATOM     11  O   UNL     1      44.217  27.261  83.761  0.00  0.00    +0.000 OA
ATOM     12  C   UNL     1      44.709  26.268  84.617  0.00  0.00    +0.000 C 
ATOM     13  C   UNL     1      43.620  25.446  85.016  0.00  0.00    +0.000 C 
ATOM     14  C   UNL     1      42.191  25.694  84.531  0.00  0.00    +0.000 C 
ATOM     15  C   UNL     1      42.955  26.819  83.835  0.00  0.00    +0.000 C 
ENDBRANCH   4  12
TORSDOF 1
ENDMDL
