MODEL 1
REMARK VINA RESULT:      -5.2      0.000      0.000
REMARK  Name = 5470187_Zerumbone.pdbqt.pdb
REMARK  0 active torsions:
REMARK  status: ('A' for Active; 'I' for Inactive)
REMARK                            x       y       z     vdW  Elec       q    Type
REMARK                         _______ _______ _______ _____ _____    ______ ____
ROOT
ATOM      1  O   UNL     1      21.128   9.644  86.827  0.00  0.00    +0.000 OA
ATOM      2  C   UNL     1      25.637   9.850  88.697  0.00  0.00    +0.000 C 
ATOM      3  C   UNL     1      26.419   8.593  88.623  0.00  0.00    +0.000 C 
ATOM      4  C   UNL     1      26.360  10.970  87.911  0.00  0.00    +0.000 C 
ATOM      5  C   UNL     1      25.444  10.254  90.180  0.00  0.00    +0.000 C 
ATOM      6  C   UNL     1      24.307   9.560  88.072  0.00  0.00    +0.000 C 
ATOM      7  C   UNL     1      26.870   7.145  88.359  0.00  0.00    +0.000 C 
ATOM      8  C   UNL     1      26.849   5.907  87.963  0.00  0.00    +0.000 C 
ATOM      9  C   UNL     1      25.594   5.573  87.393  0.00  0.00    +0.000 C 
ATOM     10  C   UNL     1      24.161   5.806  86.909  0.00  0.00    +0.000 C 
ATOM     11  C   UNL     1      23.263   9.239  87.558  0.00  0.00    +0.000 C 
ATOM     12  C   UNL     1      28.096   5.249  87.473  0.00  0.00    +0.000 C 
ATOM     13  C   UNL     1      22.856   6.550  86.611  0.00  0.00    +0.000 C 
ATOM     14  C   UNL     1      21.864   7.379  86.459  0.00  0.00    +0.000 C 
ATOM     15  C   UNL     1      22.013   8.803  86.933  0.00  0.00    +0.000 C 
ATOM     16  C   UNL     1      20.609   6.838  85.818  0.00  0.00    +0.000 C 
ENDROOT
TORSDOF 0
ENDMDL
MODEL 2
REMARK VINA RESULT:      -5.1     20.823     23.419
REMARK  Name = 5470187_Zerumbone.pdbqt.pdb
REMARK  0 active torsions:
REMARK  status: ('A' for Active; 'I' for Inactive)
REMARK                            x       y       z     vdW  Elec       q    Type
REMARK                         _______ _______ _______ _____ _____    ______ ____
ROOT
ATOM      1  O   UNL     1       5.869  17.185  96.081  0.00  0.00    +0.000 OA
ATOM      2  C   UNL     1       1.851  14.671  94.895  0.00  0.00    +0.000 C 
ATOM      3  C   UNL     1       1.891  13.220  95.198  0.00  0.00    +0.000 C 
ATOM      4  C   UNL     1       0.697  15.344  95.676  0.00  0.00    +0.000 C 
ATOM      5  C   UNL     1       1.677  14.877  93.369  0.00  0.00    +0.000 C 
ATOM      6  C   UNL     1       3.167  15.233  95.338  0.00  0.00    +0.000 C 
ATOM      7  C   UNL     1       2.324  11.816  95.656  0.00  0.00    +0.000 C 
ATOM      8  C   UNL     1       3.048  10.859  96.155  0.00  0.00    +0.000 C 
ATOM      9  C   UNL     1       4.322  11.336  96.558  0.00  0.00    +0.000 C 
ATOM     10  C   UNL     1       5.427  12.366  96.800  0.00  0.00    +0.000 C 
ATOM     11  C   UNL     1       4.252  15.600  95.716  0.00  0.00    +0.000 C 
ATOM     12  C   UNL     1       2.404   9.725  96.883  0.00  0.00    +0.000 C 
ATOM     13  C   UNL     1       6.133  13.725  96.831  0.00  0.00    +0.000 C 
ATOM     14  C   UNL     1       6.519  14.965  96.757  0.00  0.00    +0.000 C 
ATOM     15  C   UNL     1       5.581  15.998  96.185  0.00  0.00    +0.000 C 
ATOM     16  C   UNL     1       7.911  15.282  97.249  0.00  0.00    +0.000 C 
ENDROOT
TORSDOF 0
ENDMDL
MODEL 3
REMARK VINA RESULT:      -5.0     29.025     31.305
REMARK  Name = 5470187_Zerumbone.pdbqt.pdb
REMARK  0 active torsions:
REMARK  status: ('A' for Active; 'I' for Inactive)
REMARK                            x       y       z     vdW  Elec       q    Type
REMARK                         _______ _______ _______ _____ _____    ______ ____
ROOT
ATOM      1  O   UNL     1      49.542  16.087  78.239  0.00  0.00    +0.000 OA
ATOM      2  C   UNL     1      52.275  19.934  79.506  0.00  0.00    +0.000 C 
ATOM      3  C   UNL     1      52.780  20.759  78.382  0.00  0.00    +0.000 C 
ATOM      4  C   UNL     1      51.378  20.791  80.431  0.00  0.00    +0.000 C 
ATOM      5  C   UNL     1      53.471  19.342  80.293  0.00  0.00    +0.000 C 
ATOM      6  C   UNL     1      51.471  18.828  78.893  0.00  0.00    +0.000 C 
ATOM      7  C   UNL     1      53.089  21.324  76.984  0.00  0.00    +0.000 C 
ATOM      8  C   UNL     1      53.100  21.458  75.691  0.00  0.00    +0.000 C 
ATOM      9  C   UNL     1      52.379  20.411  75.062  0.00  0.00    +0.000 C 
ATOM     10  C   UNL     1      51.520  19.148  74.973  0.00  0.00    +0.000 C 
ATOM     11  C   UNL     1      50.849  17.970  78.317  0.00  0.00    +0.000 C 
ATOM     12  C   UNL     1      53.148  22.816  75.073  0.00  0.00    +0.000 C 
ATOM     13  C   UNL     1      50.706  17.937  75.440  0.00  0.00    +0.000 C 
ATOM     14  C   UNL     1      50.076  16.987  76.067  0.00  0.00    +0.000 C 
ATOM     15  C   UNL     1      50.109  16.948  77.574  0.00  0.00    +0.000 C 
ATOM     16  C   UNL     1      49.352  15.968  75.220  0.00  0.00    +0.000 C 
ENDROOT
TORSDOF 0
ENDMDL
MODEL 4
REMARK VINA RESULT:      -4.6      1.954      4.723
REMARK  Name = 5470187_Zerumbone.pdbqt.pdb
REMARK  0 active torsions:
REMARK  status: ('A' for Active; 'I' for Inactive)
REMARK                            x       y       z     vdW  Elec       q    Type
REMARK                         _______ _______ _______ _____ _____    ______ ____
ROOT
ATOM      1  O   UNL     1      26.386  10.418  87.303  0.00  0.00    +0.000 OA
ATOM      2  C   UNL     1      25.820   5.565  87.262  0.00  0.00    +0.000 C 
ATOM      3  C   UNL     1      24.436   5.084  87.037  0.00  0.00    +0.000 C 
ATOM      4  C   UNL     1      26.750   5.050  86.138  0.00  0.00    +0.000 C 
ATOM      5  C   UNL     1      26.316   5.087  88.649  0.00  0.00    +0.000 C 
ATOM      6  C   UNL     1      25.759   7.062  87.233  0.00  0.00    +0.000 C 
ATOM      7  C   UNL     1      22.920   5.007  86.785  0.00  0.00    +0.000 C 
ATOM      8  C   UNL     1      21.692   5.377  86.570  0.00  0.00    +0.000 C 
ATOM      9  C   UNL     1      21.577   6.790  86.568  0.00  0.00    +0.000 C 
ATOM     10  C   UNL     1      22.053   8.242  86.647  0.00  0.00    +0.000 C 
ATOM     11  C   UNL     1      25.619   8.260  87.199  0.00  0.00    +0.000 C 
ATOM     12  C   UNL     1      20.791   4.546  85.717  0.00  0.00    +0.000 C 
ATOM     13  C   UNL     1      23.016   9.425  86.792  0.00  0.00    +0.000 C 
ATOM     14  C   UNL     1      24.009  10.252  86.940  0.00  0.00    +0.000 C 
ATOM     15  C   UNL     1      25.399   9.707  87.155  0.00  0.00    +0.000 C 
ATOM     16  C   UNL     1      23.688  11.726  86.895  0.00  0.00    +0.000 C 
ENDROOT
TORSDOF 0
ENDMDL
MODEL 5
REMARK VINA RESULT:      -4.6     28.375     30.383
REMARK  Name = 5470187_Zerumbone.pdbqt.pdb
REMARK  0 active torsions:
REMARK  status: ('A' for Active; 'I' for Inactive)
REMARK                            x       y       z     vdW  Elec       q    Type
REMARK                         _______ _______ _______ _____ _____    ______ ____
ROOT
ATOM      1  O   UNL     1      49.300  15.727  79.394  0.00  0.00    +0.000 OA
ATOM      2  C   UNL     1      51.295  19.630  81.553  0.00  0.00    +0.000 C 
ATOM      3  C   UNL     1      51.976  20.585  80.646  0.00  0.00    +0.000 C 
ATOM      4  C   UNL     1      50.131  20.335  82.289  0.00  0.00    +0.000 C 
ATOM      5  C   UNL     1      52.319  19.056  82.564  0.00  0.00    +0.000 C 
ATOM      6  C   UNL     1      50.763  18.528  80.687  0.00  0.00    +0.000 C 
ATOM      7  C   UNL     1      52.555  21.292  79.408  0.00  0.00    +0.000 C 
ATOM      8  C   UNL     1      52.860  21.542  78.169  0.00  0.00    +0.000 C 
ATOM      9  C   UNL     1      52.407  20.507  77.311  0.00  0.00    +0.000 C 
ATOM     10  C   UNL     1      51.711  19.199  76.929  0.00  0.00    +0.000 C 
ATOM     11  C   UNL     1      50.375  17.683  79.919  0.00  0.00    +0.000 C 
ATOM     12  C   UNL     1      52.931  22.950  77.677  0.00  0.00    +0.000 C 
ATOM     13  C   UNL     1      50.923  17.897  77.098  0.00  0.00    +0.000 C 
ATOM     14  C   UNL     1      50.250  16.852  77.485  0.00  0.00    +0.000 C 
ATOM     15  C   UNL     1      49.928  16.681  78.949  0.00  0.00    +0.000 C 
ATOM     16  C   UNL     1      49.843  15.864  76.419  0.00  0.00    +0.000 C 
ENDROOT
TORSDOF 0
ENDMDL
MODEL 6
REMARK VINA RESULT:      -4.4     18.622     21.880
REMARK  Name = 5470187_Zerumbone.pdbqt.pdb
REMARK  0 active torsions:
REMARK  status: ('A' for Active; 'I' for Inactive)
REMARK                            x       y       z     vdW  Elec       q    Type
REMARK                         _______ _______ _______ _____ _____    ______ ____
ROOT
ATOM      1  O   UNL     1      39.265  24.218  85.410  0.00  0.00    +0.000 OA
ATOM      2  C   UNL     1      35.998  22.200  82.388  0.00  0.00    +0.000 C 
ATOM      3  C   UNL     1      36.387  22.161  80.958  0.00  0.00    +0.000 C 
ATOM      4  C   UNL     1      35.778  20.762  82.917  0.00  0.00    +0.000 C 
ATOM      5  C   UNL     1      34.713  23.050  82.552  0.00  0.00    +0.000 C 
ATOM      6  C   UNL     1      37.133  22.849  83.119  0.00  0.00    +0.000 C 
ATOM      7  C   UNL     1      37.145  22.311  79.627  0.00  0.00    +0.000 C 
ATOM      8  C   UNL     1      38.079  22.614  78.775  0.00  0.00    +0.000 C 
ATOM      9  C   UNL     1      39.165  23.264  79.417  0.00  0.00    +0.000 C 
ATOM     10  C   UNL     1      39.969  23.845  80.582  0.00  0.00    +0.000 C 
ATOM     11  C   UNL     1      38.089  23.384  83.627  0.00  0.00    +0.000 C 
ATOM     12  C   UNL     1      38.318  21.755  77.578  0.00  0.00    +0.000 C 
ATOM     13  C   UNL     1      40.324  24.234  82.020  0.00  0.00    +0.000 C 
ATOM     14  C   UNL     1      40.403  24.462  83.299  0.00  0.00    +0.000 C 
ATOM     15  C   UNL     1      39.267  24.040  84.197  0.00  0.00    +0.000 C 
ATOM     16  C   UNL     1      41.648  25.156  83.797  0.00  0.00    +0.000 C 
ENDROOT
TORSDOF 0
ENDMDL
MODEL 7
REMARK VINA RESULT:      -4.4     10.134     13.088
REMARK  Name = 5470187_Zerumbone.pdbqt.pdb
REMARK  0 active torsions:
REMARK  status: ('A' for Active; 'I' for Inactive)
REMARK                            x       y       z     vdW  Elec       q    Type
REMARK                         _______ _______ _______ _____ _____    ______ ____
ROOT
ATOM      1  O   UNL     1      19.318  16.056  89.294  0.00  0.00    +0.000 OA
ATOM      2  C   UNL     1      17.084  15.015  85.075  0.00  0.00    +0.000 C 
ATOM      3  C   UNL     1      16.381  16.147  84.426  0.00  0.00    +0.000 C 
ATOM      4  C   UNL     1      18.194  14.475  84.141  0.00  0.00    +0.000 C 
ATOM      5  C   UNL     1      16.064  13.901  85.419  0.00  0.00    +0.000 C 
ATOM      6  C   UNL     1      17.689  15.556  86.334  0.00  0.00    +0.000 C 
ATOM      7  C   UNL     1      15.799  17.534  84.097  0.00  0.00    +0.000 C 
ATOM      8  C   UNL     1      15.514  18.798  84.195  0.00  0.00    +0.000 C 
ATOM      9  C   UNL     1      16.038  19.350  85.392  0.00  0.00    +0.000 C 
ATOM     10  C   UNL     1      16.805  19.369  86.716  0.00  0.00    +0.000 C 
ATOM     11  C   UNL     1      18.137  16.073  87.328  0.00  0.00    +0.000 C 
ATOM     12  C   UNL     1      15.388  19.641  82.969  0.00  0.00    +0.000 C 
ATOM     13  C   UNL     1      17.650  18.857  87.885  0.00  0.00    +0.000 C 
ATOM     14  C   UNL     1      18.363  18.203  88.756  0.00  0.00    +0.000 C 
ATOM     15  C   UNL     1      18.655  16.741  88.523  0.00  0.00    +0.000 C 
ATOM     16  C   UNL     1      18.843  18.968  89.965  0.00  0.00    +0.000 C 
ENDROOT
TORSDOF 0
ENDMDL
MODEL 8
REMARK VINA RESULT:      -4.3     45.821     47.898
REMARK  Name = 5470187_Zerumbone.pdbqt.pdb
REMARK  0 active torsions:
REMARK  status: ('A' for Active; 'I' for Inactive)
REMARK                            x       y       z     vdW  Elec       q    Type
REMARK                         _______ _______ _______ _____ _____    ______ ____
ROOT
ATOM      1  O   UNL     1      63.426  34.744  70.043  0.00  0.00    +0.000 OA
ATOM      2  C   UNL     1      61.355  30.330  70.372  0.00  0.00    +0.000 C 
ATOM      3  C   UNL     1      60.310  30.037  69.363  0.00  0.00    +0.000 C 
ATOM      4  C   UNL     1      62.518  29.317  70.240  0.00  0.00    +0.000 C 
ATOM      5  C   UNL     1      60.736  30.276  71.791  0.00  0.00    +0.000 C 
ATOM      6  C   UNL     1      61.847  31.716  70.084  0.00  0.00    +0.000 C 
ATOM      7  C   UNL     1      59.323  30.130  68.185  0.00  0.00    +0.000 C 
ATOM      8  C   UNL     1      58.680  30.603  67.159  0.00  0.00    +0.000 C 
ATOM      9  C   UNL     1      59.087  31.930  66.867  0.00  0.00    +0.000 C 
ATOM     10  C   UNL     1      59.891  33.223  67.022  0.00  0.00    +0.000 C 
ATOM     11  C   UNL     1      62.179  32.837  69.785  0.00  0.00    +0.000 C 
ATOM     12  C   UNL     1      58.236  29.693  66.061  0.00  0.00    +0.000 C 
ATOM     13  C   UNL     1      60.919  34.207  67.586  0.00  0.00    +0.000 C 
ATOM     14  C   UNL     1      61.845  34.859  68.228  0.00  0.00    +0.000 C 
ATOM     15  C   UNL     1      62.545  34.198  69.389  0.00  0.00    +0.000 C 
ATOM     16  C   UNL     1      62.147  36.262  67.759  0.00  0.00    +0.000 C 
ENDROOT
TORSDOF 0
ENDMDL
MODEL 9
REMARK VINA RESULT:      -4.2     12.259     15.125
REMARK  Name = 5470187_Zerumbone.pdbqt.pdb
REMARK  0 active torsions:
REMARK  status: ('A' for Active; 'I' for Inactive)
REMARK                            x       y       z     vdW  Elec       q    Type
REMARK                         _______ _______ _______ _____ _____    ______ ____
ROOT
ATOM      1  O   UNL     1      21.912  20.300  91.324  0.00  0.00    +0.000 OA
ATOM      2  C   UNL     1      23.855  23.613  94.345  0.00  0.00    +0.000 C 
ATOM      3  C   UNL     1      24.530  23.066  95.546  0.00  0.00    +0.000 C 
ATOM      4  C   UNL     1      24.865  24.413  93.487  0.00  0.00    +0.000 C 
ATOM      5  C   UNL     1      22.670  24.511  94.780  0.00  0.00    +0.000 C 
ATOM      6  C   UNL     1      23.344  22.436  93.572  0.00  0.00    +0.000 C 
ATOM      7  C   UNL     1      25.109  22.125  96.618  0.00  0.00    +0.000 C 
ATOM      8  C   UNL     1      25.428  21.034  97.248  0.00  0.00    +0.000 C 
ATOM      9  C   UNL     1      24.934  19.889  96.571  0.00  0.00    +0.000 C 
ATOM     10  C   UNL     1      24.227  19.103  95.465  0.00  0.00    +0.000 C 
ATOM     11  C   UNL     1      22.963  21.434  93.018  0.00  0.00    +0.000 C 
ATOM     12  C   UNL     1      26.697  20.957  98.030  0.00  0.00    +0.000 C 
ATOM     13  C   UNL     1      23.456  18.839  94.168  0.00  0.00    +0.000 C 
ATOM     14  C   UNL     1      22.807  18.864  93.041  0.00  0.00    +0.000 C 
ATOM     15  C   UNL     1      22.517  20.191  92.385  0.00  0.00    +0.000 C 
ATOM     16  C   UNL     1      22.373  17.537  92.468  0.00  0.00    +0.000 C 
ENDROOT
TORSDOF 0
ENDMDL
