MODEL 1
REMARK VINA RESULT:      -7.1      0.000      0.000
REMARK  Name = 5azacytidine.pdbqt.pdb
REMARK  5 active torsions:
REMARK  status: ('A' for Active; 'I' for Inactive)
REMARK    1  A    between atoms: C2*_2  and  O2*_16
REMARK    2  A    between atoms: C3*_3  and  O3*_21
REMARK    3  A    between atoms: C4*_4  and  C5*_18
REMARK    4  A    between atoms: C1*_5  and  N_6
REMARK    5  A    between atoms: C5*_18  and  O5*_19
REMARK                            x       y       z     vdW  Elec       q    Type
REMARK                         _______ _______ _______ _____ _____    ______ ____
ROOT
ATOM      1  O4* UNL     1      57.013  37.264  77.754  0.00  0.00    +0.000 OA
ATOM      2  C2* UNL     1      55.767  35.560  76.823  0.00  0.00    +0.000 A 
ATOM      3  C3* UNL     1      55.404  36.787  76.182  0.00  0.00    +0.000 A 
ATOM      4  C4* UNL     1      56.195  37.834  76.764  0.00  0.00    +0.000 A 
ATOM      5  C1* UNL     1      56.759  35.877  77.822  0.00  0.00    +0.000 A 
ENDROOT
BRANCH   5   6
ATOM      6  N   UNL     1      57.376  35.091  78.748  0.00  0.00    +0.000 N 
ATOM      7  C   UNL     1      58.674  34.594  78.703  0.00  0.00    +0.000 A 
ATOM      8  O   UNL     1      59.443  34.788  77.764  0.00  0.00    +0.000 OA
ATOM      9  N   UNL     1      59.050  33.831  79.805  0.00  0.00    +0.000 NA
ATOM     10  C   UNL     1      58.209  33.619  80.786  0.00  0.00    +0.000 A 
ATOM     11  N   UNL     1      56.909  34.091  80.811  0.00  0.00    +0.000 NA
ATOM     12  C   UNL     1      56.723  34.720  79.847  0.00  0.00    +0.000 A 
ATOM     13  N   UNL     1      58.623  32.871  81.841  0.00  0.00    +0.000 N 
ATOM     14  H   UNL     1      57.877  32.406  82.341  0.00  0.00    +0.000 HD
ATOM     15  H   UNL     1      59.426  32.290  81.635  0.00  0.00    +0.000 HD
ENDBRANCH   5   6
BRANCH   2  16
ATOM     16  O2* UNL     1      54.851  34.549  76.918  0.00  0.00    +0.000 OA
ATOM     17  H2* UNL     1      53.933  34.891  76.992  0.00  0.00    +0.000 HD
ENDBRANCH   2  16
BRANCH   3  18
ATOM     18  O3* UNL     1      54.131  36.998  75.730  0.00  0.00    +0.000 OA
ATOM     19  H3* UNL     1      54.108  37.792  75.162  0.00  0.00    +0.000 HD
ENDBRANCH   3  18
BRANCH   4  20
ATOM     20  C5* UNL     1      55.999  39.224  76.653  0.00  0.00    +0.000 C 
BRANCH  20  21
ATOM     21  O5* UNL     1      55.824  40.538  76.551  0.00  0.00    +0.000 OA
ATOM     22  H5* UNL     1      56.166  40.854  75.697  0.00  0.00    +0.000 HD
ENDBRANCH  20  21
ENDBRANCH   4  20
TORSDOF 5
ENDMDL
MODEL 2
REMARK VINA RESULT:      -6.7      1.282      2.395
REMARK  Name = 5azacytidine.pdbqt.pdb
REMARK  5 active torsions:
REMARK  status: ('A' for Active; 'I' for Inactive)
REMARK    1  A    between atoms: C2*_2  and  O2*_16
REMARK    2  A    between atoms: C3*_3  and  O3*_21
REMARK    3  A    between atoms: C4*_4  and  C5*_18
REMARK    4  A    between atoms: C1*_5  and  N_6
REMARK    5  A    between atoms: C5*_18  and  O5*_19
REMARK                            x       y       z     vdW  Elec       q    Type
REMARK                         _______ _______ _______ _____ _____    ______ ____
ROOT
ATOM      1  O4* UNL     1      56.448  36.308  77.098  0.00  0.00    +0.000 OA
ATOM      2  C2* UNL     1      57.649  37.911  78.242  0.00  0.00    +0.000 A 
ATOM      3  C3* UNL     1      57.082  38.518  77.077  0.00  0.00    +0.000 A 
ATOM      4  C4* UNL     1      56.330  37.512  76.383  0.00  0.00    +0.000 A 
ATOM      5  C1* UNL     1      57.263  36.520  78.230  0.00  0.00    +0.000 A 
ENDROOT
BRANCH   5   6
ATOM      6  N   UNL     1      57.593  35.495  79.065  0.00  0.00    +0.000 N 
ATOM      7  C   UNL     1      58.648  34.601  78.927  0.00  0.00    +0.000 A 
ATOM      8  O   UNL     1      59.425  34.609  77.974  0.00  0.00    +0.000 OA
ATOM      9  N   UNL     1      58.762  33.662  79.948  0.00  0.00    +0.000 NA
ATOM     10  C   UNL     1      57.912  33.656  80.944  0.00  0.00    +0.000 A 
ATOM     11  N   UNL     1      56.846  34.530  81.061  0.00  0.00    +0.000 NA
ATOM     12  C   UNL     1      56.869  35.268  80.158  0.00  0.00    +0.000 A 
ATOM     13  N   UNL     1      58.065  32.724  81.919  0.00  0.00    +0.000 N 
ATOM     14  H   UNL     1      57.214  32.491  82.412  0.00  0.00    +0.000 HD
ATOM     15  H   UNL     1      58.624  31.929  81.635  0.00  0.00    +0.000 HD
ENDBRANCH   5   6
BRANCH   2  16
ATOM     16  O2* UNL     1      58.819  38.397  78.759  0.00  0.00    +0.000 OA
ATOM     17  H2* UNL     1      59.433  38.701  78.055  0.00  0.00    +0.000 HD
ENDBRANCH   2  16
BRANCH   3  18
ATOM     18  O3* UNL     1      57.729  39.530  76.422  0.00  0.00    +0.000 OA
ATOM     19  H3* UNL     1      58.641  39.257  76.211  0.00  0.00    +0.000 HD
ENDBRANCH   3  18
BRANCH   4  20
ATOM     20  C5* UNL     1      55.832  37.564  75.067  0.00  0.00    +0.000 C 
BRANCH  20  21
ATOM     21  O5* UNL     1      55.368  37.605  73.822  0.00  0.00    +0.000 OA
ATOM     22  H5* UNL     1      55.301  36.704  73.462  0.00  0.00    +0.000 HD
ENDBRANCH  20  21
ENDBRANCH   4  20
TORSDOF 5
ENDMDL
MODEL 3
REMARK VINA RESULT:      -6.5      2.810      5.639
REMARK  Name = 5azacytidine.pdbqt.pdb
REMARK  5 active torsions:
REMARK  status: ('A' for Active; 'I' for Inactive)
REMARK    1  A    between atoms: C2*_2  and  O2*_16
REMARK    2  A    between atoms: C3*_3  and  O3*_21
REMARK    3  A    between atoms: C4*_4  and  C5*_18
REMARK    4  A    between atoms: C1*_5  and  N_6
REMARK    5  A    between atoms: C5*_18  and  O5*_19
REMARK                            x       y       z     vdW  Elec       q    Type
REMARK                         _______ _______ _______ _____ _____    ______ ____
ROOT
ATOM      1  O4* UNL     1      56.558  36.113  79.789  0.00  0.00    +0.000 OA
ATOM      2  C2* UNL     1      58.224  34.799  78.883  0.00  0.00    +0.000 A 
ATOM      3  C3* UNL     1      58.326  34.738  80.309  0.00  0.00    +0.000 A 
ATOM      4  C4* UNL     1      57.278  35.550  80.857  0.00  0.00    +0.000 A 
ATOM      5  C1* UNL     1      57.126  35.683  78.571  0.00  0.00    +0.000 A 
ENDROOT
BRANCH   5   6
ATOM      6  N   UNL     1      56.656  36.135  77.374  0.00  0.00    +0.000 N 
ATOM      7  C   UNL     1      55.656  35.569  76.593  0.00  0.00    +0.000 A 
ATOM      8  O   UNL     1      55.072  34.528  76.886  0.00  0.00    +0.000 OA
ATOM      9  N   UNL     1      55.362  36.260  75.421  0.00  0.00    +0.000 NA
ATOM     10  C   UNL     1      56.009  37.357  75.115  0.00  0.00    +0.000 A 
ATOM     11  N   UNL     1      57.025  37.899  75.883  0.00  0.00    +0.000 NA
ATOM     12  C   UNL     1      57.164  37.241  76.835  0.00  0.00    +0.000 A 
ATOM     13  N   UNL     1      55.686  37.999  73.964  0.00  0.00    +0.000 N 
ATOM     14  H   UNL     1      56.432  38.560  73.574  0.00  0.00    +0.000 HD
ATOM     15  H   UNL     1      55.199  37.413  73.297  0.00  0.00    +0.000 HD
ENDBRANCH   5   6
BRANCH   2  16
ATOM     16  O2* UNL     1      59.344  34.637  78.115  0.00  0.00    +0.000 OA
ATOM     17  H2* UNL     1      59.615  35.474  77.680  0.00  0.00    +0.000 HD
ENDBRANCH   2  16
BRANCH   3  18
ATOM     18  O3* UNL     1      59.539  34.596  80.924  0.00  0.00    +0.000 OA
ATOM     19  H3* UNL     1      60.182  34.205  80.303  0.00  0.00    +0.000 HD
ENDBRANCH   3  18
BRANCH   4  20
ATOM     20  C5* UNL     1      57.149  36.010  82.182  0.00  0.00    +0.000 C 
BRANCH  20  21
ATOM     21  O5* UNL     1      57.019  36.437  83.434  0.00  0.00    +0.000 OA
ATOM     22  H5* UNL     1      57.154  37.400  83.473  0.00  0.00    +0.000 HD
ENDBRANCH  20  21
ENDBRANCH   4  20
TORSDOF 5
ENDMDL
MODEL 4
REMARK VINA RESULT:      -5.7      3.586      5.219
REMARK  Name = 5azacytidine.pdbqt.pdb
REMARK  5 active torsions:
REMARK  status: ('A' for Active; 'I' for Inactive)
REMARK    1  A    between atoms: C2*_2  and  O2*_16
REMARK    2  A    between atoms: C3*_3  and  O3*_21
REMARK    3  A    between atoms: C4*_4  and  C5*_18
REMARK    4  A    between atoms: C1*_5  and  N_6
REMARK    5  A    between atoms: C5*_18  and  O5*_19
REMARK                            x       y       z     vdW  Elec       q    Type
REMARK                         _______ _______ _______ _____ _____    ______ ____
ROOT
ATOM      1  O4* UNL     1      57.440  36.741  77.901  0.00  0.00    +0.000 OA
ATOM      2  C2* UNL     1      56.453  36.016  75.946  0.00  0.00    +0.000 A 
ATOM      3  C3* UNL     1      55.658  35.566  77.048  0.00  0.00    +0.000 A 
ATOM      4  C4* UNL     1      56.279  36.033  78.254  0.00  0.00    +0.000 A 
ATOM      5  C1* UNL     1      57.579  36.732  76.496  0.00  0.00    +0.000 A 
ENDROOT
BRANCH   5   6
ATOM      6  N   UNL     1      58.661  37.296  75.889  0.00  0.00    +0.000 N 
ATOM      7  C   UNL     1      58.678  38.416  75.067  0.00  0.00    +0.000 A 
ATOM      8  O   UNL     1      57.668  39.041  74.749  0.00  0.00    +0.000 OA
ATOM      9  N   UNL     1      59.937  38.785  74.600  0.00  0.00    +0.000 NA
ATOM     10  C   UNL     1      60.998  38.094  74.934  0.00  0.00    +0.000 A 
ATOM     11  N   UNL     1      60.971  36.962  75.729  0.00  0.00    +0.000 NA
ATOM     12  C   UNL     1      59.871  36.768  76.063  0.00  0.00    +0.000 A 
ATOM     13  N   UNL     1      62.205  38.494  74.458  0.00  0.00    +0.000 N 
ATOM     14  H   UNL     1      62.893  37.756  74.389  0.00  0.00    +0.000 HD
ATOM     15  H   UNL     1      62.141  39.095  73.644  0.00  0.00    +0.000 HD
ENDBRANCH   5   6
BRANCH   2  16
ATOM     16  O2* UNL     1      56.471  35.295  74.784  0.00  0.00    +0.000 OA
ATOM     17  H2* UNL     1      56.791  34.378  74.927  0.00  0.00    +0.000 HD
ENDBRANCH   2  16
BRANCH   3  18
ATOM     18  O3* UNL     1      54.975  34.383  76.988  0.00  0.00    +0.000 OA
ATOM     19  H3* UNL     1      54.070  34.505  77.331  0.00  0.00    +0.000 HD
ENDBRANCH   3  18
BRANCH   4  20
ATOM     20  C5* UNL     1      56.020  35.615  79.573  0.00  0.00    +0.000 C 
BRANCH  20  21
ATOM     21  O5* UNL     1      55.786  35.218  80.820  0.00  0.00    +0.000 OA
ATOM     22  H5* UNL     1      54.828  35.130  80.967  0.00  0.00    +0.000 HD
ENDBRANCH  20  21
ENDBRANCH   4  20
TORSDOF 5
ENDMDL
MODEL 5
REMARK VINA RESULT:      -5.7      3.396      5.364
REMARK  Name = 5azacytidine.pdbqt.pdb
REMARK  5 active torsions:
REMARK  status: ('A' for Active; 'I' for Inactive)
REMARK    1  A    between atoms: C2*_2  and  O2*_16
REMARK    2  A    between atoms: C3*_3  and  O3*_21
REMARK    3  A    between atoms: C4*_4  and  C5*_18
REMARK    4  A    between atoms: C1*_5  and  N_6
REMARK    5  A    between atoms: C5*_18  and  O5*_19
REMARK                            x       y       z     vdW  Elec       q    Type
REMARK                         _______ _______ _______ _____ _____    ______ ____
ROOT
ATOM      1  O4* UNL     1      57.607  36.660  77.988  0.00  0.00    +0.000 OA
ATOM      2  C2* UNL     1      55.652  35.574  77.423  0.00  0.00    +0.000 A 
ATOM      3  C3* UNL     1      55.797  35.533  78.847  0.00  0.00    +0.000 A 
ATOM      4  C4* UNL     1      57.010  36.221  79.182  0.00  0.00    +0.000 A 
ATOM      5  C1* UNL     1      56.805  36.263  76.896  0.00  0.00    +0.000 A 
ENDROOT
BRANCH   5   6
ATOM      6  N   UNL     1      57.189  36.508  75.612  0.00  0.00    +0.000 N 
ATOM      7  C   UNL     1      58.368  36.108  74.993  0.00  0.00    +0.000 A 
ATOM      8  O   UNL     1      59.259  35.485  75.566  0.00  0.00    +0.000 OA
ATOM      9  N   UNL     1      58.487  36.482  73.657  0.00  0.00    +0.000 NA
ATOM     10  C   UNL     1      57.536  37.163  73.069  0.00  0.00    +0.000 A 
ATOM     11  N   UNL     1      56.378  37.584  73.700  0.00  0.00    +0.000 NA
ATOM     12  C   UNL     1      56.393  37.199  74.800  0.00  0.00    +0.000 A 
ATOM     13  N   UNL     1      57.695  37.501  71.765  0.00  0.00    +0.000 N 
ATOM     14  H   UNL     1      57.182  38.325  71.480  0.00  0.00    +0.000 HD
ATOM     15  H   UNL     1      58.659  37.470  71.453  0.00  0.00    +0.000 HD
ENDBRANCH   5   6
BRANCH   2  16
ATOM     16  O2* UNL     1      54.973  34.575  76.782  0.00  0.00    +0.000 OA
ATOM     17  H2* UNL     1      54.885  33.773  77.342  0.00  0.00    +0.000 HD
ENDBRANCH   2  16
BRANCH   3  18
ATOM     18  O3* UNL     1      55.334  34.470  79.573  0.00  0.00    +0.000 OA
ATOM     19  H3* UNL     1      54.670  34.775  80.219  0.00  0.00    +0.000 HD
ENDBRANCH   3  18
BRANCH   4  20
ATOM     20  C5* UNL     1      57.700  36.201  80.409  0.00  0.00    +0.000 C 
BRANCH  20  21
ATOM     21  O5* UNL     1      58.359  36.178  81.564  0.00  0.00    +0.000 OA
ATOM     22  H5* UNL     1      58.675  35.276  81.748  0.00  0.00    +0.000 HD
ENDBRANCH  20  21
ENDBRANCH   4  20
TORSDOF 5
ENDMDL
MODEL 6
REMARK VINA RESULT:      -5.3      3.283      4.685
REMARK  Name = 5azacytidine.pdbqt.pdb
REMARK  5 active torsions:
REMARK  status: ('A' for Active; 'I' for Inactive)
REMARK    1  A    between atoms: C2*_2  and  O2*_16
REMARK    2  A    between atoms: C3*_3  and  O3*_21
REMARK    3  A    between atoms: C4*_4  and  C5*_18
REMARK    4  A    between atoms: C1*_5  and  N_6
REMARK    5  A    between atoms: C5*_18  and  O5*_19
REMARK                            x       y       z     vdW  Elec       q    Type
REMARK                         _______ _______ _______ _____ _____    ______ ____
ROOT
ATOM      1  O4* UNL     1      57.840  36.812  79.201  0.00  0.00    +0.000 OA
ATOM      2  C2* UNL     1      56.537  36.052  77.456  0.00  0.00    +0.000 A 
ATOM      3  C3* UNL     1      55.747  36.036  78.650  0.00  0.00    +0.000 A 
ATOM      4  C4* UNL     1      56.568  36.522  79.722  0.00  0.00    +0.000 A 
ATOM      5  C1* UNL     1      57.853  36.518  77.821  0.00  0.00    +0.000 A 
ENDROOT
BRANCH   5   6
ATOM      6  N   UNL     1      58.990  36.650  77.081  0.00  0.00    +0.000 N 
ATOM      7  C   UNL     1      60.170  35.927  77.213  0.00  0.00    +0.000 A 
ATOM      8  O   UNL     1      60.348  35.067  78.072  0.00  0.00    +0.000 OA
ATOM      9  N   UNL     1      61.168  36.260  76.301  0.00  0.00    +0.000 NA
ATOM     10  C   UNL     1      60.967  37.193  75.405  0.00  0.00    +0.000 A 
ATOM     11  N   UNL     1      59.800  37.930  75.299  0.00  0.00    +0.000 NA
ATOM     12  C   UNL     1      59.046  37.550  76.102  0.00  0.00    +0.000 A 
ATOM     13  N   UNL     1      61.968  37.480  74.535  0.00  0.00    +0.000 N 
ATOM     14  H   UNL     1      61.942  38.420  74.162  0.00  0.00    +0.000 HD
ATOM     15  H   UNL     1      62.880  37.172  74.850  0.00  0.00    +0.000 HD
ENDBRANCH   5   6
BRANCH   2  16
ATOM     16  O2* UNL     1      56.269  35.160  76.455  0.00  0.00    +0.000 OA
ATOM     17  H2* UNL     1      55.492  35.432  75.919  0.00  0.00    +0.000 HD
ENDBRANCH   2  16
BRANCH   3  18
ATOM     18  O3* UNL     1      54.776  35.093  78.842  0.00  0.00    +0.000 OA
ATOM     19  H3* UNL     1      54.904  34.657  79.705  0.00  0.00    +0.000 HD
ENDBRANCH   3  18
BRANCH   4  20
ATOM     20  C5* UNL     1      56.320  36.430  81.105  0.00  0.00    +0.000 C 
BRANCH  20  21
ATOM     21  O5* UNL     1      56.093  36.334  82.412  0.00  0.00    +0.000 OA
ATOM     22  H5* UNL     1      55.167  36.081  82.571  0.00  0.00    +0.000 HD
ENDBRANCH  20  21
ENDBRANCH   4  20
TORSDOF 5
ENDMDL
MODEL 7
REMARK VINA RESULT:      -4.9     17.083     18.766
REMARK  Name = 5azacytidine.pdbqt.pdb
REMARK  5 active torsions:
REMARK  status: ('A' for Active; 'I' for Inactive)
REMARK    1  A    between atoms: C2*_2  and  O2*_16
REMARK    2  A    between atoms: C3*_3  and  O3*_21
REMARK    3  A    between atoms: C4*_4  and  C5*_18
REMARK    4  A    between atoms: C1*_5  and  N_6
REMARK    5  A    between atoms: C5*_18  and  O5*_19
REMARK                            x       y       z     vdW  Elec       q    Type
REMARK                         _______ _______ _______ _____ _____    ______ ____
ROOT
ATOM      1  O4* UNL     1      44.357  25.102  83.655  0.00  0.00    +0.000 OA
ATOM      2  C2* UNL     1      43.539  27.258  83.592  0.00  0.00    +0.000 A 
ATOM      3  C3* UNL     1      44.967  27.319  83.676  0.00  0.00    +0.000 A 
ATOM      4  C4* UNL     1      45.460  25.971  83.704  0.00  0.00    +0.000 A 
ATOM      5  C1* UNL     1      43.169  25.863  83.603  0.00  0.00    +0.000 A 
ENDROOT
BRANCH   5   6
ATOM      6  N   UNL     1      41.945  25.265  83.613  0.00  0.00    +0.000 N 
ATOM      7  C   UNL     1      41.305  24.635  82.552  0.00  0.00    +0.000 A 
ATOM      8  O   UNL     1      41.775  24.569  81.418  0.00  0.00    +0.000 OA
ATOM      9  N   UNL     1      40.061  24.088  82.856  0.00  0.00    +0.000 NA
ATOM     10  C   UNL     1      39.569  24.186  84.065  0.00  0.00    +0.000 A 
ATOM     11  N   UNL     1      40.198  24.840  85.110  0.00  0.00    +0.000 NA
ATOM     12  C   UNL     1      41.227  25.239  84.734  0.00  0.00    +0.000 A 
ATOM     13  N   UNL     1      38.355  23.634  84.315  0.00  0.00    +0.000 N 
ATOM     14  H   UNL     1      37.851  24.060  85.082  0.00  0.00    +0.000 HD
ATOM     15  H   UNL     1      37.804  23.471  83.481  0.00  0.00    +0.000 HD
ENDBRANCH   5   6
BRANCH   2  16
ATOM     16  O2* UNL     1      42.786  28.275  84.110  0.00  0.00    +0.000 OA
ATOM     17  H2* UNL     1      42.954  29.127  83.651  0.00  0.00    +0.000 HD
ENDBRANCH   2  16
BRANCH   3  18
ATOM     18  O3* UNL     1      45.593  28.339  84.336  0.00  0.00    +0.000 OA
ATOM     19  H3* UNL     1      46.298  27.981  84.907  0.00  0.00    +0.000 HD
ENDBRANCH   3  18
BRANCH   4  20
ATOM     20  C5* UNL     1      46.752  25.534  84.053  0.00  0.00    +0.000 C 
BRANCH  20  21
ATOM     21  O5* UNL     1      47.975  25.124  84.373  0.00  0.00    +0.000 OA
ATOM     22  H5* UNL     1      48.269  24.437  83.750  0.00  0.00    +0.000 HD
ENDBRANCH  20  21
ENDBRANCH   4  20
TORSDOF 5
ENDMDL
MODEL 8
REMARK VINA RESULT:      -4.9     11.934     13.078
REMARK  Name = 5azacytidine.pdbqt.pdb
REMARK  5 active torsions:
REMARK  status: ('A' for Active; 'I' for Inactive)
REMARK    1  A    between atoms: C2*_2  and  O2*_16
REMARK    2  A    between atoms: C3*_3  and  O3*_21
REMARK    3  A    between atoms: C4*_4  and  C5*_18
REMARK    4  A    between atoms: C1*_5  and  N_6
REMARK    5  A    between atoms: C5*_18  and  O5*_19
REMARK                            x       y       z     vdW  Elec       q    Type
REMARK                         _______ _______ _______ _____ _____    ______ ____
ROOT
ATOM      1  O4* UNL     1      45.223  37.777  80.136  0.00  0.00    +0.000 OA
ATOM      2  C2* UNL     1      46.551  38.167  81.981  0.00  0.00    +0.000 A 
ATOM      3  C3* UNL     1      47.287  38.534  80.810  0.00  0.00    +0.000 A 
ATOM      4  C4* UNL     1      46.444  38.296  79.673  0.00  0.00    +0.000 A 
ATOM      5  C1* UNL     1      45.268  37.673  81.543  0.00  0.00    +0.000 A 
ENDROOT
BRANCH   5   6
ATOM      6  N   UNL     1      44.230  37.136  82.245  0.00  0.00    +0.000 N 
ATOM      7  C   UNL     1      43.708  35.854  82.130  0.00  0.00    +0.000 A 
ATOM      8  O   UNL     1      44.117  35.023  81.322  0.00  0.00    +0.000 OA
ATOM      9  N   UNL     1      42.655  35.567  82.995  0.00  0.00    +0.000 NA
ATOM     10  C   UNL     1      42.220  36.472  83.836  0.00  0.00    +0.000 A 
ATOM     11  N   UNL     1      42.725  37.757  83.925  0.00  0.00    +0.000 NA
ATOM     12  C   UNL     1      43.603  37.865  83.165  0.00  0.00    +0.000 A 
ATOM     13  N   UNL     1      41.194  36.145  84.662  0.00  0.00    +0.000 N 
ATOM     14  H   UNL     1      40.643  36.933  84.977  0.00  0.00    +0.000 HD
ATOM     15  H   UNL     1      40.656  35.348  84.345  0.00  0.00    +0.000 HD
ENDBRANCH   5   6
BRANCH   2  16
ATOM     16  O2* UNL     1      47.219  37.738  83.095  0.00  0.00    +0.000 OA
ATOM     17  H2* UNL     1      47.640  36.861  82.955  0.00  0.00    +0.000 HD
ENDBRANCH   2  16
BRANCH   3  18
ATOM     18  O3* UNL     1      48.645  38.389  80.755  0.00  0.00    +0.000 OA
ATOM     19  H3* UNL     1      48.876  37.443  80.700  0.00  0.00    +0.000 HD
ENDBRANCH   3  18
BRANCH   4  20
ATOM     20  C5* UNL     1      46.820  38.246  78.317  0.00  0.00    +0.000 C 
BRANCH  20  21
ATOM     21  O5* UNL     1      47.182  38.208  77.039  0.00  0.00    +0.000 OA
ATOM     22  H5* UNL     1      46.437  37.905  76.491  0.00  0.00    +0.000 HD
ENDBRANCH  20  21
ENDBRANCH   4  20
TORSDOF 5
ENDMDL
MODEL 9
REMARK VINA RESULT:      -4.8      8.633     10.229
REMARK  Name = 5azacytidine.pdbqt.pdb
REMARK  5 active torsions:
REMARK  status: ('A' for Active; 'I' for Inactive)
REMARK    1  A    between atoms: C2*_2  and  O2*_16
REMARK    2  A    between atoms: C3*_3  and  O3*_21
REMARK    3  A    between atoms: C4*_4  and  C5*_18
REMARK    4  A    between atoms: C1*_5  and  N_6
REMARK    5  A    between atoms: C5*_18  and  O5*_19
REMARK                            x       y       z     vdW  Elec       q    Type
REMARK                         _______ _______ _______ _____ _____    ______ ____
ROOT
ATOM      1  O4* UNL     1      57.634  35.994  88.461  0.00  0.00    +0.000 OA
ATOM      2  C2* UNL     1      57.661  35.268  86.272  0.00  0.00    +0.000 A 
ATOM      3  C3* UNL     1      58.774  36.146  86.470  0.00  0.00    +0.000 A 
ATOM      4  C4* UNL     1      58.749  36.580  87.837  0.00  0.00    +0.000 A 
ATOM      5  C1* UNL     1      56.943  35.200  87.521  0.00  0.00    +0.000 A 
ENDROOT
BRANCH   5   6
ATOM      6  N   UNL     1      55.782  34.566  87.850  0.00  0.00    +0.000 N 
ATOM      7  C   UNL     1      54.534  34.732  87.261  0.00  0.00    +0.000 A 
ATOM      8  O   UNL     1      54.313  35.530  86.353  0.00  0.00    +0.000 OA
ATOM      9  N   UNL     1      53.523  33.933  87.788  0.00  0.00    +0.000 NA
ATOM     10  C   UNL     1      53.774  33.103  88.769  0.00  0.00    +0.000 A 
ATOM     11  N   UNL     1      55.013  32.964  89.372  0.00  0.00    +0.000 NA
ATOM     12  C   UNL     1      55.769  33.671  88.835  0.00  0.00    +0.000 A 
ATOM     13  N   UNL     1      52.758  32.342  89.247  0.00  0.00    +0.000 N 
ATOM     14  H   UNL     1      52.873  32.046  90.208  0.00  0.00    +0.000 HD
ATOM     15  H   UNL     1      51.839  32.703  89.020  0.00  0.00    +0.000 HD
ENDBRANCH   5   6
BRANCH   2  16
ATOM     16  O2* UNL     1      57.093  35.162  85.032  0.00  0.00    +0.000 OA
ATOM     17  H2* UNL     1      56.864  34.233  84.811  0.00  0.00    +0.000 HD
ENDBRANCH   2  16
BRANCH   3  18
ATOM     18  O3* UNL     1      59.232  36.944  85.458  0.00  0.00    +0.000 OA
ATOM     19  H3* UNL     1      58.867  36.640  84.606  0.00  0.00    +0.000 HD
ENDBRANCH   3  18
BRANCH   4  20
ATOM     20  C5* UNL     1      59.466  37.645  88.416  0.00  0.00    +0.000 C 
BRANCH  20  21
ATOM     21  O5* UNL     1      60.151  38.647  88.958  0.00  0.00    +0.000 OA
ATOM     22  H5* UNL     1      60.384  38.431  89.877  0.00  0.00    +0.000 HD
ENDBRANCH  20  21
ENDBRANCH   4  20
TORSDOF 5
ENDMDL
