MODEL 1
REMARK VINA RESULT:      -7.2      0.000      0.000
REMARK  Name = 60953_Capecitabine.pdbqt.pdb
REMARK  6 active torsions:
REMARK  status: ('A' for Active; 'I' for Inactive)
REMARK    1  A    between atoms: N_4  and  C_16
REMARK    2  A    between atoms: C_11  and  O_23
REMARK    3  A    between atoms: C_14  and  O_19
REMARK    4  A    between atoms: C_15  and  O_21
REMARK    5  A    between atoms: O_23  and  C_24
REMARK    6  A    between atoms: C_25  and  C_26
REMARK                            x       y       z     vdW  Elec       q    Type
REMARK                         _______ _______ _______ _____ _____    ______ ____
ROOT
ATOM      1  F   UNL     1      59.165  38.462  76.623  0.00  0.00    +0.000 F 
ATOM      2  O   UNL     1      55.248  35.181  78.235  0.00  0.00    +0.000 OA
ATOM      3  O   UNL     1      55.006  37.350  74.101  0.00  0.00    +0.000 OA
ATOM      4  N   UNL     1      57.195  36.337  78.756  0.00  0.00    +0.000 N 
ATOM      5  N   UNL     1      56.025  36.681  76.689  0.00  0.00    +0.000 NA
ATOM      6  N   UNL     1      56.911  38.205  75.127  0.00  0.00    +0.000 N 
ATOM      7  C   UNL     1      58.052  37.271  78.295  0.00  0.00    +0.000 C 
ATOM      8  C   UNL     1      56.096  36.014  77.920  0.00  0.00    +0.000 C 
ATOM      9  C   UNL     1      58.062  37.978  77.220  0.00  0.00    +0.000 C 
ATOM     10  C   UNL     1      56.919  37.560  76.346  0.00  0.00    +0.000 C 
ATOM     11  C   UNL     1      56.004  38.054  74.101  0.00  0.00    +0.000 C 
ATOM     12  H   UNL     1      57.660  38.851  74.919  0.00  0.00    +0.000 HD
ENDROOT
BRANCH   4  16
ATOM     13  O   UNL     1      57.125  36.510  81.169  0.00  0.00    +0.000 OA
ATOM     14  C   UNL     1      58.040  34.543  80.385  0.00  0.00    +0.000 A 
ATOM     15  C   UNL     1      58.119  34.538  81.814  0.00  0.00    +0.000 A 
ATOM     16  C   UNL     1      57.439  35.796  79.991  0.00  0.00    +0.000 A 
ATOM     17  C   UNL     1      57.534  35.763  82.285  0.00  0.00    +0.000 A 
ATOM     18  C   UNL     1      57.560  36.403  83.631  0.00  0.00    +0.000 C 
BRANCH  14  19
ATOM     19  O   UNL     1      58.967  33.850  79.659  0.00  0.00    +0.000 OA
ATOM     20  H   UNL     1      59.786  34.372  79.508  0.00  0.00    +0.000 HD
ENDBRANCH  14  19
BRANCH  15  21
ATOM     21  O   UNL     1      59.131  33.881  82.463  0.00  0.00    +0.000 OA
ATOM     22  H   UNL     1      59.958  34.398  82.417  0.00  0.00    +0.000 HD
ENDBRANCH  15  21
ENDBRANCH   4  16
BRANCH  11  23
ATOM     23  O   UNL     1      56.395  38.848  73.059  0.00  0.00    +0.000 OA
BRANCH  23  24
ATOM     24  C   UNL     1      56.042  40.128  73.143  0.00  0.00    +0.000 C 
ATOM     25  C   UNL     1      55.637  41.603  73.237  0.00  0.00    +0.000 C 
BRANCH  25  26
ATOM     26  C   UNL     1      55.233  43.078  73.330  0.00  0.00    +0.000 C 
ATOM     27  C   UNL     1      54.835  44.553  73.427  0.00  0.00    +0.000 C 
ATOM     28  C   UNL     1      54.448  46.032  73.528  0.00  0.00    +0.000 C 
ENDBRANCH  25  26
ENDBRANCH  23  24
ENDBRANCH  11  23
TORSDOF 6
ENDMDL
MODEL 2
REMARK VINA RESULT:      -6.9      1.930      2.494
REMARK  Name = 60953_Capecitabine.pdbqt.pdb
REMARK  6 active torsions:
REMARK  status: ('A' for Active; 'I' for Inactive)
REMARK    1  A    between atoms: N_4  and  C_16
REMARK    2  A    between atoms: C_11  and  O_23
REMARK    3  A    between atoms: C_14  and  O_19
REMARK    4  A    between atoms: C_15  and  O_21
REMARK    5  A    between atoms: O_23  and  C_24
REMARK    6  A    between atoms: C_25  and  C_26
REMARK                            x       y       z     vdW  Elec       q    Type
REMARK                         _______ _______ _______ _____ _____    ______ ____
ROOT
ATOM      1  F   UNL     1      59.560  39.327  74.757  0.00  0.00    +0.000 F 
ATOM      2  O   UNL     1      56.199  35.186  75.269  0.00  0.00    +0.000 OA
ATOM      3  O   UNL     1      56.152  37.849  71.426  0.00  0.00    +0.000 OA
ATOM      4  N   UNL     1      57.766  36.591  76.254  0.00  0.00    +0.000 N 
ATOM      5  N   UNL     1      56.879  37.010  74.063  0.00  0.00    +0.000 NA
ATOM      6  N   UNL     1      57.662  38.881  72.864  0.00  0.00    +0.000 N 
ATOM      7  C   UNL     1      58.473  37.723  76.060  0.00  0.00    +0.000 C 
ATOM      8  C   UNL     1      56.896  36.197  75.204  0.00  0.00    +0.000 C 
ATOM      9  C   UNL     1      58.502  38.568  75.090  0.00  0.00    +0.000 C 
ATOM     10  C   UNL     1      57.616  38.079  73.986  0.00  0.00    +0.000 C 
ATOM     11  C   UNL     1      56.973  38.716  71.683  0.00  0.00    +0.000 C 
ATOM     12  H   UNL     1      58.286  39.676  72.867  0.00  0.00    +0.000 HD
ENDROOT
BRANCH   4  16
ATOM     13  O   UNL     1      57.046  36.167  78.525  0.00  0.00    +0.000 OA
ATOM     14  C   UNL     1      58.915  34.978  77.885  0.00  0.00    +0.000 A 
ATOM     15  C   UNL     1      58.641  34.681  79.258  0.00  0.00    +0.000 A 
ATOM     16  C   UNL     1      57.924  35.932  77.444  0.00  0.00    +0.000 A 
ATOM     17  C   UNL     1      57.467  35.420  79.636  0.00  0.00    +0.000 A 
ATOM     18  C   UNL     1      56.874  35.690  80.976  0.00  0.00    +0.000 C 
BRANCH  14  19
ATOM     19  O   UNL     1      60.200  34.907  77.426  0.00  0.00    +0.000 OA
ATOM     20  H   UNL     1      60.533  35.780  77.120  0.00  0.00    +0.000 HD
ENDBRANCH  14  19
BRANCH  15  21
ATOM     21  O   UNL     1      59.651  34.364  80.128  0.00  0.00    +0.000 OA
ATOM     22  H   UNL     1      59.286  34.099  80.993  0.00  0.00    +0.000 HD
ENDBRANCH  15  21
ENDBRANCH   4  16
BRANCH  11  23
ATOM     23  O   UNL     1      57.347  39.710  70.823  0.00  0.00    +0.000 OA
BRANCH  23  24
ATOM     24  C   UNL     1      56.956  40.939  71.153  0.00  0.00    +0.000 C 
ATOM     25  C   UNL     1      56.505  42.354  71.532  0.00  0.00    +0.000 C 
BRANCH  25  26
ATOM     26  C   UNL     1      56.054  43.768  71.908  0.00  0.00    +0.000 C 
ATOM     27  C   UNL     1      55.609  45.185  72.283  0.00  0.00    +0.000 C 
ATOM     28  C   UNL     1      55.175  46.607  72.652  0.00  0.00    +0.000 C 
ENDBRANCH  25  26
ENDBRANCH  23  24
ENDBRANCH  11  23
TORSDOF 6
ENDMDL
MODEL 3
REMARK VINA RESULT:      -6.5      2.260      2.464
REMARK  Name = 60953_Capecitabine.pdbqt.pdb
REMARK  6 active torsions:
REMARK  status: ('A' for Active; 'I' for Inactive)
REMARK    1  A    between atoms: N_4  and  C_16
REMARK    2  A    between atoms: C_11  and  O_23
REMARK    3  A    between atoms: C_14  and  O_19
REMARK    4  A    between atoms: C_15  and  O_21
REMARK    5  A    between atoms: O_23  and  C_24
REMARK    6  A    between atoms: C_25  and  C_26
REMARK                            x       y       z     vdW  Elec       q    Type
REMARK                         _______ _______ _______ _____ _____    ______ ____
ROOT
ATOM      1  F   UNL     1      58.761  39.361  75.363  0.00  0.00    +0.000 F 
ATOM      2  O   UNL     1      55.637  35.094  76.218  0.00  0.00    +0.000 OA
ATOM      3  O   UNL     1      54.917  37.891  72.542  0.00  0.00    +0.000 OA
ATOM      4  N   UNL     1      57.298  36.514  77.006  0.00  0.00    +0.000 N 
ATOM      5  N   UNL     1      56.070  36.982  74.998  0.00  0.00    +0.000 NA
ATOM      6  N   UNL     1      56.604  38.921  73.770  0.00  0.00    +0.000 N 
ATOM      7  C   UNL     1      57.935  37.675  76.751  0.00  0.00    +0.000 C 
ATOM      8  C   UNL     1      56.287  36.129  76.088  0.00  0.00    +0.000 C 
ATOM      9  C   UNL     1      57.789  38.556  75.824  0.00  0.00    +0.000 C 
ATOM     10  C   UNL     1      56.755  38.078  74.852  0.00  0.00    +0.000 C 
ATOM     11  C   UNL     1      55.743  38.776  72.705  0.00  0.00    +0.000 C 
ATOM     12  H   UNL     1      57.198  39.736  73.709  0.00  0.00    +0.000 HD
ENDROOT
BRANCH   4  16
ATOM     13  O   UNL     1      57.062  36.099  79.378  0.00  0.00    +0.000 OA
ATOM     14  C   UNL     1      58.639  34.777  78.336  0.00  0.00    +0.000 A 
ATOM     15  C   UNL     1      58.650  34.473  79.735  0.00  0.00    +0.000 A 
ATOM     16  C   UNL     1      57.659  35.817  78.129  0.00  0.00    +0.000 A 
ATOM     17  C   UNL     1      57.653  35.295  80.365  0.00  0.00    +0.000 A 
ATOM     18  C   UNL     1      57.394  35.582  81.804  0.00  0.00    +0.000 C 
BRANCH  14  19
ATOM     19  O   UNL     1      59.781  34.613  77.604  0.00  0.00    +0.000 OA
ATOM     20  H   UNL     1      60.175  35.473  77.334  0.00  0.00    +0.000 HD
ENDBRANCH  14  19
BRANCH  15  21
ATOM     21  O   UNL     1      59.796  34.056  80.359  0.00  0.00    +0.000 OA
ATOM     22  H   UNL     1      60.576  34.247  79.802  0.00  0.00    +0.000 HD
ENDBRANCH  15  21
ENDBRANCH   4  16
BRANCH  11  23
ATOM     23  O   UNL     1      55.951  39.813  71.838  0.00  0.00    +0.000 OA
BRANCH  23  24
ATOM     24  C   UNL     1      54.885  40.563  71.567  0.00  0.00    +0.000 C 
ATOM     25  C   UNL     1      53.658  41.425  71.253  0.00  0.00    +0.000 C 
BRANCH  25  26
ATOM     26  C   UNL     1      52.431  42.286  70.938  0.00  0.00    +0.000 C 
ATOM     27  C   UNL     1      51.209  43.153  70.621  0.00  0.00    +0.000 C 
ATOM     28  C   UNL     1      49.994  44.029  70.299  0.00  0.00    +0.000 C 
ENDBRANCH  25  26
ENDBRANCH  23  24
ENDBRANCH  11  23
TORSDOF 6
ENDMDL
MODEL 4
REMARK VINA RESULT:      -6.4      3.109      4.065
REMARK  Name = 60953_Capecitabine.pdbqt.pdb
REMARK  6 active torsions:
REMARK  status: ('A' for Active; 'I' for Inactive)
REMARK    1  A    between atoms: N_4  and  C_16
REMARK    2  A    between atoms: C_11  and  O_23
REMARK    3  A    between atoms: C_14  and  O_19
REMARK    4  A    between atoms: C_15  and  O_21
REMARK    5  A    between atoms: O_23  and  C_24
REMARK    6  A    between atoms: C_25  and  C_26
REMARK                            x       y       z     vdW  Elec       q    Type
REMARK                         _______ _______ _______ _____ _____    ______ ____
ROOT
ATOM      1  F   UNL     1      58.817  39.381  75.281  0.00  0.00    +0.000 F 
ATOM      2  O   UNL     1      55.646  35.145  76.116  0.00  0.00    +0.000 OA
ATOM      3  O   UNL     1      55.003  37.924  72.413  0.00  0.00    +0.000 OA
ATOM      4  N   UNL     1      57.307  36.556  76.919  0.00  0.00    +0.000 N 
ATOM      5  N   UNL     1      56.112  37.022  74.891  0.00  0.00    +0.000 NA
ATOM      6  N   UNL     1      56.680  38.948  73.659  0.00  0.00    +0.000 N 
ATOM      7  C   UNL     1      57.957  37.711  76.668  0.00  0.00    +0.000 C 
ATOM      8  C   UNL     1      56.306  36.173  75.990  0.00  0.00    +0.000 C 
ATOM      9  C   UNL     1      57.832  38.586  75.733  0.00  0.00    +0.000 C 
ATOM     10  C   UNL     1      56.809  38.110  74.748  0.00  0.00    +0.000 C 
ATOM     11  C   UNL     1      55.834  38.803  72.582  0.00  0.00    +0.000 C 
ATOM     12  H   UNL     1      57.282  39.758  73.602  0.00  0.00    +0.000 HD
ENDROOT
BRANCH   4  16
ATOM     13  O   UNL     1      57.020  36.146  79.288  0.00  0.00    +0.000 OA
ATOM     14  C   UNL     1      58.624  34.827  78.284  0.00  0.00    +0.000 A 
ATOM     15  C   UNL     1      58.605  34.527  79.683  0.00  0.00    +0.000 A 
ATOM     16  C   UNL     1      57.645  35.864  78.053  0.00  0.00    +0.000 A 
ATOM     17  C   UNL     1      57.592  35.347  80.290  0.00  0.00    +0.000 A 
ATOM     18  C   UNL     1      57.300  35.637  81.721  0.00  0.00    +0.000 C 
BRANCH  14  19
ATOM     19  O   UNL     1      59.782  34.665  77.578  0.00  0.00    +0.000 OA
ATOM     20  H   UNL     1      59.939  33.726  77.333  0.00  0.00    +0.000 HD
ENDBRANCH  14  19
BRANCH  15  21
ATOM     21  O   UNL     1      59.739  34.116  80.333  0.00  0.00    +0.000 OA
ATOM     22  H   UNL     1      60.530  34.308  79.794  0.00  0.00    +0.000 HD
ENDBRANCH  15  21
ENDBRANCH   4  16
BRANCH  11  23
ATOM     23  O   UNL     1      56.063  39.833  71.712  0.00  0.00    +0.000 OA
BRANCH  23  24
ATOM     24  C   UNL     1      56.243  39.486  70.440  0.00  0.00    +0.000 C 
ATOM     25  C   UNL     1      56.453  39.087  68.975  0.00  0.00    +0.000 C 
BRANCH  25  26
ATOM     26  C   UNL     1      56.664  38.689  67.511  0.00  0.00    +0.000 C 
ATOM     27  C   UNL     1      56.872  38.297  66.046  0.00  0.00    +0.000 C 
ATOM     28  C   UNL     1      57.079  37.917  64.576  0.00  0.00    +0.000 C 
ENDBRANCH  25  26
ENDBRANCH  23  24
ENDBRANCH  11  23
TORSDOF 6
ENDMDL
MODEL 5
REMARK VINA RESULT:      -6.3      5.713      8.226
REMARK  Name = 60953_Capecitabine.pdbqt.pdb
REMARK  6 active torsions:
REMARK  status: ('A' for Active; 'I' for Inactive)
REMARK    1  A    between atoms: N_4  and  C_16
REMARK    2  A    between atoms: C_11  and  O_23
REMARK    3  A    between atoms: C_14  and  O_19
REMARK    4  A    between atoms: C_15  and  O_21
REMARK    5  A    between atoms: O_23  and  C_24
REMARK    6  A    between atoms: C_25  and  C_26
REMARK                            x       y       z     vdW  Elec       q    Type
REMARK                         _______ _______ _______ _____ _____    ______ ____
ROOT
ATOM      1  F   UNL     1      60.048  35.176  72.481  0.00  0.00    +0.000 F 
ATOM      2  O   UNL     1      59.907  35.072  77.835  0.00  0.00    +0.000 OA
ATOM      3  O   UNL     1      62.401  31.924  75.444  0.00  0.00    +0.000 OA
ATOM      4  N   UNL     1      59.066  35.948  75.855  0.00  0.00    +0.000 N 
ATOM      5  N   UNL     1      60.581  34.087  75.881  0.00  0.00    +0.000 NA
ATOM      6  N   UNL     1      61.266  33.156  73.829  0.00  0.00    +0.000 N 
ATOM      7  C   UNL     1      59.084  35.797  74.515  0.00  0.00    +0.000 C 
ATOM      8  C   UNL     1      59.849  35.036  76.608  0.00  0.00    +0.000 C 
ATOM      9  C   UNL     1      59.668  34.945  73.749  0.00  0.00    +0.000 C 
ATOM     10  C   UNL     1      60.526  34.043  74.583  0.00  0.00    +0.000 C 
ATOM     11  C   UNL     1      62.145  32.197  74.281  0.00  0.00    +0.000 C 
ATOM     12  H   UNL     1      61.196  33.206  72.822  0.00  0.00    +0.000 HD
ENDROOT
BRANCH   4  16
ATOM     13  O   UNL     1      57.029  36.650  76.959  0.00  0.00    +0.000 OA
ATOM     14  C   UNL     1      58.470  38.375  76.439  0.00  0.00    +0.000 A 
ATOM     15  C   UNL     1      57.290  38.935  77.024  0.00  0.00    +0.000 A 
ATOM     16  C   UNL     1      58.283  36.944  76.378  0.00  0.00    +0.000 A 
ATOM     17  C   UNL     1      56.410  37.847  77.353  0.00  0.00    +0.000 A 
ATOM     18  C   UNL     1      54.974  37.839  77.748  0.00  0.00    +0.000 C 
BRANCH  14  19
ATOM     19  O   UNL     1      59.193  39.114  75.546  0.00  0.00    +0.000 OA
ATOM     20  H   UNL     1      60.162  38.995  75.665  0.00  0.00    +0.000 HD
ENDBRANCH  14  19
BRANCH  15  21
ATOM     21  O   UNL     1      56.853  40.186  76.675  0.00  0.00    +0.000 OA
ATOM     22  H   UNL     1      57.157  40.414  75.776  0.00  0.00    +0.000 HD
ENDBRANCH  15  21
ENDBRANCH   4  16
BRANCH  11  23
ATOM     23  O   UNL     1      62.694  31.570  73.197  0.00  0.00    +0.000 OA
BRANCH  23  24
ATOM     24  C   UNL     1      61.931  31.526  72.106  0.00  0.00    +0.000 C 
ATOM     25  C   UNL     1      61.052  31.476  70.853  0.00  0.00    +0.000 C 
BRANCH  25  26
ATOM     26  C   UNL     1      60.172  31.425  69.601  0.00  0.00    +0.000 C 
ATOM     27  C   UNL     1      59.291  31.368  68.350  0.00  0.00    +0.000 C 
ATOM     28  C   UNL     1      58.404  31.299  67.101  0.00  0.00    +0.000 C 
ENDBRANCH  25  26
ENDBRANCH  23  24
ENDBRANCH  11  23
TORSDOF 6
ENDMDL
MODEL 6
REMARK VINA RESULT:      -6.2      5.204      7.941
REMARK  Name = 60953_Capecitabine.pdbqt.pdb
REMARK  6 active torsions:
REMARK  status: ('A' for Active; 'I' for Inactive)
REMARK    1  A    between atoms: N_4  and  C_16
REMARK    2  A    between atoms: C_11  and  O_23
REMARK    3  A    between atoms: C_14  and  O_19
REMARK    4  A    between atoms: C_15  and  O_21
REMARK    5  A    between atoms: O_23  and  C_24
REMARK    6  A    between atoms: C_25  and  C_26
REMARK                            x       y       z     vdW  Elec       q    Type
REMARK                         _______ _______ _______ _____ _____    ______ ____
ROOT
ATOM      1  F   UNL     1      62.364  35.431  76.488  0.00  0.00    +0.000 F 
ATOM      2  O   UNL     1      58.062  38.267  75.024  0.00  0.00    +0.000 OA
ATOM      3  O   UNL     1      62.337  39.480  73.574  0.00  0.00    +0.000 OA
ATOM      4  N   UNL     1      58.962  36.594  76.361  0.00  0.00    +0.000 N 
ATOM      5  N   UNL     1      60.340  38.042  75.033  0.00  0.00    +0.000 NA
ATOM      6  N   UNL     1      62.674  37.720  75.058  0.00  0.00    +0.000 N 
ATOM      7  C   UNL     1      60.125  36.037  76.755  0.00  0.00    +0.000 C 
ATOM      8  C   UNL     1      59.053  37.678  75.450  0.00  0.00    +0.000 C 
ATOM      9  C   UNL     1      61.352  36.315  76.484  0.00  0.00    +0.000 C 
ATOM     10  C   UNL     1      61.394  37.422  75.477  0.00  0.00    +0.000 C 
ATOM     11  C   UNL     1      63.060  38.679  74.148  0.00  0.00    +0.000 C 
ATOM     12  H   UNL     1      63.439  37.170  75.423  0.00  0.00    +0.000 HD
ENDROOT
BRANCH   4  16
ATOM     13  O   UNL     1      57.713  35.733  78.247  0.00  0.00    +0.000 OA
ATOM     14  C   UNL     1      56.528  35.786  76.269  0.00  0.00    +0.000 A 
ATOM     15  C   UNL     1      55.697  35.201  77.277  0.00  0.00    +0.000 A 
ATOM     16  C   UNL     1      57.800  36.091  76.883  0.00  0.00    +0.000 A 
ATOM     17  C   UNL     1      56.446  35.188  78.503  0.00  0.00    +0.000 A 
ATOM     18  C   UNL     1      56.190  34.491  79.795  0.00  0.00    +0.000 C 
BRANCH  14  19
ATOM     19  O   UNL     1      56.349  35.433  74.962  0.00  0.00    +0.000 OA
ATOM     20  H   UNL     1      56.303  34.458  74.844  0.00  0.00    +0.000 HD
ENDBRANCH  14  19
BRANCH  15  21
ATOM     21  O   UNL     1      54.750  34.264  76.955  0.00  0.00    +0.000 OA
ATOM     22  H   UNL     1      53.987  34.687  76.517  0.00  0.00    +0.000 HD
ENDBRANCH  15  21
ENDBRANCH   4  16
BRANCH  11  23
ATOM     23  O   UNL     1      64.416  38.606  73.992  0.00  0.00    +0.000 OA
BRANCH  23  24
ATOM     24  C   UNL     1      65.028  37.651  74.689  0.00  0.00    +0.000 C 
ATOM     25  C   UNL     1      65.734  36.553  75.492  0.00  0.00    +0.000 C 
BRANCH  25  26
ATOM     26  C   UNL     1      66.442  35.457  76.293  0.00  0.00    +0.000 C 
ATOM     27  C   UNL     1      67.143  34.359  77.097  0.00  0.00    +0.000 C 
ATOM     28  C   UNL     1      67.835  33.252  77.901  0.00  0.00    +0.000 C 
ENDBRANCH  25  26
ENDBRANCH  23  24
ENDBRANCH  11  23
TORSDOF 6
ENDMDL
MODEL 7
REMARK VINA RESULT:      -6.0     43.043     44.814
REMARK  Name = 60953_Capecitabine.pdbqt.pdb
REMARK  6 active torsions:
REMARK  status: ('A' for Active; 'I' for Inactive)
REMARK    1  A    between atoms: N_4  and  C_16
REMARK    2  A    between atoms: C_11  and  O_23
REMARK    3  A    between atoms: C_14  and  O_19
REMARK    4  A    between atoms: C_15  and  O_21
REMARK    5  A    between atoms: O_23  and  C_24
REMARK    6  A    between atoms: C_25  and  C_26
REMARK                            x       y       z     vdW  Elec       q    Type
REMARK                         _______ _______ _______ _____ _____    ______ ____
ROOT
ATOM      1  F   UNL     1      18.064  19.364  89.557  0.00  0.00    +0.000 F 
ATOM      2  O   UNL     1      21.375  15.606  91.457  0.00  0.00    +0.000 OA
ATOM      3  O   UNL     1      18.465  14.667  87.921  0.00  0.00    +0.000 OA
ATOM      4  N   UNL     1      20.442  17.719  91.698  0.00  0.00    +0.000 N 
ATOM      5  N   UNL     1      19.657  16.162  90.049  0.00  0.00    +0.000 NA
ATOM      6  N   UNL     1      17.918  16.823  88.605  0.00  0.00    +0.000 N 
ATOM      7  C   UNL     1      19.485  18.538  91.215  0.00  0.00    +0.000 C 
ATOM      8  C   UNL     1      20.545  16.437  91.098  0.00  0.00    +0.000 C 
ATOM      9  C   UNL     1      18.592  18.378  90.303  0.00  0.00    +0.000 C 
ATOM     10  C   UNL     1      18.778  17.038  89.662  0.00  0.00    +0.000 C 
ATOM     11  C   UNL     1      17.827  15.703  87.809  0.00  0.00    +0.000 C 
ATOM     12  H   UNL     1      17.285  17.566  88.341  0.00  0.00    +0.000 HD
ENDROOT
BRANCH   4  16
ATOM     13  O   UNL     1      20.634  18.532  93.970  0.00  0.00    +0.000 OA
ATOM     14  C   UNL     1      22.635  18.430  92.827  0.00  0.00    +0.000 A 
ATOM     15  C   UNL     1      22.884  18.982  94.123  0.00  0.00    +0.000 A 
ATOM     16  C   UNL     1      21.215  18.176  92.732  0.00  0.00    +0.000 A 
ATOM     17  C   UNL     1      21.631  19.027  94.825  0.00  0.00    +0.000 A 
ATOM     18  C   UNL     1      21.244  19.715  96.088  0.00  0.00    +0.000 C 
BRANCH  14  19
ATOM     19  O   UNL     1      23.445  18.774  91.782  0.00  0.00    +0.000 OA
ATOM     20  H   UNL     1      24.370  18.940  92.070  0.00  0.00    +0.000 HD
ENDBRANCH  14  19
BRANCH  15  21
ATOM     21  O   UNL     1      23.900  19.880  94.325  0.00  0.00    +0.000 OA
ATOM     22  H   UNL     1      24.725  19.414  94.558  0.00  0.00    +0.000 HD
ENDBRANCH  15  21
ENDBRANCH   4  16
BRANCH  11  23
ATOM     23  O   UNL     1      16.875  15.928  86.854  0.00  0.00    +0.000 OA
BRANCH  23  24
ATOM     24  C   UNL     1      16.934  15.143  85.780  0.00  0.00    +0.000 C 
ATOM     25  C   UNL     1      17.001  14.241  84.543  0.00  0.00    +0.000 C 
BRANCH  25  26
ATOM     26  C   UNL     1      17.066  13.341  83.307  0.00  0.00    +0.000 C 
ATOM     27  C   UNL     1      17.138  12.439  82.071  0.00  0.00    +0.000 C 
ATOM     28  C   UNL     1      17.220  11.531  80.840  0.00  0.00    +0.000 C 
ENDBRANCH  25  26
ENDBRANCH  23  24
ENDBRANCH  11  23
TORSDOF 6
ENDMDL
MODEL 8
REMARK VINA RESULT:      -6.0     55.913     58.228
REMARK  Name = 60953_Capecitabine.pdbqt.pdb
REMARK  6 active torsions:
REMARK  status: ('A' for Active; 'I' for Inactive)
REMARK    1  A    between atoms: N_4  and  C_16
REMARK    2  A    between atoms: C_11  and  O_23
REMARK    3  A    between atoms: C_14  and  O_19
REMARK    4  A    between atoms: C_15  and  O_21
REMARK    5  A    between atoms: O_23  and  C_24
REMARK    6  A    between atoms: C_25  and  C_26
REMARK                            x       y       z     vdW  Elec       q    Type
REMARK                         _______ _______ _______ _____ _____    ______ ____
ROOT
ATOM      1  F   UNL     1      11.884   4.077  99.975  0.00  0.00    +0.000 F 
ATOM      2  O   UNL     1      14.498   7.621  96.924  0.00  0.00    +0.000 OA
ATOM      3  O   UNL     1      13.641   3.295  95.371  0.00  0.00    +0.000 OA
ATOM      4  N   UNL     1      13.618   7.076  99.004  0.00  0.00    +0.000 N 
ATOM      5  N   UNL     1      13.747   5.478  97.218  0.00  0.00    +0.000 NA
ATOM      6  N   UNL     1      12.910   3.306  97.580  0.00  0.00    +0.000 N 
ATOM      7  C   UNL     1      13.081   6.065  99.717  0.00  0.00    +0.000 C 
ATOM      8  C   UNL     1      13.995   6.782  97.668  0.00  0.00    +0.000 C 
ATOM      9  C   UNL     1      12.855   4.831  99.432  0.00  0.00    +0.000 C 
ATOM     10  C   UNL     1      13.212   4.585  97.998  0.00  0.00    +0.000 C 
ATOM     11  C   UNL     1      13.112   2.758  96.333  0.00  0.00    +0.000 C 
ATOM     12  H   UNL     1      12.464   2.679  98.235  0.00  0.00    +0.000 HD
ENDROOT
BRANCH   4  16
ATOM     13  O   UNL     1      12.670   8.973 100.170  0.00  0.00    +0.000 OA
ATOM     14  C   UNL     1      14.948   9.108  99.835  0.00  0.00    +0.000 A 
ATOM     15  C   UNL     1      14.515  10.313 100.473  0.00  0.00    +0.000 A 
ATOM     16  C   UNL     1      13.778   8.286  99.626  0.00  0.00    +0.000 A 
ATOM     17  C   UNL     1      13.097  10.207 100.685  0.00  0.00    +0.000 A 
ATOM     18  C   UNL     1      12.089  11.233 101.073  0.00  0.00    +0.000 C 
BRANCH  14  19
ATOM     19  O   UNL     1      16.048   9.133  99.025  0.00  0.00    +0.000 OA
ATOM     20  H   UNL     1      15.815   9.328  98.090  0.00  0.00    +0.000 HD
ENDBRANCH  14  19
BRANCH  15  21
ATOM     21  O   UNL     1      15.163  11.501 100.253  0.00  0.00    +0.000 OA
ATOM     22  H   UNL     1      14.781  12.205 100.811  0.00  0.00    +0.000 HD
ENDBRANCH  15  21
ENDBRANCH   4  16
BRANCH  11  23
ATOM     23  O   UNL     1      12.629   1.480  96.339  0.00  0.00    +0.000 OA
BRANCH  23  24
ATOM     24  C   UNL     1      13.084   0.684  95.374  0.00  0.00    +0.000 C 
ATOM     25  C   UNL     1      13.606  -0.233  94.262  0.00  0.00    +0.000 C 
BRANCH  25  26
ATOM     26  C   UNL     1      14.125  -1.150  93.151  0.00  0.00    +0.000 C 
ATOM     27  C   UNL     1      14.638  -2.071  92.041  0.00  0.00    +0.000 C 
ATOM     28  C   UNL     1      15.140  -2.994  90.925  0.00  0.00    +0.000 C 
ENDBRANCH  25  26
ENDBRANCH  23  24
ENDBRANCH  11  23
TORSDOF 6
ENDMDL
MODEL 9
REMARK VINA RESULT:      -6.0      5.344      7.375
REMARK  Name = 60953_Capecitabine.pdbqt.pdb
REMARK  6 active torsions:
REMARK  status: ('A' for Active; 'I' for Inactive)
REMARK    1  A    between atoms: N_4  and  C_16
REMARK    2  A    between atoms: C_11  and  O_23
REMARK    3  A    between atoms: C_14  and  O_19
REMARK    4  A    between atoms: C_15  and  O_21
REMARK    5  A    between atoms: O_23  and  C_24
REMARK    6  A    between atoms: C_25  and  C_26
REMARK                            x       y       z     vdW  Elec       q    Type
REMARK                         _______ _______ _______ _____ _____    ______ ____
ROOT
ATOM      1  F   UNL     1      62.373  35.371  76.532  0.00  0.00    +0.000 F 
ATOM      2  O   UNL     1      58.062  38.192  75.063  0.00  0.00    +0.000 OA
ATOM      3  O   UNL     1      62.332  39.405  73.595  0.00  0.00    +0.000 OA
ATOM      4  N   UNL     1      58.969  36.528  76.407  0.00  0.00    +0.000 N 
ATOM      5  N   UNL     1      60.341  37.971  75.068  0.00  0.00    +0.000 NA
ATOM      6  N   UNL     1      62.675  37.653  75.088  0.00  0.00    +0.000 N 
ATOM      7  C   UNL     1      60.133  35.975  76.801  0.00  0.00    +0.000 C 
ATOM      8  C   UNL     1      59.055  37.607  75.489  0.00  0.00    +0.000 C 
ATOM      9  C   UNL     1      61.359  36.253  76.526  0.00  0.00    +0.000 C 
ATOM     10  C   UNL     1      61.396  37.355  75.512  0.00  0.00    +0.000 C 
ATOM     11  C   UNL     1      63.057  38.608  74.172  0.00  0.00    +0.000 C 
ATOM     12  H   UNL     1      63.442  37.107  75.454  0.00  0.00    +0.000 HD
ENDROOT
BRANCH   4  16
ATOM     13  O   UNL     1      57.744  35.616  78.285  0.00  0.00    +0.000 OA
ATOM     14  C   UNL     1      56.519  35.767  76.337  0.00  0.00    +0.000 A 
ATOM     15  C   UNL     1      55.698  35.158  77.339  0.00  0.00    +0.000 A 
ATOM     16  C   UNL     1      57.808  36.025  76.935  0.00  0.00    +0.000 A 
ATOM     17  C   UNL     1      56.472  35.084  78.548  0.00  0.00    +0.000 A 
ATOM     18  C   UNL     1      56.231  34.341  79.817  0.00  0.00    +0.000 C 
BRANCH  14  19
ATOM     19  O   UNL     1      56.305  35.469  75.021  0.00  0.00    +0.000 OA
ATOM     20  H   UNL     1      57.121  35.566  74.482  0.00  0.00    +0.000 HD
ENDBRANCH  14  19
BRANCH  15  21
ATOM     21  O   UNL     1      54.727  34.252  77.003  0.00  0.00    +0.000 OA
ATOM     22  H   UNL     1      53.963  34.705  76.599  0.00  0.00    +0.000 HD
ENDBRANCH  15  21
ENDBRANCH   4  16
BRANCH  11  23
ATOM     23  O   UNL     1      64.412  38.536  74.013  0.00  0.00    +0.000 OA
BRANCH  23  24
ATOM     24  C   UNL     1      65.139  39.002  75.027  0.00  0.00    +0.000 C 
ATOM     25  C   UNL     1      65.978  39.539  76.191  0.00  0.00    +0.000 C 
BRANCH  25  26
ATOM     26  C   UNL     1      66.818  40.076  77.354  0.00  0.00    +0.000 C 
ATOM     27  C   UNL     1      67.651  40.613  78.521  0.00  0.00    +0.000 C 
ATOM     28  C   UNL     1      68.476  41.148  79.696  0.00  0.00    +0.000 C 
ENDBRANCH  25  26
ENDBRANCH  23  24
ENDBRANCH  11  23
TORSDOF 6
ENDMDL
