MODEL 1
REMARK VINA RESULT:      -7.0      0.000      0.000
REMARK  Name = 6223_Gliotoxin.pdbqt.pdb
REMARK  3 active torsions:
REMARK  status: ('A' for Active; 'I' for Inactive)
REMARK    1  A    between atoms: C_10  and  C_21
REMARK    2  A    between atoms: C_14  and  O_19
REMARK    3  A    between atoms: C_21  and  O_22
REMARK                            x       y       z     vdW  Elec       q    Type
REMARK                         _______ _______ _______ _____ _____    ______ ____
ROOT
ATOM      1  S   UNL     1      57.818  35.531  74.446  0.00  0.00    +0.000 S 
ATOM      2  S   UNL     1      59.171  36.899  73.700  0.00  0.00    +0.000 S 
ATOM      3  O   UNL     1      59.072  38.965  76.677  0.00  0.00    +0.000 OA
ATOM      4  O   UNL     1      54.955  37.516  73.746  0.00  0.00    +0.000 OA
ATOM      5  N   UNL     1      57.347  37.496  76.293  0.00  0.00    +0.000 N 
ATOM      6  N   UNL     1      57.023  38.632  73.846  0.00  0.00    +0.000 N 
ATOM      7  C   UNL     1      56.645  36.661  75.269  0.00  0.00    +0.000 C 
ATOM      8  C   UNL     1      56.897  37.206  77.581  0.00  0.00    +0.000 A 
ATOM      9  C   UNL     1      55.670  35.954  76.095  0.00  0.00    +0.000 C 
ATOM     10  C   UNL     1      58.437  38.497  74.329  0.00  0.00    +0.000 C 
ATOM     11  C   UNL     1      55.727  36.266  77.461  0.00  0.00    +0.000 A 
ATOM     12  C   UNL     1      58.339  38.378  75.884  0.00  0.00    +0.000 C 
ATOM     13  C   UNL     1      56.081  37.637  74.234  0.00  0.00    +0.000 C 
ATOM     14  C   UNL     1      57.599  37.355  78.878  0.00  0.00    +0.000 A 
ATOM     15  C   UNL     1      55.594  35.471  78.483  0.00  0.00    +0.000 A 
ATOM     16  C   UNL     1      57.146  36.385  79.837  0.00  0.00    +0.000 A 
ATOM     17  C   UNL     1      56.742  39.682  72.866  0.00  0.00    +0.000 C 
ATOM     18  C   UNL     1      56.326  35.505  79.834  0.00  0.00    +0.000 A 
ENDROOT
BRANCH  14  19
ATOM     19  O   UNL     1      58.836  37.922  78.991  0.00  0.00    +0.000 OA
ATOM     20  H   UNL     1      59.041  38.545  78.265  0.00  0.00    +0.000 HD
ENDBRANCH  14  19
BRANCH  10  21
ATOM     21  C   UNL     1      59.338  39.616  73.944  0.00  0.00    +0.000 C 
BRANCH  21  22
ATOM     22  O   UNL     1      60.146  40.615  73.580  0.00  0.00    +0.000 OA
ATOM     23  H   UNL     1      60.732  40.882  74.314  0.00  0.00    +0.000 HD
ENDBRANCH  21  22
ENDBRANCH  10  21
TORSDOF 3
ENDMDL
MODEL 2
REMARK VINA RESULT:      -6.5      2.163      2.746
REMARK  Name = 6223_Gliotoxin.pdbqt.pdb
REMARK  3 active torsions:
REMARK  status: ('A' for Active; 'I' for Inactive)
REMARK    1  A    between atoms: C_10  and  C_21
REMARK    2  A    between atoms: C_14  and  O_19
REMARK    3  A    between atoms: C_21  and  O_22
REMARK                            x       y       z     vdW  Elec       q    Type
REMARK                         _______ _______ _______ _____ _____    ______ ____
ROOT
ATOM      1  S   UNL     1      56.482  35.858  75.839  0.00  0.00    +0.000 S 
ATOM      2  S   UNL     1      58.023  35.623  74.487  0.00  0.00    +0.000 S 
ATOM      3  O   UNL     1      60.579  35.598  77.058  0.00  0.00    +0.000 OA
ATOM      4  O   UNL     1      56.981  39.350  76.270  0.00  0.00    +0.000 OA
ATOM      5  N   UNL     1      58.519  36.488  77.555  0.00  0.00    +0.000 N 
ATOM      6  N   UNL     1      58.785  38.119  75.398  0.00  0.00    +0.000 N 
ATOM      7  C   UNL     1      57.250  37.045  76.993  0.00  0.00    +0.000 C 
ATOM      8  C   UNL     1      58.417  36.278  78.931  0.00  0.00    +0.000 A 
ATOM      9  C   UNL     1      56.460  37.240  78.206  0.00  0.00    +0.000 C 
ATOM     10  C   UNL     1      59.325  36.727  75.244  0.00  0.00    +0.000 C 
ATOM     11  C   UNL     1      57.107  36.858  79.390  0.00  0.00    +0.000 A 
ATOM     12  C   UNL     1      59.577  36.213  76.698  0.00  0.00    +0.000 C 
ATOM     13  C   UNL     1      57.640  38.309  76.224  0.00  0.00    +0.000 C 
ATOM     14  C   UNL     1      59.146  35.316  79.791  0.00  0.00    +0.000 A 
ATOM     15  C   UNL     1      56.608  36.253  80.430  0.00  0.00    +0.000 A 
ATOM     16  C   UNL     1      58.355  34.918  80.923  0.00  0.00    +0.000 A 
ATOM     17  C   UNL     1      59.363  39.163  74.553  0.00  0.00    +0.000 C 
ATOM     18  C   UNL     1      57.260  35.196  81.335  0.00  0.00    +0.000 A 
ENDROOT
BRANCH  14  19
ATOM     19  O   UNL     1      60.150  34.516  79.326  0.00  0.00    +0.000 OA
ATOM     20  H   UNL     1      59.933  33.563  79.370  0.00  0.00    +0.000 HD
ENDBRANCH  14  19
BRANCH  10  21
ATOM     21  C   UNL     1      60.565  36.625  74.429  0.00  0.00    +0.000 C 
BRANCH  21  22
ATOM     22  O   UNL     1      61.668  36.537  73.682  0.00  0.00    +0.000 OA
ATOM     23  H   UNL     1      61.876  37.390  73.256  0.00  0.00    +0.000 HD
ENDBRANCH  21  22
ENDBRANCH  10  21
TORSDOF 3
ENDMDL
MODEL 3
REMARK VINA RESULT:      -6.3      2.831      3.453
REMARK  Name = 6223_Gliotoxin.pdbqt.pdb
REMARK  3 active torsions:
REMARK  status: ('A' for Active; 'I' for Inactive)
REMARK    1  A    between atoms: C_10  and  C_21
REMARK    2  A    between atoms: C_14  and  O_19
REMARK    3  A    between atoms: C_21  and  O_22
REMARK                            x       y       z     vdW  Elec       q    Type
REMARK                         _______ _______ _______ _____ _____    ______ ____
ROOT
ATOM      1  S   UNL     1      58.318  35.409  73.997  0.00  0.00    +0.000 S 
ATOM      2  S   UNL     1      60.322  34.918  73.936  0.00  0.00    +0.000 S 
ATOM      3  O   UNL     1      60.618  34.726  77.544  0.00  0.00    +0.000 OA
ATOM      4  O   UNL     1      58.865  38.834  74.771  0.00  0.00    +0.000 OA
ATOM      5  N   UNL     1      58.849  35.883  76.640  0.00  0.00    +0.000 N 
ATOM      6  N   UNL     1      60.635  37.350  75.212  0.00  0.00    +0.000 N 
ATOM      7  C   UNL     1      58.315  36.557  75.416  0.00  0.00    +0.000 C 
ATOM      8  C   UNL     1      57.867  35.761  77.624  0.00  0.00    +0.000 A 
ATOM      9  C   UNL     1      56.966  36.910  75.850  0.00  0.00    +0.000 C 
ATOM     10  C   UNL     1      60.966  35.898  75.390  0.00  0.00    +0.000 C 
ATOM     11  C   UNL     1      56.652  36.518  77.158  0.00  0.00    +0.000 A 
ATOM     12  C   UNL     1      60.165  35.437  76.649  0.00  0.00    +0.000 C 
ATOM     13  C   UNL     1      59.263  37.721  75.120  0.00  0.00    +0.000 C 
ATOM     14  C   UNL     1      57.749  34.767  78.716  0.00  0.00    +0.000 A 
ATOM     15  C   UNL     1      55.534  36.035  77.616  0.00  0.00    +0.000 A 
ATOM     16  C   UNL     1      56.375  34.529  79.065  0.00  0.00    +0.000 A 
ATOM     17  C   UNL     1      61.746  38.271  74.970  0.00  0.00    +0.000 C 
ATOM     18  C   UNL     1      55.316  34.958  78.691  0.00  0.00    +0.000 A 
ENDROOT
BRANCH  14  19
ATOM     19  O   UNL     1      58.706  33.828  78.972  0.00  0.00    +0.000 OA
ATOM     20  H   UNL     1      59.427  34.161  79.545  0.00  0.00    +0.000 HD
ENDBRANCH  14  19
BRANCH  10  21
ATOM     21  C   UNL     1      62.415  35.603  75.553  0.00  0.00    +0.000 C 
BRANCH  21  22
ATOM     22  O   UNL     1      63.714  35.323  75.691  0.00  0.00    +0.000 OA
ATOM     23  H   UNL     1      64.029  34.744  74.971  0.00  0.00    +0.000 HD
ENDBRANCH  21  22
ENDBRANCH  10  21
TORSDOF 3
ENDMDL
MODEL 4
REMARK VINA RESULT:      -5.2     18.319     19.374
REMARK  Name = 6223_Gliotoxin.pdbqt.pdb
REMARK  3 active torsions:
REMARK  status: ('A' for Active; 'I' for Inactive)
REMARK    1  A    between atoms: C_10  and  C_21
REMARK    2  A    between atoms: C_14  and  O_19
REMARK    3  A    between atoms: C_21  and  O_22
REMARK                            x       y       z     vdW  Elec       q    Type
REMARK                         _______ _______ _______ _____ _____    ______ ____
ROOT
ATOM      1  S   UNL     1      45.253  23.157  86.346  0.00  0.00    +0.000 S 
ATOM      2  S   UNL     1      46.997  23.195  87.450  0.00  0.00    +0.000 S 
ATOM      3  O   UNL     1      48.002  26.438  86.176  0.00  0.00    +0.000 OA
ATOM      4  O   UNL     1      46.832  22.186  83.314  0.00  0.00    +0.000 OA
ATOM      5  N   UNL     1      46.446  25.221  85.000  0.00  0.00    +0.000 N 
ATOM      6  N   UNL     1      48.203  23.149  84.964  0.00  0.00    +0.000 N 
ATOM      7  C   UNL     1      45.857  23.865  84.775  0.00  0.00    +0.000 C 
ATOM      8  C   UNL     1      45.702  26.212  84.358  0.00  0.00    +0.000 A 
ATOM      9  C   UNL     1      44.773  24.174  83.846  0.00  0.00    +0.000 C 
ATOM     10  C   UNL     1      48.173  23.967  86.221  0.00  0.00    +0.000 C 
ATOM     11  C   UNL     1      44.657  25.531  83.516  0.00  0.00    +0.000 A 
ATOM     12  C   UNL     1      47.569  25.347  85.809  0.00  0.00    +0.000 C 
ATOM     13  C   UNL     1      46.990  22.989  84.235  0.00  0.00    +0.000 C 
ATOM     14  C   UNL     1      45.566  27.649  84.693  0.00  0.00    +0.000 A 
ATOM     15  C   UNL     1      43.577  26.240  83.357  0.00  0.00    +0.000 A 
ATOM     16  C   UNL     1      44.286  28.165  84.289  0.00  0.00    +0.000 A 
ATOM     17  C   UNL     1      49.437  22.425  84.660  0.00  0.00    +0.000 C 
ATOM     18  C   UNL     1      43.321  27.707  83.735  0.00  0.00    +0.000 A 
ENDROOT
BRANCH  14  19
ATOM     19  O   UNL     1      46.276  28.250  85.692  0.00  0.00    +0.000 OA
ATOM     20  H   UNL     1      47.194  28.469  85.433  0.00  0.00    +0.000 HD
ENDBRANCH  14  19
BRANCH  10  21
ATOM     21  C   UNL     1      49.494  24.148  86.880  0.00  0.00    +0.000 C 
BRANCH  21  22
ATOM     22  O   UNL     1      50.682  24.328  87.464  0.00  0.00    +0.000 OA
ATOM     23  H   UNL     1      50.667  25.097  88.065  0.00  0.00    +0.000 HD
ENDBRANCH  21  22
ENDBRANCH  10  21
TORSDOF 3
ENDMDL
MODEL 5
REMARK VINA RESULT:      -5.2     18.548     20.400
REMARK  Name = 6223_Gliotoxin.pdbqt.pdb
REMARK  3 active torsions:
REMARK  status: ('A' for Active; 'I' for Inactive)
REMARK    1  A    between atoms: C_10  and  C_21
REMARK    2  A    between atoms: C_14  and  O_19
REMARK    3  A    between atoms: C_21  and  O_22
REMARK                            x       y       z     vdW  Elec       q    Type
REMARK                         _______ _______ _______ _____ _____    ______ ____
ROOT
ATOM      1  S   UNL     1      52.912  16.317  78.068  0.00  0.00    +0.000 S 
ATOM      2  S   UNL     1      53.163  15.781  76.090  0.00  0.00    +0.000 S 
ATOM      3  O   UNL     1      52.526  19.132  74.863  0.00  0.00    +0.000 OA
ATOM      4  O   UNL     1      49.361  16.283  77.946  0.00  0.00    +0.000 OA
ATOM      5  N   UNL     1      51.813  18.574  76.976  0.00  0.00    +0.000 N 
ATOM      6  N   UNL     1      50.491  16.462  75.892  0.00  0.00    +0.000 N 
ATOM      7  C   UNL     1      51.491  17.451  77.911  0.00  0.00    +0.000 C 
ATOM      8  C   UNL     1      51.833  19.801  77.641  0.00  0.00    +0.000 A 
ATOM      9  C   UNL     1      51.215  18.179  79.147  0.00  0.00    +0.000 C 
ATOM     10  C   UNL     1      51.820  16.794  75.280  0.00  0.00    +0.000 C 
ATOM     11  C   UNL     1      51.346  19.571  79.047  0.00  0.00    +0.000 A 
ATOM     12  C   UNL     1      52.087  18.290  75.644  0.00  0.00    +0.000 C 
ATOM     13  C   UNL     1      50.315  16.697  77.286  0.00  0.00    +0.000 C 
ATOM     14  C   UNL     1      52.571  21.040  77.305  0.00  0.00    +0.000 A 
ATOM     15  C   UNL     1      51.847  20.405  79.912  0.00  0.00    +0.000 A 
ATOM     16  C   UNL     1      52.889  21.800  78.483  0.00  0.00    +0.000 A 
ATOM     17  C   UNL     1      49.521  15.756  75.056  0.00  0.00    +0.000 C 
ATOM     18  C   UNL     1      52.681  21.671  79.660  0.00  0.00    +0.000 A 
ENDROOT
BRANCH  14  19
ATOM     19  O   UNL     1      53.311  21.178  76.166  0.00  0.00    +0.000 OA
ATOM     20  H   UNL     1      52.767  21.185  75.352  0.00  0.00    +0.000 HD
ENDBRANCH  14  19
BRANCH  10  21
ATOM     21  C   UNL     1      51.897  16.591  73.808  0.00  0.00    +0.000 C 
BRANCH  21  22
ATOM     22  O   UNL     1      51.985  16.407  72.488  0.00  0.00    +0.000 OA
ATOM     23  H   UNL     1      52.451  15.575  72.277  0.00  0.00    +0.000 HD
ENDBRANCH  21  22
ENDBRANCH  10  21
TORSDOF 3
ENDMDL
MODEL 6
REMARK VINA RESULT:      -5.1     18.557     20.135
REMARK  Name = 6223_Gliotoxin.pdbqt.pdb
REMARK  3 active torsions:
REMARK  status: ('A' for Active; 'I' for Inactive)
REMARK    1  A    between atoms: C_10  and  C_21
REMARK    2  A    between atoms: C_14  and  O_19
REMARK    3  A    between atoms: C_21  and  O_22
REMARK                            x       y       z     vdW  Elec       q    Type
REMARK                         _______ _______ _______ _____ _____    ______ ____
ROOT
ATOM      1  S   UNL     1      42.860  23.966  84.778  0.00  0.00    +0.000 S 
ATOM      2  S   UNL     1      42.174  25.715  83.923  0.00  0.00    +0.000 S 
ATOM      3  O   UNL     1      45.439  27.290  83.978  0.00  0.00    +0.000 OA
ATOM      4  O   UNL     1      42.894  25.238  88.096  0.00  0.00    +0.000 OA
ATOM      5  N   UNL     1      45.053  25.495  85.362  0.00  0.00    +0.000 N 
ATOM      6  N   UNL     1      42.896  26.817  86.353  0.00  0.00    +0.000 N 
ATOM      7  C   UNL     1      44.010  24.649  86.019  0.00  0.00    +0.000 C 
ATOM      8  C   UNL     1      46.325  24.938  85.504  0.00  0.00    +0.000 A 
ATOM      9  C   UNL     1      44.832  23.619  86.649  0.00  0.00    +0.000 C 
ATOM     10  C   UNL     1      43.154  26.982  84.884  0.00  0.00    +0.000 C 
ATOM     11  C   UNL     1      46.210  23.758  86.431  0.00  0.00    +0.000 A 
ATOM     12  C   UNL     1      44.666  26.644  84.683  0.00  0.00    +0.000 C 
ATOM     13  C   UNL     1      43.238  25.575  86.961  0.00  0.00    +0.000 C 
ATOM     14  C   UNL     1      47.520  25.092  84.642  0.00  0.00    +0.000 A 
ATOM     15  C   UNL     1      47.094  22.831  86.201  0.00  0.00    +0.000 A 
ATOM     16  C   UNL     1      48.358  23.925  84.690  0.00  0.00    +0.000 A 
ATOM     17  C   UNL     1      42.152  27.879  87.030  0.00  0.00    +0.000 C 
ATOM     18  C   UNL     1      48.320  22.875  85.275  0.00  0.00    +0.000 A 
ENDROOT
BRANCH  14  19
ATOM     19  O   UNL     1      47.558  25.933  83.568  0.00  0.00    +0.000 OA
ATOM     20  H   UNL     1      48.362  25.823  83.021  0.00  0.00    +0.000 HD
ENDBRANCH  14  19
BRANCH  10  21
ATOM     21  C   UNL     1      42.841  28.331  84.343  0.00  0.00    +0.000 C 
BRANCH  21  22
ATOM     22  O   UNL     1      42.569  29.551  83.872  0.00  0.00    +0.000 OA
ATOM     23  H   UNL     1      42.974  30.243  84.427  0.00  0.00    +0.000 HD
ENDBRANCH  21  22
ENDBRANCH  10  21
TORSDOF 3
ENDMDL
MODEL 7
REMARK VINA RESULT:      -5.1     57.224     59.035
REMARK  Name = 6223_Gliotoxin.pdbqt.pdb
REMARK  3 active torsions:
REMARK  status: ('A' for Active; 'I' for Inactive)
REMARK    1  A    between atoms: C_10  and  C_21
REMARK    2  A    between atoms: C_14  and  O_19
REMARK    3  A    between atoms: C_21  and  O_22
REMARK                            x       y       z     vdW  Elec       q    Type
REMARK                         _______ _______ _______ _____ _____    ______ ____
ROOT
ATOM      1  S   UNL     1      14.024   8.501  98.115  0.00  0.00    +0.000 S 
ATOM      2  S   UNL     1      14.008   6.460  97.806  0.00  0.00    +0.000 S 
ATOM      3  O   UNL     1      11.380   5.883 100.235  0.00  0.00    +0.000 OA
ATOM      4  O   UNL     1      15.945   8.342 101.101  0.00  0.00    +0.000 OA
ATOM      5  N   UNL     1      12.571   7.846 100.341  0.00  0.00    +0.000 N 
ATOM      6  N   UNL     1      14.851   6.370 100.436  0.00  0.00    +0.000 N 
ATOM      7  C   UNL     1      13.826   8.548  99.929  0.00  0.00    +0.000 C 
ATOM      8  C   UNL     1      11.656   8.731 100.912  0.00  0.00    +0.000 A 
ATOM      9  C   UNL     1      13.577   9.897 100.431  0.00  0.00    +0.000 C 
ATOM     10  C   UNL     1      13.760   5.843  99.551  0.00  0.00    +0.000 C 
ATOM     11  C   UNL     1      12.339  10.063 101.069  0.00  0.00    +0.000 A 
ATOM     12  C   UNL     1      12.440   6.487 100.084  0.00  0.00    +0.000 C 
ATOM     13  C   UNL     1      14.980   7.781 100.579  0.00  0.00    +0.000 C 
ATOM     14  C   UNL     1      10.179   8.641 100.979  0.00  0.00    +0.000 A 
ATOM     15  C   UNL     1      11.522  11.074 101.007  0.00  0.00    +0.000 A 
ATOM     16  C   UNL     1       9.573   9.945 101.003  0.00  0.00    +0.000 A 
ATOM     17  C   UNL     1      15.819   5.406 100.958  0.00  0.00    +0.000 C 
ATOM     18  C   UNL     1       9.985  11.074 100.999  0.00  0.00    +0.000 A 
ENDROOT
BRANCH  14  19
ATOM     19  O   UNL     1       9.480   7.556 100.536  0.00  0.00    +0.000 OA
ATOM     20  H   UNL     1       8.880   7.762  99.790  0.00  0.00    +0.000 HD
ENDBRANCH  14  19
BRANCH  10  21
ATOM     21  C   UNL     1      13.645   4.361  99.516  0.00  0.00    +0.000 C 
BRANCH  21  22
ATOM     22  O   UNL     1      13.523   3.031  99.491  0.00  0.00    +0.000 OA
ATOM     23  H   UNL     1      12.587   2.762  99.435  0.00  0.00    +0.000 HD
ENDBRANCH  21  22
ENDBRANCH  10  21
TORSDOF 3
ENDMDL
MODEL 8
REMARK VINA RESULT:      -5.1     60.943     63.178
REMARK  Name = 6223_Gliotoxin.pdbqt.pdb
REMARK  3 active torsions:
REMARK  status: ('A' for Active; 'I' for Inactive)
REMARK    1  A    between atoms: C_10  and  C_21
REMARK    2  A    between atoms: C_14  and  O_19
REMARK    3  A    between atoms: C_21  and  O_22
REMARK                            x       y       z     vdW  Elec       q    Type
REMARK                         _______ _______ _______ _____ _____    ______ ____
ROOT
ATOM      1  S   UNL     1       1.414  13.524  97.911  0.00  0.00    +0.000 S 
ATOM      2  S   UNL     1       1.099  11.484  97.894  0.00  0.00    +0.000 S 
ATOM      3  O   UNL     1       4.137  10.799  96.039  0.00  0.00    +0.000 OA
ATOM      4  O   UNL     1       0.259  14.040  94.590  0.00  0.00    +0.000 OA
ATOM      5  N   UNL     1       3.262  12.925  95.983  0.00  0.00    +0.000 N 
ATOM      6  N   UNL     1       0.905  11.852  95.161  0.00  0.00    +0.000 N 
ATOM      7  C   UNL     1       2.044  13.762  96.215  0.00  0.00    +0.000 C 
ATOM      8  C   UNL     1       4.392  13.717  95.771  0.00  0.00    +0.000 A 
ATOM      9  C   UNL     1       2.575  15.105  95.996  0.00  0.00    +0.000 C 
ATOM     10  C   UNL     1       1.677  11.055  96.171  0.00  0.00    +0.000 C 
ATOM     11  C   UNL     1       3.939  15.149  95.679  0.00  0.00    +0.000 A 
ATOM     12  C   UNL     1       3.156  11.541  96.046  0.00  0.00    +0.000 C 
ATOM     13  C   UNL     1       0.992  13.273  95.217  0.00  0.00    +0.000 C 
ATOM     14  C   UNL     1       5.819  13.403  96.016  0.00  0.00    +0.000 A 
ATOM     15  C   UNL     1       4.839  16.003  96.075  0.00  0.00    +0.000 A 
ATOM     16  C   UNL     1       6.572  14.586  96.329  0.00  0.00    +0.000 A 
ATOM     17  C   UNL     1      -0.025  11.126  94.296  0.00  0.00    +0.000 C 
ATOM     18  C   UNL     1       6.317  15.758  96.419  0.00  0.00    +0.000 A 
ENDROOT
BRANCH  14  19
ATOM     19  O   UNL     1       6.249  12.174  96.426  0.00  0.00    +0.000 OA
ATOM     20  H   UNL     1       6.211  11.497  95.719  0.00  0.00    +0.000 HD
ENDBRANCH  14  19
BRANCH  10  21
ATOM     21  C   UNL     1       1.593   9.580  95.998  0.00  0.00    +0.000 C 
BRANCH  21  22
ATOM     22  O   UNL     1       1.522   8.257  95.824  0.00  0.00    +0.000 OA
ATOM     23  H   UNL     1       2.249   7.936  95.258  0.00  0.00    +0.000 HD
ENDBRANCH  21  22
ENDBRANCH  10  21
TORSDOF 3
ENDMDL
MODEL 9
REMARK VINA RESULT:      -5.0     10.216     12.661
REMARK  Name = 6223_Gliotoxin.pdbqt.pdb
REMARK  3 active torsions:
REMARK  status: ('A' for Active; 'I' for Inactive)
REMARK    1  A    between atoms: C_10  and  C_21
REMARK    2  A    between atoms: C_14  and  O_19
REMARK    3  A    between atoms: C_21  and  O_22
REMARK                            x       y       z     vdW  Elec       q    Type
REMARK                         _______ _______ _______ _____ _____    ______ ____
ROOT
ATOM      1  S   UNL     1      58.220  35.747  89.639  0.00  0.00    +0.000 S 
ATOM      2  S   UNL     1      58.611  36.939  88.000  0.00  0.00    +0.000 S 
ATOM      3  O   UNL     1      55.934  35.497  86.026  0.00  0.00    +0.000 OA
ATOM      4  O   UNL     1      59.868  32.882  88.333  0.00  0.00    +0.000 OA
ATOM      5  N   UNL     1      56.726  34.326  87.839  0.00  0.00    +0.000 N 
ATOM      6  N   UNL     1      59.223  34.533  86.787  0.00  0.00    +0.000 N 
ATOM      7  C   UNL     1      57.859  34.166  88.802  0.00  0.00    +0.000 C 
ATOM      8  C   UNL     1      55.616  33.576  88.230  0.00  0.00    +0.000 A 
ATOM      9  C   UNL     1      57.320  33.159  89.713  0.00  0.00    +0.000 C 
ATOM     10  C   UNL     1      58.331  35.726  86.609  0.00  0.00    +0.000 C 
ATOM     11  C   UNL     1      56.023  32.728  89.404  0.00  0.00    +0.000 A 
ATOM     12  C   UNL     1      56.873  35.184  86.756  0.00  0.00    +0.000 C 
ATOM     13  C   UNL     1      59.074  33.751  87.970  0.00  0.00    +0.000 C 
ATOM     14  C   UNL     1      54.180  33.800  87.937  0.00  0.00    +0.000 A 
ATOM     15  C   UNL     1      55.040  32.460  90.215  0.00  0.00    +0.000 A 
ATOM     16  C   UNL     1      53.343  33.292  88.989  0.00  0.00    +0.000 A 
ATOM     17  C   UNL     1      60.305  34.349  85.820  0.00  0.00    +0.000 C 
ATOM     18  C   UNL     1      53.537  32.719  90.028  0.00  0.00    +0.000 A 
ENDROOT
BRANCH  14  19
ATOM     19  O   UNL     1      53.737  34.792  87.110  0.00  0.00    +0.000 OA
ATOM     20  H   UNL     1      54.453  35.380  86.797  0.00  0.00    +0.000 HD
ENDBRANCH  14  19
BRANCH  10  21
ATOM     21  C   UNL     1      58.497  36.442  85.316  0.00  0.00    +0.000 C 
BRANCH  21  22
ATOM     22  O   UNL     1      58.628  37.090  84.156  0.00  0.00    +0.000 OA
ATOM     23  H   UNL     1      57.764  37.401  83.825  0.00  0.00    +0.000 HD
ENDBRANCH  21  22
ENDBRANCH  10  21
TORSDOF 3
ENDMDL
