MODEL 1
REMARK VINA RESULT:      -6.4      0.000      0.000
REMARK  Name = 6256_Trifluridine.pdbqt.pdb
REMARK  5 active torsions:
REMARK  status: ('A' for Active; 'I' for Inactive)
REMARK    1  A    between atoms: N_3  and  C1*_11
REMARK    2  A    between atoms: C_7  and  C_23
REMARK    3  A    between atoms: C3*_12  and  O3*_15
REMARK    4  A    between atoms: C4*_14  and  C5*_17
REMARK    5  A    between atoms: C5*_17  and  O5*_18
REMARK                            x       y       z     vdW  Elec       q    Type
REMARK                         _______ _______ _______ _____ _____    ______ ____
ROOT
ATOM      1  O   UNL     1      60.392  36.680  76.550  0.00  0.00    +0.000 OA
ATOM      2  O   UNL     1      59.719  34.074  80.267  0.00  0.00    +0.000 OA
ATOM      3  N   UNL     1      58.162  36.276  77.238  0.00  0.00    +0.000 N 
ATOM      4  N   UNL     1      59.992  35.390  78.407  0.00  0.00    +0.000 N 
ATOM      5  C   UNL     1      57.459  35.629  78.188  0.00  0.00    +0.000 A 
ATOM      6  C   UNL     1      59.570  36.178  77.308  0.00  0.00    +0.000 A 
ATOM      7  C   UNL     1      57.747  34.894  79.212  0.00  0.00    +0.000 A 
ATOM      8  C   UNL     1      59.215  34.733  79.369  0.00  0.00    +0.000 A 
ATOM      9  H   UNL     1      60.992  35.287  78.500  0.00  0.00    +0.000 HD
ENDROOT
BRANCH   3  11
ATOM     10  O4* UNL     1      57.384  38.367  76.304  0.00  0.00    +0.000 OA
ATOM     11  C1* UNL     1      57.492  36.973  76.273  0.00  0.00    +0.000 A 
ATOM     12  C3* UNL     1      56.251  37.557  74.453  0.00  0.00    +0.000 A 
ATOM     13  C2* UNL     1      56.797  36.469  75.156  0.00  0.00    +0.000 A 
ATOM     14  C4* UNL     1      56.622  38.740  75.189  0.00  0.00    +0.000 A 
BRANCH  12  15
ATOM     15  O3* UNL     1      55.083  37.506  73.746  0.00  0.00    +0.000 OA
ATOM     16  H3* UNL     1      54.983  36.647  73.300  0.00  0.00    +0.000 HD
ENDBRANCH  12  15
BRANCH  14  17
ATOM     17  C5* UNL     1      56.139  40.051  75.008  0.00  0.00    +0.000 C 
BRANCH  17  18
ATOM     18  O5* UNL     1      55.681  41.287  74.835  0.00  0.00    +0.000 OA
ATOM     19  H5* UNL     1      55.281  41.616  75.659  0.00  0.00    +0.000 HD
ENDBRANCH  17  18
ENDBRANCH  14  17
ENDBRANCH   3  11
BRANCH   7  23
ATOM     20  F   UNL     1      56.993  34.705  81.430  0.00  0.00    +0.000 F 
ATOM     21  F   UNL     1      55.551  34.374  79.840  0.00  0.00    +0.000 F 
ATOM     22  F   UNL     1      57.080  32.881  80.225  0.00  0.00    +0.000 F 
ATOM     23  C   UNL     1      56.863  34.219  80.170  0.00  0.00    +0.000 C 
ENDBRANCH   7  23
TORSDOF 5
ENDMDL
MODEL 2
REMARK VINA RESULT:      -5.8      3.669      5.654
REMARK  Name = 6256_Trifluridine.pdbqt.pdb
REMARK  5 active torsions:
REMARK  status: ('A' for Active; 'I' for Inactive)
REMARK    1  A    between atoms: N_3  and  C1*_11
REMARK    2  A    between atoms: C_7  and  C_23
REMARK    3  A    between atoms: C3*_12  and  O3*_15
REMARK    4  A    between atoms: C4*_14  and  C5*_17
REMARK    5  A    between atoms: C5*_17  and  O5*_18
REMARK                            x       y       z     vdW  Elec       q    Type
REMARK                         _______ _______ _______ _____ _____    ______ ____
ROOT
ATOM      1  O   UNL     1      60.931  37.465  73.955  0.00  0.00    +0.000 OA
ATOM      2  O   UNL     1      58.009  39.277  76.995  0.00  0.00    +0.000 OA
ATOM      3  N   UNL     1      59.705  35.985  75.340  0.00  0.00    +0.000 N 
ATOM      4  N   UNL     1      59.448  38.311  75.491  0.00  0.00    +0.000 N 
ATOM      5  C   UNL     1      58.785  35.991  76.325  0.00  0.00    +0.000 A 
ATOM      6  C   UNL     1      60.112  37.243  74.839  0.00  0.00    +0.000 A 
ATOM      7  C   UNL     1      58.134  36.898  76.976  0.00  0.00    +0.000 A 
ATOM      8  C   UNL     1      58.497  38.263  76.517  0.00  0.00    +0.000 A 
ATOM      9  H   UNL     1      59.706  39.234  75.170  0.00  0.00    +0.000 HD
ENDROOT
BRANCH   3  11
ATOM     10  O4* UNL     1      59.589  34.093  73.838  0.00  0.00    +0.000 OA
ATOM     11  C1* UNL     1      60.191  34.791  74.891  0.00  0.00    +0.000 A 
ATOM     12  C3* UNL     1      61.403  32.880  74.616  0.00  0.00    +0.000 A 
ATOM     13  C2* UNL     1      61.290  34.056  75.378  0.00  0.00    +0.000 A 
ATOM     14  C4* UNL     1      60.325  32.914  73.659  0.00  0.00    +0.000 A 
BRANCH  12  15
ATOM     15  O3* UNL     1      61.876  31.694  75.101  0.00  0.00    +0.000 OA
ATOM     16  H3* UNL     1      61.826  31.670  76.072  0.00  0.00    +0.000 HD
ENDBRANCH  12  15
BRANCH  14  17
ATOM     17  C5* UNL     1      59.888  31.870  72.820  0.00  0.00    +0.000 C 
BRANCH  17  18
ATOM     18  O5* UNL     1      59.476  30.883  72.030  0.00  0.00    +0.000 OA
ATOM     19  H5* UNL     1      58.989  31.242  71.269  0.00  0.00    +0.000 HD
ENDBRANCH  17  18
ENDBRANCH  14  17
ENDBRANCH   3  11
BRANCH   7  23
ATOM     20  F   UNL     1      55.952  37.302  77.752  0.00  0.00    +0.000 F 
ATOM     21  F   UNL     1      56.919  35.457  78.368  0.00  0.00    +0.000 F 
ATOM     22  F   UNL     1      57.578  37.344  79.216  0.00  0.00    +0.000 F 
ATOM     23  C   UNL     1      57.158  36.764  78.065  0.00  0.00    +0.000 C 
ENDBRANCH   7  23
TORSDOF 5
ENDMDL
MODEL 3
REMARK VINA RESULT:      -5.2     55.692     57.550
REMARK  Name = 6256_Trifluridine.pdbqt.pdb
REMARK  5 active torsions:
REMARK  status: ('A' for Active; 'I' for Inactive)
REMARK    1  A    between atoms: N_3  and  C1*_11
REMARK    2  A    between atoms: C_7  and  C_23
REMARK    3  A    between atoms: C3*_12  and  O3*_15
REMARK    4  A    between atoms: C4*_14  and  C5*_17
REMARK    5  A    between atoms: C5*_17  and  O5*_18
REMARK                            x       y       z     vdW  Elec       q    Type
REMARK                         _______ _______ _______ _____ _____    ______ ____
ROOT
ATOM      1  O   UNL     1      14.959   6.223  96.093  0.00  0.00    +0.000 OA
ATOM      2  O   UNL     1      13.111   2.143  97.096  0.00  0.00    +0.000 OA
ATOM      3  N   UNL     1      13.736   6.019  98.111  0.00  0.00    +0.000 N 
ATOM      4  N   UNL     1      14.017   4.205  96.653  0.00  0.00    +0.000 N 
ATOM      5  C   UNL     1      13.042   5.116  98.831  0.00  0.00    +0.000 A 
ATOM      6  C   UNL     1      14.298   5.572  96.895  0.00  0.00    +0.000 A 
ATOM      7  C   UNL     1      12.732   3.868  98.694  0.00  0.00    +0.000 A 
ATOM      8  C   UNL     1      13.283   3.305  97.436  0.00  0.00    +0.000 A 
ATOM      9  H   UNL     1      14.396   3.836  95.793  0.00  0.00    +0.000 HD
ENDROOT
BRANCH   3  11
ATOM     10  O4* UNL     1      15.075   7.976  98.590  0.00  0.00    +0.000 OA
ATOM     11  C1* UNL     1      13.853   7.296  98.583  0.00  0.00    +0.000 A 
ATOM     12  C3* UNL     1      13.441   9.340  99.502  0.00  0.00    +0.000 A 
ATOM     13  C2* UNL     1      12.853   8.114  99.145  0.00  0.00    +0.000 A 
ATOM     14  C4* UNL     1      14.836   9.235  99.155  0.00  0.00    +0.000 A 
BRANCH  12  15
ATOM     15  O3* UNL     1      13.035  10.107 100.557  0.00  0.00    +0.000 OA
ATOM     16  H3* UNL     1      12.694   9.553 101.281  0.00  0.00    +0.000 HD
ENDBRANCH  12  15
BRANCH  14  17
ATOM     17  C5* UNL     1      15.878  10.116  99.508  0.00  0.00    +0.000 C 
BRANCH  17  18
ATOM     18  O5* UNL     1      16.858  10.951  99.842  0.00  0.00    +0.000 OA
ATOM     19  H5* UNL     1      17.551  10.476 100.331  0.00  0.00    +0.000 HD
ENDBRANCH  17  18
ENDBRANCH  14  17
ENDBRANCH   3  11
BRANCH   7  23
ATOM     20  F   UNL     1      10.857   2.467  98.921  0.00  0.00    +0.000 F 
ATOM     21  F   UNL     1      12.658   1.931 100.010  0.00  0.00    +0.000 F 
ATOM     22  F   UNL     1      11.477   3.630 100.667  0.00  0.00    +0.000 F 
ATOM     23  C   UNL     1      11.932   2.992  99.561  0.00  0.00    +0.000 C 
ENDBRANCH   7  23
TORSDOF 5
ENDMDL
MODEL 4
REMARK VINA RESULT:      -5.1     16.957     17.547
REMARK  Name = 6256_Trifluridine.pdbqt.pdb
REMARK  5 active torsions:
REMARK  status: ('A' for Active; 'I' for Inactive)
REMARK    1  A    between atoms: N_3  and  C1*_11
REMARK    2  A    between atoms: C_7  and  C_23
REMARK    3  A    between atoms: C3*_12  and  O3*_15
REMARK    4  A    between atoms: C4*_14  and  C5*_17
REMARK    5  A    between atoms: C5*_17  and  O5*_18
REMARK                            x       y       z     vdW  Elec       q    Type
REMARK                         _______ _______ _______ _____ _____    ______ ____
ROOT
ATOM      1  O   UNL     1      47.199  27.149  86.259  0.00  0.00    +0.000 OA
ATOM      2  O   UNL     1      49.925  23.461  86.087  0.00  0.00    +0.000 OA
ATOM      3  N   UNL     1      46.599  25.388  84.793  0.00  0.00    +0.000 N 
ATOM      4  N   UNL     1      48.519  25.274  86.134  0.00  0.00    +0.000 N 
ATOM      5  C   UNL     1      47.017  24.173  84.387  0.00  0.00    +0.000 A 
ATOM      6  C   UNL     1      47.392  26.047  85.759  0.00  0.00    +0.000 A 
ATOM      7  C   UNL     1      48.016  23.400  84.663  0.00  0.00    +0.000 A 
ATOM      8  C   UNL     1      48.913  24.011  85.677  0.00  0.00    +0.000 A 
ATOM      9  H   UNL     1      49.121  25.703  86.823  0.00  0.00    +0.000 HD
ENDROOT
BRANCH   3  11
ATOM     10  O4* UNL     1      45.166  27.278  84.319  0.00  0.00    +0.000 OA
ATOM     11  C1* UNL     1      45.457  25.911  84.257  0.00  0.00    +0.000 A 
ATOM     12  C3* UNL     1      43.435  26.181  83.241  0.00  0.00    +0.000 A 
ATOM     13  C2* UNL     1      44.405  25.233  83.611  0.00  0.00    +0.000 A 
ATOM     14  C4* UNL     1      43.923  27.458  83.699  0.00  0.00    +0.000 A 
BRANCH  12  15
ATOM     15  O3* UNL     1      42.095  25.923  83.175  0.00  0.00    +0.000 OA
ATOM     16  H3* UNL     1      41.845  25.218  83.798  0.00  0.00    +0.000 HD
ENDBRANCH  12  15
BRANCH  14  17
ATOM     17  C5* UNL     1      43.219  28.677  83.754  0.00  0.00    +0.000 C 
BRANCH  17  18
ATOM     18  O5* UNL     1      42.554  29.827  83.803  0.00  0.00    +0.000 OA
ATOM     19  H5* UNL     1      41.661  29.685  84.162  0.00  0.00    +0.000 HD
ENDBRANCH  17  18
ENDBRANCH  14  17
ENDBRANCH   3  11
BRANCH   7  23
ATOM     20  F   UNL     1      47.699  21.793  82.976  0.00  0.00    +0.000 F 
ATOM     21  F   UNL     1      49.694  22.009  83.805  0.00  0.00    +0.000 F 
ATOM     22  F   UNL     1      48.137  21.077  84.996  0.00  0.00    +0.000 F 
ATOM     23  C   UNL     1      48.371  22.083  84.118  0.00  0.00    +0.000 C 
ENDBRANCH   7  23
TORSDOF 5
ENDMDL
MODEL 5
REMARK VINA RESULT:      -5.1      3.623      6.310
REMARK  Name = 6256_Trifluridine.pdbqt.pdb
REMARK  5 active torsions:
REMARK  status: ('A' for Active; 'I' for Inactive)
REMARK    1  A    between atoms: N_3  and  C1*_11
REMARK    2  A    between atoms: C_7  and  C_23
REMARK    3  A    between atoms: C3*_12  and  O3*_15
REMARK    4  A    between atoms: C4*_14  and  C5*_17
REMARK    5  A    between atoms: C5*_17  and  O5*_18
REMARK                            x       y       z     vdW  Elec       q    Type
REMARK                         _______ _______ _______ _____ _____    ______ ____
ROOT
ATOM      1  O   UNL     1      61.260  37.235  75.743  0.00  0.00    +0.000 OA
ATOM      2  O   UNL     1      58.714  39.792  72.907  0.00  0.00    +0.000 OA
ATOM      3  N   UNL     1      58.944  37.436  76.200  0.00  0.00    +0.000 N 
ATOM      4  N   UNL     1      59.932  38.495  74.356  0.00  0.00    +0.000 N 
ATOM      5  C   UNL     1      57.828  38.021  75.723  0.00  0.00    +0.000 A 
ATOM      6  C   UNL     1      60.141  37.665  75.484  0.00  0.00    +0.000 A 
ATOM      7  C   UNL     1      57.542  38.786  74.721  0.00  0.00    +0.000 A 
ATOM      8  C   UNL     1      58.745  39.084  73.903  0.00  0.00    +0.000 A 
ATOM      9  H   UNL     1      60.759  38.691  73.810  0.00  0.00    +0.000 HD
ENDROOT
BRANCH   3  11
ATOM     10  O4* UNL     1      58.124  37.078  78.447  0.00  0.00    +0.000 OA
ATOM     11  C1* UNL     1      58.864  36.675  77.331  0.00  0.00    +0.000 A 
ATOM     12  C3* UNL     1      59.128  35.040  78.897  0.00  0.00    +0.000 A 
ATOM     13  C2* UNL     1      59.488  35.440  77.598  0.00  0.00    +0.000 A 
ATOM     14  C4* UNL     1      58.279  36.082  79.420  0.00  0.00    +0.000 A 
BRANCH  12  15
ATOM     15  O3* UNL     1      59.931  34.306  79.724  0.00  0.00    +0.000 OA
ATOM     16  H3* UNL     1      60.381  34.878  80.371  0.00  0.00    +0.000 HD
ENDBRANCH  12  15
BRANCH  14  17
ATOM     17  C5* UNL     1      57.840  36.246  80.748  0.00  0.00    +0.000 C 
BRANCH  17  18
ATOM     18  O5* UNL     1      57.427  36.404  82.002  0.00  0.00    +0.000 OA
ATOM     19  H5* UNL     1      58.190  36.454  82.603  0.00  0.00    +0.000 HD
ENDBRANCH  17  18
ENDBRANCH  14  17
ENDBRANCH   3  11
BRANCH   7  23
ATOM     20  F   UNL     1      55.699  38.751  73.263  0.00  0.00    +0.000 F 
ATOM     21  F   UNL     1      55.344  39.323  75.327  0.00  0.00    +0.000 F 
ATOM     22  F   UNL     1      56.377  40.696  74.000  0.00  0.00    +0.000 F 
ATOM     23  C   UNL     1      56.261  39.384  74.323  0.00  0.00    +0.000 C 
ENDBRANCH   7  23
TORSDOF 5
ENDMDL
MODEL 6
REMARK VINA RESULT:      -4.9     17.191     18.191
REMARK  Name = 6256_Trifluridine.pdbqt.pdb
REMARK  5 active torsions:
REMARK  status: ('A' for Active; 'I' for Inactive)
REMARK    1  A    between atoms: N_3  and  C1*_11
REMARK    2  A    between atoms: C_7  and  C_23
REMARK    3  A    between atoms: C3*_12  and  O3*_15
REMARK    4  A    between atoms: C4*_14  and  C5*_17
REMARK    5  A    between atoms: C5*_17  and  O5*_18
REMARK                            x       y       z     vdW  Elec       q    Type
REMARK                         _______ _______ _______ _____ _____    ______ ____
ROOT
ATOM      1  O   UNL     1      44.133  24.302  82.592  0.00  0.00    +0.000 OA
ATOM      2  O   UNL     1      48.151  22.454  83.819  0.00  0.00    +0.000 OA
ATOM      3  N   UNL     1      45.357  25.350  84.328  0.00  0.00    +0.000 N 
ATOM      4  N   UNL     1      46.154  23.429  83.246  0.00  0.00    +0.000 N 
ATOM      5  C   UNL     1      46.506  25.229  85.022  0.00  0.00    +0.000 A 
ATOM      6  C   UNL     1      45.108  24.380  83.331  0.00  0.00    +0.000 A 
ATOM      7  C   UNL     1      47.504  24.407  85.021  0.00  0.00    +0.000 A 
ATOM      8  C   UNL     1      47.332  23.344  83.997  0.00  0.00    +0.000 A 
ATOM      9  H   UNL     1      46.023  22.711  82.547  0.00  0.00    +0.000 HD
ENDROOT
BRANCH   3  11
ATOM     10  O4* UNL     1      43.601  26.313  85.684  0.00  0.00    +0.000 OA
ATOM     11  C1* UNL     1      44.509  26.379  84.622  0.00  0.00    +0.000 A 
ATOM     12  C3* UNL     1      43.355  28.344  84.600  0.00  0.00    +0.000 A 
ATOM     13  C2* UNL     1      44.360  27.608  83.949  0.00  0.00    +0.000 A 
ATOM     14  C4* UNL     1      42.883  27.516  85.681  0.00  0.00    +0.000 A 
BRANCH  12  15
ATOM     15  O3* UNL     1      42.519  29.224  83.971  0.00  0.00    +0.000 OA
ATOM     16  H3* UNL     1      42.244  29.935  84.575  0.00  0.00    +0.000 HD
ENDBRANCH  12  15
BRANCH  14  17
ATOM     17  C5* UNL     1      41.745  27.720  86.486  0.00  0.00    +0.000 C 
BRANCH  17  18
ATOM     18  O5* UNL     1      40.673  27.915  87.248  0.00  0.00    +0.000 OA
ATOM     19  H5* UNL     1      40.409  28.851  87.223  0.00  0.00    +0.000 HD
ENDBRANCH  17  18
ENDBRANCH  14  17
ENDBRANCH   3  11
BRANCH   7  23
ATOM     20  F   UNL     1      48.826  23.215  86.557  0.00  0.00    +0.000 F 
ATOM     21  F   UNL     1      49.843  24.494  85.126  0.00  0.00    +0.000 F 
ATOM     22  F   UNL     1      48.735  25.392  86.763  0.00  0.00    +0.000 F 
ATOM     23  C   UNL     1      48.705  24.376  85.865  0.00  0.00    +0.000 C 
ENDBRANCH   7  23
TORSDOF 5
ENDMDL
MODEL 7
REMARK VINA RESULT:      -4.9     18.158     20.206
REMARK  Name = 6256_Trifluridine.pdbqt.pdb
REMARK  5 active torsions:
REMARK  status: ('A' for Active; 'I' for Inactive)
REMARK    1  A    between atoms: N_3  and  C1*_11
REMARK    2  A    between atoms: C_7  and  C_23
REMARK    3  A    between atoms: C3*_12  and  O3*_15
REMARK    4  A    between atoms: C4*_14  and  C5*_17
REMARK    5  A    between atoms: C5*_17  and  O5*_18
REMARK                            x       y       z     vdW  Elec       q    Type
REMARK                         _______ _______ _______ _____ _____    ______ ____
ROOT
ATOM      1  O   UNL     1      41.295  25.638  85.514  0.00  0.00    +0.000 OA
ATOM      2  O   UNL     1      38.899  23.221  82.435  0.00  0.00    +0.000 OA
ATOM      3  N   UNL     1      42.278  25.249  83.395  0.00  0.00    +0.000 N 
ATOM      4  N   UNL     1      40.142  24.441  83.929  0.00  0.00    +0.000 N 
ATOM      5  C   UNL     1      42.025  24.645  82.216  0.00  0.00    +0.000 A 
ATOM      6  C   UNL     1      41.270  25.167  84.383  0.00  0.00    +0.000 A 
ATOM      7  C   UNL     1      41.045  23.967  81.717  0.00  0.00    +0.000 A 
ATOM      8  C   UNL     1      39.930  23.828  82.688  0.00  0.00    +0.000 A 
ATOM      9  H   UNL     1      39.393  24.353  84.600  0.00  0.00    +0.000 HD
ENDROOT
BRANCH   3  11
ATOM     10  O4* UNL     1      44.685  25.195  83.627  0.00  0.00    +0.000 OA
ATOM     11  C1* UNL     1      43.471  25.888  83.572  0.00  0.00    +0.000 A 
ATOM     12  C3* UNL     1      45.089  27.457  83.912  0.00  0.00    +0.000 A 
ATOM     13  C2* UNL     1      43.705  27.266  83.754  0.00  0.00    +0.000 A 
ATOM     14  C4* UNL     1      45.689  26.148  83.838  0.00  0.00    +0.000 A 
BRANCH  12  15
ATOM     15  O3* UNL     1      45.645  28.443  84.677  0.00  0.00    +0.000 OA
ATOM     16  H3* UNL     1      45.391  28.345  85.611  0.00  0.00    +0.000 HD
ENDBRANCH  12  15
BRANCH  14  17
ATOM     17  C5* UNL     1      47.016  25.793  84.148  0.00  0.00    +0.000 C 
BRANCH  17  18
ATOM     18  O5* UNL     1      48.268  25.454  84.440  0.00  0.00    +0.000 OA
ATOM     19  H5* UNL     1      48.453  25.627  85.380  0.00  0.00    +0.000 HD
ENDBRANCH  17  18
ENDBRANCH  14  17
ENDBRANCH   3  11
BRANCH   7  23
ATOM     20  F   UNL     1      41.971  23.573  79.593  0.00  0.00    +0.000 F 
ATOM     21  F   UNL     1      40.809  21.979  80.501  0.00  0.00    +0.000 F 
ATOM     22  F   UNL     1      39.794  23.741  79.740  0.00  0.00    +0.000 F 
ATOM     23  C   UNL     1      40.907  23.333  80.400  0.00  0.00    +0.000 C 
ENDBRANCH   7  23
TORSDOF 5
ENDMDL
MODEL 8
REMARK VINA RESULT:      -4.8     16.865     18.316
REMARK  Name = 6256_Trifluridine.pdbqt.pdb
REMARK  5 active torsions:
REMARK  status: ('A' for Active; 'I' for Inactive)
REMARK    1  A    between atoms: N_3  and  C1*_11
REMARK    2  A    between atoms: C_7  and  C_23
REMARK    3  A    between atoms: C3*_12  and  O3*_15
REMARK    4  A    between atoms: C4*_14  and  C5*_17
REMARK    5  A    between atoms: C5*_17  and  O5*_18
REMARK                            x       y       z     vdW  Elec       q    Type
REMARK                         _______ _______ _______ _____ _____    ______ ____
ROOT
ATOM      1  O   UNL     1      48.586  25.643  86.067  0.00  0.00    +0.000 OA
ATOM      2  O   UNL     1      45.183  28.627  85.312  0.00  0.00    +0.000 OA
ATOM      3  N   UNL     1      46.775  24.946  84.709  0.00  0.00    +0.000 N 
ATOM      4  N   UNL     1      46.857  27.094  85.647  0.00  0.00    +0.000 N 
ATOM      5  C   UNL     1      45.606  25.394  84.209  0.00  0.00    +0.000 A 
ATOM      6  C   UNL     1      47.511  25.844  85.515  0.00  0.00    +0.000 A 
ATOM      7  C   UNL     1      44.935  26.497  84.275  0.00  0.00    +0.000 A 
ATOM      8  C   UNL     1      45.634  27.510  85.106  0.00  0.00    +0.000 A 
ATOM      9  H   UNL     1      47.342  27.772  86.216  0.00  0.00    +0.000 HD
ENDROOT
BRANCH   3  11
ATOM     10  O4* UNL     1      48.522  23.294  84.447  0.00  0.00    +0.000 OA
ATOM     11  C1* UNL     1      47.176  23.672  84.423  0.00  0.00    +0.000 A 
ATOM     12  C3* UNL     1      47.232  21.471  83.836  0.00  0.00    +0.000 A 
ATOM     13  C2* UNL     1      46.382  22.572  84.043  0.00  0.00    +0.000 A 
ATOM     14  C4* UNL     1      48.571  21.942  84.086  0.00  0.00    +0.000 A 
BRANCH  12  15
ATOM     15  O3* UNL     1      46.993  20.477  82.929  0.00  0.00    +0.000 OA
ATOM     16  H3* UNL     1      46.047  20.429  82.706  0.00  0.00    +0.000 HD
ENDBRANCH  12  15
BRANCH  14  17
ATOM     17  C5* UNL     1      49.781  21.277  83.807  0.00  0.00    +0.000 C 
BRANCH  17  18
ATOM     18  O5* UNL     1      50.924  20.647  83.548  0.00  0.00    +0.000 OA
ATOM     19  H5* UNL     1      51.077  19.945  84.204  0.00  0.00    +0.000 HD
ENDBRANCH  17  18
ENDBRANCH  14  17
ENDBRANCH   3  11
BRANCH   7  23
ATOM     20  F   UNL     1      43.671  28.029  83.018  0.00  0.00    +0.000 F 
ATOM     21  F   UNL     1      43.221  25.917  82.788  0.00  0.00    +0.000 F 
ATOM     22  F   UNL     1      42.652  26.938  84.617  0.00  0.00    +0.000 F 
ATOM     23  C   UNL     1      43.636  26.850  83.688  0.00  0.00    +0.000 C 
ENDBRANCH   7  23
TORSDOF 5
ENDMDL
MODEL 9
REMARK VINA RESULT:      -4.8     60.883     62.628
REMARK  Name = 6256_Trifluridine.pdbqt.pdb
REMARK  5 active torsions:
REMARK  status: ('A' for Active; 'I' for Inactive)
REMARK    1  A    between atoms: N_3  and  C1*_11
REMARK    2  A    between atoms: C_7  and  C_23
REMARK    3  A    between atoms: C3*_12  and  O3*_15
REMARK    4  A    between atoms: C4*_14  and  C5*_17
REMARK    5  A    between atoms: C5*_17  and  O5*_18
REMARK                            x       y       z     vdW  Elec       q    Type
REMARK                         _______ _______ _______ _____ _____    ______ ____
ROOT
ATOM      1  O   UNL     1       0.593  13.351  96.982  0.00  0.00    +0.000 OA
ATOM      2  O   UNL     1       4.098  16.162  96.048  0.00  0.00    +0.000 OA
ATOM      3  N   UNL     1       2.715  12.384  96.564  0.00  0.00    +0.000 N 
ATOM      4  N   UNL     1       2.387  14.706  96.516  0.00  0.00    +0.000 N 
ATOM      5  C   UNL     1       3.983  12.728  96.263  0.00  0.00    +0.000 A 
ATOM      6  C   UNL     1       1.786  13.439  96.715  0.00  0.00    +0.000 A 
ATOM      7  C   UNL     1       4.616  13.837  96.061  0.00  0.00    +0.000 A 
ATOM      8  C   UNL     1       3.717  15.010  96.200  0.00  0.00    +0.000 A 
ATOM      9  H   UNL     1       1.764  15.495  96.611  0.00  0.00    +0.000 HD
ENDROOT
BRANCH   3  11
ATOM     10  O4* UNL     1       2.886  10.286  97.754  0.00  0.00    +0.000 OA
ATOM     11  C1* UNL     1       2.398  11.063  96.698  0.00  0.00    +0.000 A 
ATOM     12  C3* UNL     1       1.574   8.962  96.380  0.00  0.00    +0.000 A 
ATOM     13  C2* UNL     1       1.606  10.264  95.850  0.00  0.00    +0.000 A 
ATOM     14  C4* UNL     1       2.387   8.990  97.570  0.00  0.00    +0.000 A 
BRANCH  12  15
ATOM     15  O3* UNL     1       1.471   7.828  95.624  0.00  0.00    +0.000 OA
ATOM     16  H3* UNL     1       0.541   7.630  95.418  0.00  0.00    +0.000 HD
ENDBRANCH  12  15
BRANCH  14  17
ATOM     17  C5* UNL     1       2.834   7.892  98.330  0.00  0.00    +0.000 C 
BRANCH  17  18
ATOM     18  O5* UNL     1       3.255   6.852  99.045  0.00  0.00    +0.000 OA
ATOM     19  H5* UNL     1       2.991   6.956  99.976  0.00  0.00    +0.000 HD
ENDBRANCH  17  18
ENDBRANCH  14  17
ENDBRANCH   3  11
BRANCH   7  23
ATOM     20  F   UNL     1       6.656  14.870  96.606  0.00  0.00    +0.000 F 
ATOM     21  F   UNL     1       6.733  12.910  95.674  0.00  0.00    +0.000 F 
ATOM     22  F   UNL     1       6.166  14.637  94.486  0.00  0.00    +0.000 F 
ATOM     23  C   UNL     1       6.023  14.071  95.710  0.00  0.00    +0.000 C 
ENDBRANCH   7  23
TORSDOF 5
ENDMDL
