MODEL 1
REMARK VINA RESULT:      -6.5      0.000      0.000
REMARK  Name = 6323266_Tipiracil.pdbqt.pdb
REMARK  2 active torsions:
REMARK  status: ('A' for Active; 'I' for Inactive)
REMARK    1  A    between atoms: C_6  and  C_12
REMARK    2  A    between atoms: C_12  and  N_13
REMARK                            x       y       z     vdW  Elec       q    Type
REMARK                         _______ _______ _______ _____ _____    ______ ____
ROOT
ATOM      1 CL   UNL     1      59.336  35.114  77.805  0.00  0.00    +0.000 Cl
ATOM      2  O   UNL     1      59.828  33.597  80.350  0.00  0.00    +0.000 OA
ATOM      3  O   UNL     1      57.140  36.031  83.064  0.00  0.00    +0.000 OA
ATOM      4  N   UNL     1      57.290  36.614  80.876  0.00  0.00    +0.000 N 
ATOM      5  N   UNL     1      58.475  34.812  81.696  0.00  0.00    +0.000 N 
ATOM      6  C   UNL     1      57.793  36.419  79.615  0.00  0.00    +0.000 A 
ATOM      7  C   UNL     1      58.652  35.425  79.354  0.00  0.00    +0.000 A 
ATOM      8  C   UNL     1      59.043  34.531  80.480  0.00  0.00    +0.000 A 
ATOM      9  C   UNL     1      57.605  35.831  81.948  0.00  0.00    +0.000 A 
ATOM     10  H   UNL     1      56.642  37.379  81.049  0.00  0.00    +0.000 HD
ATOM     11  H   UNL     1      58.727  34.219  82.473  0.00  0.00    +0.000 HD
ENDROOT
BRANCH   6  12
ATOM     12  C   UNL     1      57.343  37.338  78.628  0.00  0.00    +0.000 C 
BRANCH  12  13
ATOM     13  N   UNL     1      56.848  38.174  77.552  0.00  0.00    +0.000 N 
ATOM     14  N   UNL     1      59.034  38.883  76.649  0.00  0.00    +0.000 NA
ATOM     15  C   UNL     1      55.798  37.627  76.693  0.00  0.00    +0.000 C 
ATOM     16  C   UNL     1      55.838  37.683  75.170  0.00  0.00    +0.000 C 
ATOM     17  C   UNL     1      57.210  38.344  75.303  0.00  0.00    +0.000 C 
ATOM     18  C   UNL     1      57.803  38.534  76.609  0.00  0.00    +0.000 C 
ATOM     19  H   UNL     1      59.400  39.033  75.702  0.00  0.00    +0.000 HD
ENDBRANCH  12  13
ENDBRANCH   6  12
TORSDOF 2
ENDMDL
MODEL 2
REMARK VINA RESULT:      -5.4      3.907      5.688
REMARK  Name = 6323266_Tipiracil.pdbqt.pdb
REMARK  2 active torsions:
REMARK  status: ('A' for Active; 'I' for Inactive)
REMARK    1  A    between atoms: C_6  and  C_12
REMARK    2  A    between atoms: C_12  and  N_13
REMARK                            x       y       z     vdW  Elec       q    Type
REMARK                         _______ _______ _______ _____ _____    ______ ____
ROOT
ATOM      1 CL   UNL     1      57.450  36.951  73.956  0.00  0.00    +0.000 Cl
ATOM      2  O   UNL     1      60.062  36.182  72.685  0.00  0.00    +0.000 OA
ATOM      3  O   UNL     1      61.972  34.234  76.300  0.00  0.00    +0.000 OA
ATOM      4  N   UNL     1      59.883  35.097  76.507  0.00  0.00    +0.000 N 
ATOM      5  N   UNL     1      61.004  35.202  74.493  0.00  0.00    +0.000 N 
ATOM      6  C   UNL     1      58.793  35.738  75.978  0.00  0.00    +0.000 A 
ATOM      7  C   UNL     1      58.772  36.135  74.698  0.00  0.00    +0.000 A 
ATOM      8  C   UNL     1      59.975  35.855  73.865  0.00  0.00    +0.000 A 
ATOM      9  C   UNL     1      61.012  34.808  75.798  0.00  0.00    +0.000 A 
ATOM     10  H   UNL     1      59.875  34.809  77.483  0.00  0.00    +0.000 HD
ATOM     11  H   UNL     1      61.829  35.003  73.946  0.00  0.00    +0.000 HD
ENDROOT
BRANCH   6  12
ATOM     12  C   UNL     1      57.710  35.946  76.875  0.00  0.00    +0.000 C 
BRANCH  12  13
ATOM     13  N   UNL     1      56.683  36.114  77.884  0.00  0.00    +0.000 N 
ATOM     14  N   UNL     1      55.053  34.499  76.971  0.00  0.00    +0.000 NA
ATOM     15  C   UNL     1      57.095  36.087  79.287  0.00  0.00    +0.000 C 
ATOM     16  C   UNL     1      56.390  35.262  80.358  0.00  0.00    +0.000 C 
ATOM     17  C   UNL     1      55.478  34.736  79.249  0.00  0.00    +0.000 C 
ATOM     18  C   UNL     1      55.695  35.137  77.876  0.00  0.00    +0.000 C 
ATOM     19  H   UNL     1      54.416  33.813  77.392  0.00  0.00    +0.000 HD
ENDBRANCH  12  13
ENDBRANCH   6  12
TORSDOF 2
ENDMDL
MODEL 3
REMARK VINA RESULT:      -5.4      3.661      5.767
REMARK  Name = 6323266_Tipiracil.pdbqt.pdb
REMARK  2 active torsions:
REMARK  status: ('A' for Active; 'I' for Inactive)
REMARK    1  A    between atoms: C_6  and  C_12
REMARK    2  A    between atoms: C_12  and  N_13
REMARK                            x       y       z     vdW  Elec       q    Type
REMARK                         _______ _______ _______ _____ _____    ______ ____
ROOT
ATOM      1 CL   UNL     1      57.734  36.162  75.260  0.00  0.00    +0.000 Cl
ATOM      2  O   UNL     1      60.135  37.113  73.725  0.00  0.00    +0.000 OA
ATOM      3  O   UNL     1      63.286  36.169  76.839  0.00  0.00    +0.000 OA
ATOM      4  N   UNL     1      61.116  35.701  77.312  0.00  0.00    +0.000 N 
ATOM      5  N   UNL     1      61.703  36.628  75.283  0.00  0.00    +0.000 N 
ATOM      6  C   UNL     1      59.790  35.684  76.964  0.00  0.00    +0.000 A 
ATOM      7  C   UNL     1      59.377  36.140  75.774  0.00  0.00    +0.000 A 
ATOM      8  C   UNL     1      60.408  36.666  74.836  0.00  0.00    +0.000 A 
ATOM      9  C   UNL     1      62.109  36.165  76.499  0.00  0.00    +0.000 A 
ATOM     10  H   UNL     1      61.404  35.352  78.224  0.00  0.00    +0.000 HD
ATOM     11  H   UNL     1      62.418  36.980  74.662  0.00  0.00    +0.000 HD
ENDROOT
BRANCH   6  12
ATOM     12  C   UNL     1      58.907  35.158  77.946  0.00  0.00    +0.000 C 
BRANCH  12  13
ATOM     13  N   UNL     1      57.912  34.692  78.892  0.00  0.00    +0.000 N 
ATOM     14  N   UNL     1      59.446  33.532  80.442  0.00  0.00    +0.000 NA
ATOM     15  C   UNL     1      56.918  35.655  79.365  0.00  0.00    +0.000 C 
ATOM     16  C   UNL     1      56.553  35.839  80.834  0.00  0.00    +0.000 C 
ATOM     17  C   UNL     1      57.621  34.793  81.155  0.00  0.00    +0.000 C 
ATOM     18  C   UNL     1      58.428  34.227  80.095  0.00  0.00    +0.000 C 
ATOM     19  H   UNL     1      59.492  33.438  81.463  0.00  0.00    +0.000 HD
ENDBRANCH  12  13
ENDBRANCH   6  12
TORSDOF 2
ENDMDL
MODEL 4
REMARK VINA RESULT:      -5.4      3.835      4.910
REMARK  Name = 6323266_Tipiracil.pdbqt.pdb
REMARK  2 active torsions:
REMARK  status: ('A' for Active; 'I' for Inactive)
REMARK    1  A    between atoms: C_6  and  C_12
REMARK    2  A    between atoms: C_12  and  N_13
REMARK                            x       y       z     vdW  Elec       q    Type
REMARK                         _______ _______ _______ _____ _____    ______ ____
ROOT
ATOM      1 CL   UNL     1      56.681  37.406  74.197  0.00  0.00    +0.000 Cl
ATOM      2  O   UNL     1      54.225  37.147  75.908  0.00  0.00    +0.000 OA
ATOM      3  O   UNL     1      56.098  34.884  79.357  0.00  0.00    +0.000 OA
ATOM      4  N   UNL     1      57.408  35.462  77.596  0.00  0.00    +0.000 N 
ATOM      5  N   UNL     1      55.171  36.026  77.630  0.00  0.00    +0.000 N 
ATOM      6  C   UNL     1      57.578  36.055  76.371  0.00  0.00    +0.000 A 
ATOM      7  C   UNL     1      56.557  36.646  75.736  0.00  0.00    +0.000 A 
ATOM      8  C   UNL     1      55.226  36.640  76.406  0.00  0.00    +0.000 A 
ATOM      9  C   UNL     1      56.219  35.424  78.263  0.00  0.00    +0.000 A 
ATOM     10  H   UNL     1      58.199  35.016  78.055  0.00  0.00    +0.000 HD
ATOM     11  H   UNL     1      54.279  36.011  78.102  0.00  0.00    +0.000 HD
ENDROOT
BRANCH   6  12
ATOM     12  C   UNL     1      58.895  35.993  75.839  0.00  0.00    +0.000 C 
BRANCH  12  13
ATOM     13  N   UNL     1      60.236  36.058  75.293  0.00  0.00    +0.000 N 
ATOM     14  N   UNL     1      59.972  38.149  74.007  0.00  0.00    +0.000 NA
ATOM     15  C   UNL     1      61.356  35.852  76.212  0.00  0.00    +0.000 C 
ATOM     16  C   UNL     1      62.578  36.761  76.271  0.00  0.00    +0.000 C 
ATOM     17  C   UNL     1      61.900  37.619  75.202  0.00  0.00    +0.000 C 
ATOM     18  C   UNL     1      60.576  37.281  74.728  0.00  0.00    +0.000 C 
ATOM     19  H   UNL     1      60.578  38.958  73.827  0.00  0.00    +0.000 HD
ENDBRANCH  12  13
ENDBRANCH   6  12
TORSDOF 2
ENDMDL
MODEL 5
REMARK VINA RESULT:      -5.2      4.451      5.787
REMARK  Name = 6323266_Tipiracil.pdbqt.pdb
REMARK  2 active torsions:
REMARK  status: ('A' for Active; 'I' for Inactive)
REMARK    1  A    between atoms: C_6  and  C_12
REMARK    2  A    between atoms: C_12  and  N_13
REMARK                            x       y       z     vdW  Elec       q    Type
REMARK                         _______ _______ _______ _____ _____    ______ ____
ROOT
ATOM      1 CL   UNL     1      56.487  39.473  74.688  0.00  0.00    +0.000 Cl
ATOM      2  O   UNL     1      54.485  38.860  76.842  0.00  0.00    +0.000 OA
ATOM      3  O   UNL     1      55.066  34.370  76.981  0.00  0.00    +0.000 OA
ATOM      4  N   UNL     1      56.303  35.581  75.514  0.00  0.00    +0.000 N 
ATOM      5  N   UNL     1      54.789  36.620  76.911  0.00  0.00    +0.000 N 
ATOM      6  C   UNL     1      56.663  36.779  74.951  0.00  0.00    +0.000 A 
ATOM      7  C   UNL     1      56.100  37.929  75.344  0.00  0.00    +0.000 A 
ATOM      8  C   UNL     1      55.067  37.867  76.416  0.00  0.00    +0.000 A 
ATOM      9  C   UNL     1      55.368  35.456  76.499  0.00  0.00    +0.000 A 
ATOM     10  H   UNL     1      56.743  34.721  75.195  0.00  0.00    +0.000 HD
ATOM     11  H   UNL     1      54.092  36.554  77.639  0.00  0.00    +0.000 HD
ENDROOT
BRANCH   6  12
ATOM     12  C   UNL     1      57.659  36.705  73.939  0.00  0.00    +0.000 C 
BRANCH  12  13
ATOM     13  N   UNL     1      58.755  36.588  72.998  0.00  0.00    +0.000 N 
ATOM     14  N   UNL     1      60.521  35.988  74.617  0.00  0.00    +0.000 NA
ATOM     15  C   UNL     1      58.527  35.811  71.780  0.00  0.00    +0.000 C 
ATOM     16  C   UNL     1      59.490  34.748  71.264  0.00  0.00    +0.000 C 
ATOM     17  C   UNL     1      60.339  35.018  72.506  0.00  0.00    +0.000 C 
ATOM     18  C   UNL     1      59.891  35.967  73.503  0.00  0.00    +0.000 C 
ATOM     19  H   UNL     1      61.315  35.337  74.598  0.00  0.00    +0.000 HD
ENDBRANCH  12  13
ENDBRANCH   6  12
TORSDOF 2
ENDMDL
MODEL 6
REMARK VINA RESULT:      -5.2     56.104     57.572
REMARK  Name = 6323266_Tipiracil.pdbqt.pdb
REMARK  2 active torsions:
REMARK  status: ('A' for Active; 'I' for Inactive)
REMARK    1  A    between atoms: C_6  and  C_12
REMARK    2  A    between atoms: C_12  and  N_13
REMARK                            x       y       z     vdW  Elec       q    Type
REMARK                         _______ _______ _______ _____ _____    ______ ____
ROOT
ATOM      1 CL   UNL     1      14.611   8.471  97.673  0.00  0.00    +0.000 Cl
ATOM      2  O   UNL     1      15.114   6.042  95.977  0.00  0.00    +0.000 OA
ATOM      3  O   UNL     1      12.438   3.150  98.210  0.00  0.00    +0.000 OA
ATOM      4  N   UNL     1      12.578   5.292  98.948  0.00  0.00    +0.000 N 
ATOM      5  N   UNL     1      13.767   4.608  97.093  0.00  0.00    +0.000 N 
ATOM      6  C   UNL     1      13.075   6.566  98.844  0.00  0.00    +0.000 A 
ATOM      7  C   UNL     1      13.933   6.901  97.871  0.00  0.00    +0.000 A 
ATOM      8  C   UNL     1      14.330   5.842  96.900  0.00  0.00    +0.000 A 
ATOM      9  C   UNL     1      12.898   4.280  98.091  0.00  0.00    +0.000 A 
ATOM     10  H   UNL     1      11.931   5.062  99.698  0.00  0.00    +0.000 HD
ATOM     11  H   UNL     1      14.022   3.876  96.445  0.00  0.00    +0.000 HD
ENDROOT
BRANCH   6  12
ATOM     12  C   UNL     1      12.621   7.482  99.831  0.00  0.00    +0.000 C 
BRANCH  12  13
ATOM     13  N   UNL     1      12.043   8.358 100.831  0.00  0.00    +0.000 N 
ATOM     14  N   UNL     1      13.154  10.447 100.125  0.00  0.00    +0.000 NA
ATOM     15  C   UNL     1      10.598   8.286 101.046  0.00  0.00    +0.000 C 
ATOM     16  C   UNL     1       9.692   9.510 101.116  0.00  0.00    +0.000 C 
ATOM     17  C   UNL     1      10.934  10.354 100.824  0.00  0.00    +0.000 C 
ATOM     18  C   UNL     1      12.208   9.715 100.581  0.00  0.00    +0.000 C 
ATOM     19  H   UNL     1      12.855  11.427 100.058  0.00  0.00    +0.000 HD
ENDBRANCH  12  13
ENDBRANCH   6  12
TORSDOF 2
ENDMDL
MODEL 7
REMARK VINA RESULT:      -4.9     57.152     58.687
REMARK  Name = 6323266_Tipiracil.pdbqt.pdb
REMARK  2 active torsions:
REMARK  status: ('A' for Active; 'I' for Inactive)
REMARK    1  A    between atoms: C_6  and  C_12
REMARK    2  A    between atoms: C_12  and  N_13
REMARK                            x       y       z     vdW  Elec       q    Type
REMARK                         _______ _______ _______ _____ _____    ______ ____
ROOT
ATOM      1 CL   UNL     1      14.297   7.804  98.148  0.00  0.00    +0.000 Cl
ATOM      2  O   UNL     1      15.076   5.926  95.936  0.00  0.00    +0.000 OA
ATOM      3  O   UNL     1      12.648   2.343  97.268  0.00  0.00    +0.000 OA
ATOM      4  N   UNL     1      12.559   4.239  98.512  0.00  0.00    +0.000 N 
ATOM      5  N   UNL     1      13.852   4.145  96.604  0.00  0.00    +0.000 N 
ATOM      6  C   UNL     1      12.930   5.538  98.746  0.00  0.00    +0.000 A 
ATOM      7  C   UNL     1      13.773   6.179  97.926  0.00  0.00    +0.000 A 
ATOM      8  C   UNL     1      14.295   5.435  96.745  0.00  0.00    +0.000 A 
ATOM      9  C   UNL     1      12.997   3.503  97.450  0.00  0.00    +0.000 A 
ATOM     10  H   UNL     1      11.920   3.773  99.152  0.00  0.00    +0.000 HD
ATOM     11  H   UNL     1      14.194   3.622  95.810  0.00  0.00    +0.000 HD
ENDROOT
BRANCH   6  12
ATOM     12  C   UNL     1      12.365   6.137  99.904  0.00  0.00    +0.000 C 
BRANCH  12  13
ATOM     13  N   UNL     1      11.908   6.768 101.127  0.00  0.00    +0.000 N 
ATOM     14  N   UNL     1       9.863   7.813 100.220  0.00  0.00    +0.000 NA
ATOM     15  C   UNL     1      11.887   5.958 102.345  0.00  0.00    +0.000 C 
ATOM     16  C   UNL     1      10.698   5.895 103.296  0.00  0.00    +0.000 C 
ATOM     17  C   UNL     1       9.964   6.820 102.324  0.00  0.00    +0.000 C 
ATOM     18  C   UNL     1      10.598   7.229 101.090  0.00  0.00    +0.000 C 
ATOM     19  H   UNL     1       8.913   7.953 100.581  0.00  0.00    +0.000 HD
ENDBRANCH  12  13
ENDBRANCH   6  12
TORSDOF 2
ENDMDL
MODEL 8
REMARK VINA RESULT:      -4.9      2.502      3.628
REMARK  Name = 6323266_Tipiracil.pdbqt.pdb
REMARK  2 active torsions:
REMARK  status: ('A' for Active; 'I' for Inactive)
REMARK    1  A    between atoms: C_6  and  C_12
REMARK    2  A    between atoms: C_12  and  N_13
REMARK                            x       y       z     vdW  Elec       q    Type
REMARK                         _______ _______ _______ _____ _____    ______ ____
ROOT
ATOM      1 CL   UNL     1      55.359  37.157  78.189  0.00  0.00    +0.000 Cl
ATOM      2  O   UNL     1      57.052  36.052  80.412  0.00  0.00    +0.000 OA
ATOM      3  O   UNL     1      60.677  34.924  77.941  0.00  0.00    +0.000 OA
ATOM      4  N   UNL     1      58.897  35.865  76.893  0.00  0.00    +0.000 N 
ATOM      5  N   UNL     1      58.862  35.501  79.171  0.00  0.00    +0.000 N 
ATOM      6  C   UNL     1      57.636  36.403  76.921  0.00  0.00    +0.000 A 
ATOM      7  C   UNL     1      56.947  36.504  78.066  0.00  0.00    +0.000 A 
ATOM      8  C   UNL     1      57.598  36.012  79.313  0.00  0.00    +0.000 A 
ATOM      9  C   UNL     1      59.549  35.401  77.998  0.00  0.00    +0.000 A 
ATOM     10  H   UNL     1      59.398  35.797  76.010  0.00  0.00    +0.000 HD
ATOM     11  H   UNL     1      59.321  35.162  80.004  0.00  0.00    +0.000 HD
ENDROOT
BRANCH   6  12
ATOM     12  C   UNL     1      57.127  36.834  75.666  0.00  0.00    +0.000 C 
BRANCH  12  13
ATOM     13  N   UNL     1      56.629  37.395  74.425  0.00  0.00    +0.000 N 
ATOM     14  N   UNL     1      55.531  39.390  75.378  0.00  0.00    +0.000 NA
ATOM     15  C   UNL     1      57.558  37.488  73.299  0.00  0.00    +0.000 C 
ATOM     16  C   UNL     1      57.735  38.743  72.452  0.00  0.00    +0.000 C 
ATOM     17  C   UNL     1      56.729  39.423  73.380  0.00  0.00    +0.000 C 
ATOM     18  C   UNL     1      56.188  38.709  74.516  0.00  0.00    +0.000 C 
ATOM     19  H   UNL     1      55.442  40.368  75.078  0.00  0.00    +0.000 HD
ENDBRANCH  12  13
ENDBRANCH   6  12
TORSDOF 2
ENDMDL
MODEL 9
REMARK VINA RESULT:      -4.9      4.191      5.590
REMARK  Name = 6323266_Tipiracil.pdbqt.pdb
REMARK  2 active torsions:
REMARK  status: ('A' for Active; 'I' for Inactive)
REMARK    1  A    between atoms: C_6  and  C_12
REMARK    2  A    between atoms: C_12  and  N_13
REMARK                            x       y       z     vdW  Elec       q    Type
REMARK                         _______ _______ _______ _____ _____    ______ ____
ROOT
ATOM      1 CL   UNL     1      58.658  37.113  73.041  0.00  0.00    +0.000 Cl
ATOM      2  O   UNL     1      60.675  35.250  71.822  0.00  0.00    +0.000 OA
ATOM      3  O   UNL     1      61.643  32.851  75.540  0.00  0.00    +0.000 OA
ATOM      4  N   UNL     1      60.120  34.527  75.693  0.00  0.00    +0.000 N 
ATOM      5  N   UNL     1      61.144  34.051  73.682  0.00  0.00    +0.000 N 
ATOM      6  C   UNL     1      59.395  35.544  75.127  0.00  0.00    +0.000 A 
ATOM      7  C   UNL     1      59.522  35.850  73.830  0.00  0.00    +0.000 A 
ATOM      8  C   UNL     1      60.478  35.047  73.016  0.00  0.00    +0.000 A 
ATOM      9  C   UNL     1      61.008  33.753  75.005  0.00  0.00    +0.000 A 
ATOM     10  H   UNL     1      60.008  34.316  76.683  0.00  0.00    +0.000 HD
ATOM     11  H   UNL     1      61.798  33.495  73.149  0.00  0.00    +0.000 HD
ENDROOT
BRANCH   6  12
ATOM     12  C   UNL     1      58.518  36.234  76.008  0.00  0.00    +0.000 C 
BRANCH  12  13
ATOM     13  N   UNL     1      57.716  36.929  76.996  0.00  0.00    +0.000 N 
ATOM     14  N   UNL     1      58.638  39.192  76.639  0.00  0.00    +0.000 NA
ATOM     15  C   UNL     1      56.276  36.674  77.006  0.00  0.00    +0.000 C 
ATOM     16  C   UNL     1      55.224  37.776  77.064  0.00  0.00    +0.000 C 
ATOM     17  C   UNL     1      56.377  38.779  77.020  0.00  0.00    +0.000 C 
ATOM     18  C   UNL     1      57.742  38.315  76.894  0.00  0.00    +0.000 C 
ATOM     19  H   UNL     1      58.230  40.134  76.621  0.00  0.00    +0.000 HD
ENDBRANCH  12  13
ENDBRANCH   6  12
TORSDOF 2
ENDMDL
