MODEL 1
REMARK VINA RESULT:      -6.3      0.000      0.000
REMARK  Name = 6325056_Deoxyelephantopin.pdbqt.pdb
REMARK  3 active torsions:
REMARK  status: ('A' for Active; 'I' for Inactive)
REMARK    1  A    between atoms: C_6  and  O_20
REMARK    2  A    between atoms: O_20  and  C_22
REMARK    3  A    between atoms: C_22  and  C_23
REMARK                            x       y       z     vdW  Elec       q    Type
REMARK                         _______ _______ _______ _____ _____    ______ ____
ROOT
ATOM      1  O   UNL     1      58.423  36.892  72.775  0.00  0.00    +0.000 OA
ATOM      2  O   UNL     1      61.867  31.984  75.341  0.00  0.00    +0.000 OA
ATOM      3  O   UNL     1      57.436  37.887  70.955  0.00  0.00    +0.000 OA
ATOM      4  O   UNL     1      61.042  30.437  73.820  0.00  0.00    +0.000 OA
ATOM      5  C   UNL     1      59.150  34.879  71.779  0.00  0.00    +0.000 C 
ATOM      6  C   UNL     1      59.691  33.532  71.597  0.00  0.00    +0.000 C 
ATOM      7  C   UNL     1      59.087  35.678  72.990  0.00  0.00    +0.000 C 
ATOM      8  C   UNL     1      60.853  33.059  72.261  0.00  0.00    +0.000 C 
ATOM      9  C   UNL     1      58.483  35.695  70.787  0.00  0.00    +0.000 C 
ATOM     10  C   UNL     1      61.923  32.570  73.076  0.00  0.00    +0.000 C 
ATOM     11  C   UNL     1      59.653  35.430  74.263  0.00  0.00    +0.000 C 
ATOM     12  C   UNL     1      62.292  33.316  75.145  0.00  0.00    +0.000 C 
ATOM     13  C   UNL     1      61.370  34.303  75.604  0.00  0.00    +0.000 C 
ATOM     14  C   UNL     1      60.294  35.216  75.518  0.00  0.00    +0.000 C 
ATOM     15  C   UNL     1      62.711  33.470  73.809  0.00  0.00    +0.000 C 
ATOM     16  C   UNL     1      58.034  36.947  71.452  0.00  0.00    +0.000 C 
ATOM     17  C   UNL     1      61.577  31.501  74.073  0.00  0.00    +0.000 C 
ATOM     18  C   UNL     1      58.354  35.426  69.483  0.00  0.00    +0.000 C 
ATOM     19  C   UNL     1      60.010  36.138  76.659  0.00  0.00    +0.000 C 
ENDROOT
BRANCH   6  20
ATOM     20  O   UNL     1      59.221  32.725  70.547  0.00  0.00    +0.000 OA
BRANCH  20  22
ATOM     21  O   UNL     1      60.998  33.072  69.126  0.00  0.00    +0.000 OA
ATOM     22  C   UNL     1      60.178  32.318  69.644  0.00  0.00    +0.000 C 
BRANCH  22  23
ATOM     23  C   UNL     1      60.065  30.833  69.407  0.00  0.00    +0.000 C 
ATOM     24  C   UNL     1      59.402  30.237  68.176  0.00  0.00    +0.000 C 
ATOM     25  C   UNL     1      60.603  29.940  70.246  0.00  0.00    +0.000 C 
ENDBRANCH  22  23
ENDBRANCH  20  22
ENDBRANCH   6  20
TORSDOF 3
ENDMDL
MODEL 2
REMARK VINA RESULT:      -6.1      1.775      5.135
REMARK  Name = 6325056_Deoxyelephantopin.pdbqt.pdb
REMARK  3 active torsions:
REMARK  status: ('A' for Active; 'I' for Inactive)
REMARK    1  A    between atoms: C_6  and  O_20
REMARK    2  A    between atoms: O_20  and  C_22
REMARK    3  A    between atoms: C_22  and  C_23
REMARK                            x       y       z     vdW  Elec       q    Type
REMARK                         _______ _______ _______ _____ _____    ______ ____
ROOT
ATOM      1  O   UNL     1      58.922  36.598  72.201  0.00  0.00    +0.000 OA
ATOM      2  O   UNL     1      61.816  30.875  71.015  0.00  0.00    +0.000 OA
ATOM      3  O   UNL     1      58.002  38.087  73.687  0.00  0.00    +0.000 OA
ATOM      4  O   UNL     1      62.864  30.827  73.086  0.00  0.00    +0.000 OA
ATOM      5  C   UNL     1      59.704  34.963  73.713  0.00  0.00    +0.000 C 
ATOM      6  C   UNL     1      60.380  33.790  74.269  0.00  0.00    +0.000 C 
ATOM      7  C   UNL     1      59.581  35.368  72.324  0.00  0.00    +0.000 C 
ATOM      8  C   UNL     1      60.378  32.516  73.643  0.00  0.00    +0.000 C 
ATOM      9  C   UNL     1      59.061  36.031  74.448  0.00  0.00    +0.000 C 
ATOM     10  C   UNL     1      60.493  31.300  72.897  0.00  0.00    +0.000 C 
ATOM     11  C   UNL     1      59.947  34.674  71.147  0.00  0.00    +0.000 C 
ATOM     12  C   UNL     1      60.503  31.256  70.667  0.00  0.00    +0.000 C 
ATOM     13  C   UNL     1      60.406  32.534  70.039  0.00  0.00    +0.000 C 
ATOM     14  C   UNL     1      60.243  33.936  69.964  0.00  0.00    +0.000 C 
ATOM     15  C   UNL     1      59.664  31.080  71.786  0.00  0.00    +0.000 C 
ATOM     16  C   UNL     1      58.591  37.043  73.464  0.00  0.00    +0.000 C 
ATOM     17  C   UNL     1      61.863  30.941  72.400  0.00  0.00    +0.000 C 
ATOM     18  C   UNL     1      58.847  36.081  75.767  0.00  0.00    +0.000 C 
ATOM     19  C   UNL     1      60.116  34.598  68.630  0.00  0.00    +0.000 C 
ENDROOT
BRANCH   6  20
ATOM     20  O   UNL     1      60.851  33.816  75.593  0.00  0.00    +0.000 OA
BRANCH  20  22
ATOM     21  O   UNL     1      62.934  32.900  75.937  0.00  0.00    +0.000 OA
ATOM     22  C   UNL     1      62.220  33.878  75.729  0.00  0.00    +0.000 C 
BRANCH  22  23
ATOM     23  C   UNL     1      62.689  35.303  75.577  0.00  0.00    +0.000 C 
ATOM     24  C   UNL     1      63.352  35.828  74.314  0.00  0.00    +0.000 C 
ATOM     25  C   UNL     1      62.490  36.219  76.533  0.00  0.00    +0.000 C 
ENDBRANCH  22  23
ENDBRANCH  20  22
ENDBRANCH   6  20
TORSDOF 3
ENDMDL
MODEL 3
REMARK VINA RESULT:      -5.9     21.058     23.129
REMARK  Name = 6325056_Deoxyelephantopin.pdbqt.pdb
REMARK  3 active torsions:
REMARK  status: ('A' for Active; 'I' for Inactive)
REMARK    1  A    between atoms: C_6  and  O_20
REMARK    2  A    between atoms: O_20  and  C_22
REMARK    3  A    between atoms: C_22  and  C_23
REMARK                            x       y       z     vdW  Elec       q    Type
REMARK                         _______ _______ _______ _____ _____    ______ ____
ROOT
ATOM      1  O   UNL     1      48.108  26.220  86.820  0.00  0.00    +0.000 OA
ATOM      2  O   UNL     1      42.294  26.326  83.869  0.00  0.00    +0.000 OA
ATOM      3  O   UNL     1      49.430  26.746  88.624  0.00  0.00    +0.000 OA
ATOM      4  O   UNL     1      41.128  26.261  85.875  0.00  0.00    +0.000 OA
ATOM      5  C   UNL     1      46.017  26.948  87.637  0.00  0.00    +0.000 C 
ATOM      6  C   UNL     1      44.579  27.190  87.764  0.00  0.00    +0.000 C 
ATOM      7  C   UNL     1      46.744  26.350  86.532  0.00  0.00    +0.000 C 
ATOM      8  C   UNL     1      43.756  27.597  86.682  0.00  0.00    +0.000 C 
ATOM      9  C   UNL     1      47.036  27.193  88.635  0.00  0.00    +0.000 C 
ATOM     10  C   UNL     1      42.937  27.839  85.534  0.00  0.00    +0.000 C 
ATOM     11  C   UNL     1      46.284  25.980  85.246  0.00  0.00    +0.000 C 
ATOM     12  C   UNL     1      43.448  27.055  83.509  0.00  0.00    +0.000 C 
ATOM     13  C   UNL     1      44.642  26.277  83.448  0.00  0.00    +0.000 C 
ATOM     14  C   UNL     1      45.834  25.687  83.926  0.00  0.00    +0.000 C 
ATOM     15  C   UNL     1      43.531  28.207  84.317  0.00  0.00    +0.000 C 
ATOM     16  C   UNL     1      48.335  26.715  88.089  0.00  0.00    +0.000 C 
ATOM     17  C   UNL     1      41.975  26.752  85.150  0.00  0.00    +0.000 C 
ATOM     18  C   UNL     1      46.875  27.811  89.811  0.00  0.00    +0.000 C 
ATOM     19  C   UNL     1      46.748  24.984  82.974  0.00  0.00    +0.000 C 
ENDROOT
BRANCH   6  20
ATOM     20  O   UNL     1      43.995  27.278  89.040  0.00  0.00    +0.000 OA
BRANCH  20  22
ATOM     21  O   UNL     1      42.105  25.967  89.138  0.00  0.00    +0.000 OA
ATOM     22  C   UNL     1      43.280  26.170  89.437  0.00  0.00    +0.000 C 
BRANCH  22  23
ATOM     23  C   UNL     1      44.152  25.264  90.268  0.00  0.00    +0.000 C 
ATOM     24  C   UNL     1      44.840  24.030  89.708  0.00  0.00    +0.000 C 
ATOM     25  C   UNL     1      44.428  25.531  91.551  0.00  0.00    +0.000 C 
ENDBRANCH  22  23
ENDBRANCH  20  22
ENDBRANCH   6  20
TORSDOF 3
ENDMDL
MODEL 4
REMARK VINA RESULT:      -5.7     45.431     46.546
REMARK  Name = 6325056_Deoxyelephantopin.pdbqt.pdb
REMARK  3 active torsions:
REMARK  status: ('A' for Active; 'I' for Inactive)
REMARK    1  A    between atoms: C_6  and  O_20
REMARK    2  A    between atoms: O_20  and  C_22
REMARK    3  A    between atoms: C_22  and  C_23
REMARK                            x       y       z     vdW  Elec       q    Type
REMARK                         _______ _______ _______ _____ _____    ______ ____
ROOT
ATOM      1  O   UNL     1      24.221   5.661  85.980  0.00  0.00    +0.000 OA
ATOM      2  O   UNL     1      26.655  11.161  88.500  0.00  0.00    +0.000 OA
ATOM      3  O   UNL     1      22.409   4.366  85.415  0.00  0.00    +0.000 OA
ATOM      4  O   UNL     1      24.829  12.430  87.833  0.00  0.00    +0.000 OA
ATOM      5  C   UNL     1      23.104   7.610  86.703  0.00  0.00    +0.000 C 
ATOM      6  C   UNL     1      22.839   8.976  87.156  0.00  0.00    +0.000 C 
ATOM      7  C   UNL     1      24.382   6.954  86.493  0.00  0.00    +0.000 C 
ATOM      8  C   UNL     1      23.618   9.640  88.139  0.00  0.00    +0.000 C 
ATOM      9  C   UNL     1      22.130   6.621  86.292  0.00  0.00    +0.000 C 
ATOM     10  C   UNL     1      24.527  10.327  89.004  0.00  0.00    +0.000 C 
ATOM     11  C   UNL     1      25.687   7.403  86.803  0.00  0.00    +0.000 C 
ATOM     12  C   UNL     1      26.709   9.867  89.062  0.00  0.00    +0.000 C 
ATOM     13  C   UNL     1      27.134   8.849  88.157  0.00  0.00    +0.000 C 
ATOM     14  C   UNL     1      26.992   7.826  87.192  0.00  0.00    +0.000 C 
ATOM     15  C   UNL     1      25.492   9.604  89.722  0.00  0.00    +0.000 C 
ATOM     16  C   UNL     1      22.871   5.413  85.836  0.00  0.00    +0.000 C 
ATOM     17  C   UNL     1      25.304  11.462  88.401  0.00  0.00    +0.000 C 
ATOM     18  C   UNL     1      20.799   6.723  86.374  0.00  0.00    +0.000 C 
ATOM     19  C   UNL     1      28.181   7.017  86.787  0.00  0.00    +0.000 C 
ENDROOT
BRANCH   6  20
ATOM     20  O   UNL     1      21.628   9.604  86.814  0.00  0.00    +0.000 OA
BRANCH  20  22
ATOM     21  O   UNL     1      21.918  11.807  86.215  0.00  0.00    +0.000 OA
ATOM     22  C   UNL     1      21.735  10.632  85.904  0.00  0.00    +0.000 C 
BRANCH  22  23
ATOM     23  C   UNL     1      21.604  10.095  84.501  0.00  0.00    +0.000 C 
ATOM     24  C   UNL     1      20.302   9.547  83.941  0.00  0.00    +0.000 C 
ATOM     25  C   UNL     1      22.624  10.127  83.634  0.00  0.00    +0.000 C 
ENDBRANCH  22  23
ENDBRANCH  20  22
ENDBRANCH   6  20
TORSDOF 3
ENDMDL
MODEL 5
REMARK VINA RESULT:      -5.7     45.965     47.164
REMARK  Name = 6325056_Deoxyelephantopin.pdbqt.pdb
REMARK  3 active torsions:
REMARK  status: ('A' for Active; 'I' for Inactive)
REMARK    1  A    between atoms: C_6  and  O_20
REMARK    2  A    between atoms: O_20  and  C_22
REMARK    3  A    between atoms: C_22  and  C_23
REMARK                            x       y       z     vdW  Elec       q    Type
REMARK                         _______ _______ _______ _____ _____    ______ ____
ROOT
ATOM      1  O   UNL     1      22.776  10.132  87.056  0.00  0.00    +0.000 OA
ATOM      2  O   UNL     1      22.220   3.979  84.969  0.00  0.00    +0.000 OA
ATOM      3  O   UNL     1      23.951  11.745  88.194  0.00  0.00    +0.000 OA
ATOM      4  O   UNL     1      24.517   3.689  84.803  0.00  0.00    +0.000 OA
ATOM      5  C   UNL     1      24.315   8.349  87.196  0.00  0.00    +0.000 C 
ATOM      6  C   UNL     1      24.972   7.057  86.994  0.00  0.00    +0.000 C 
ATOM      7  C   UNL     1      23.020   8.796  86.717  0.00  0.00    +0.000 C 
ATOM      8  C   UNL     1      24.277   5.820  86.982  0.00  0.00    +0.000 C 
ATOM      9  C   UNL     1      24.858   9.509  87.872  0.00  0.00    +0.000 C 
ATOM     10  C   UNL     1      23.519   4.618  86.808  0.00  0.00    +0.000 C 
ATOM     11  C   UNL     1      22.001   8.065  86.061  0.00  0.00    +0.000 C 
ATOM     12  C   UNL     1      21.452   4.615  85.969  0.00  0.00    +0.000 C 
ATOM     13  C   UNL     1      20.949   5.897  85.599  0.00  0.00    +0.000 C 
ATOM     14  C   UNL     1      20.946   7.306  85.476  0.00  0.00    +0.000 C 
ATOM     15  C   UNL     1      22.167   4.584  87.183  0.00  0.00    +0.000 C 
ATOM     16  C   UNL     1      23.865  10.611  87.756  0.00  0.00    +0.000 C 
ATOM     17  C   UNL     1      23.527   4.008  85.436  0.00  0.00    +0.000 C 
ATOM     18  C   UNL     1      26.007   9.575  88.554  0.00  0.00    +0.000 C 
ATOM     19  C   UNL     1      19.724   8.005  84.976  0.00  0.00    +0.000 C 
ENDROOT
BRANCH   6  20
ATOM     20  O   UNL     1      26.373   6.967  87.058  0.00  0.00    +0.000 OA
BRANCH  20  22
ATOM     21  O   UNL     1      27.504   5.284  85.969  0.00  0.00    +0.000 OA
ATOM     22  C   UNL     1      26.977   6.393  85.960  0.00  0.00    +0.000 C 
BRANCH  22  23
ATOM     23  C   UNL     1      26.880   7.321  84.776  0.00  0.00    +0.000 C 
ATOM     24  C   UNL     1      26.065   6.998  83.534  0.00  0.00    +0.000 C 
ATOM     25  C   UNL     1      27.462   8.527  84.772  0.00  0.00    +0.000 C 
ENDBRANCH  22  23
ENDBRANCH  20  22
ENDBRANCH   6  20
TORSDOF 3
ENDMDL
MODEL 6
REMARK VINA RESULT:      -5.7     65.177     65.978
REMARK  Name = 6325056_Deoxyelephantopin.pdbqt.pdb
REMARK  3 active torsions:
REMARK  status: ('A' for Active; 'I' for Inactive)
REMARK    1  A    between atoms: C_6  and  O_20
REMARK    2  A    between atoms: O_20  and  C_22
REMARK    3  A    between atoms: C_22  and  C_23
REMARK                            x       y       z     vdW  Elec       q    Type
REMARK                         _______ _______ _______ _____ _____    ______ ____
ROOT
ATOM      1  O   UNL     1       0.677  12.379  94.707  0.00  0.00    +0.000 OA
ATOM      2  O   UNL     1       6.041  14.807  97.510  0.00  0.00    +0.000 OA
ATOM      3  O   UNL     1      -0.709  10.598  94.282  0.00  0.00    +0.000 OA
ATOM      4  O   UNL     1       5.955  13.306  99.279  0.00  0.00    +0.000 OA
ATOM      5  C   UNL     1       2.201  11.350  96.186  0.00  0.00    +0.000 C 
ATOM      6  C   UNL     1       3.285  11.144  97.147  0.00  0.00    +0.000 C 
ATOM      7  C   UNL     1       1.823  12.567  95.490  0.00  0.00    +0.000 C 
ATOM      8  C   UNL     1       4.556  11.767  97.039  0.00  0.00    +0.000 C 
ATOM      9  C   UNL     1       1.207  10.384  95.769  0.00  0.00    +0.000 C 
ATOM     10  C   UNL     1       5.756  12.544  96.985  0.00  0.00    +0.000 C 
ATOM     11  C   UNL     1       2.479  13.819  95.443  0.00  0.00    +0.000 C 
ATOM     12  C   UNL     1       5.815  14.605  96.132  0.00  0.00    +0.000 C 
ATOM     13  C   UNL     1       4.561  15.098  95.662  0.00  0.00    +0.000 C 
ATOM     14  C   UNL     1       3.188  15.051  95.333  0.00  0.00    +0.000 C 
ATOM     15  C   UNL     1       6.077  13.256  95.819  0.00  0.00    +0.000 C 
ATOM     16  C   UNL     1       0.263  11.070  94.847  0.00  0.00    +0.000 C 
ATOM     17  C   UNL     1       5.961  13.547  98.085  0.00  0.00    +0.000 C 
ATOM     18  C   UNL     1       1.173   9.084  96.080  0.00  0.00    +0.000 C 
ATOM     19  C   UNL     1       2.554  16.206  94.626  0.00  0.00    +0.000 C 
ENDROOT
BRANCH   6  20
ATOM     20  O   UNL     1       3.196  10.105  98.090  0.00  0.00    +0.000 OA
BRANCH  20  22
ATOM     21  O   UNL     1       3.447  11.088 100.156  0.00  0.00    +0.000 OA
ATOM     22  C   UNL     1       2.757  10.481  99.340  0.00  0.00    +0.000 C 
BRANCH  22  23
ATOM     23  C   UNL     1       1.326  10.047  99.536  0.00  0.00    +0.000 C 
ATOM     24  C   UNL     1       0.142  10.982  99.350  0.00  0.00    +0.000 C 
ATOM     25  C   UNL     1       1.005   8.780  99.827  0.00  0.00    +0.000 C 
ENDBRANCH  22  23
ENDBRANCH  20  22
ENDBRANCH   6  20
TORSDOF 3
ENDMDL
MODEL 7
REMARK VINA RESULT:      -5.7      2.181      4.985
REMARK  Name = 6325056_Deoxyelephantopin.pdbqt.pdb
REMARK  3 active torsions:
REMARK  status: ('A' for Active; 'I' for Inactive)
REMARK    1  A    between atoms: C_6  and  O_20
REMARK    2  A    between atoms: O_20  and  C_22
REMARK    3  A    between atoms: C_22  and  C_23
REMARK                            x       y       z     vdW  Elec       q    Type
REMARK                         _______ _______ _______ _____ _____    ______ ____
ROOT
ATOM      1  O   UNL     1      63.852  30.538  71.379  0.00  0.00    +0.000 OA
ATOM      2  O   UNL     1      61.427  35.849  74.285  0.00  0.00    +0.000 OA
ATOM      3  O   UNL     1      63.530  28.627  70.146  0.00  0.00    +0.000 OA
ATOM      4  O   UNL     1      59.701  36.063  72.746  0.00  0.00    +0.000 OA
ATOM      5  C   UNL     1      61.658  31.407  71.341  0.00  0.00    +0.000 C 
ATOM      6  C   UNL     1      60.511  32.301  71.506  0.00  0.00    +0.000 C 
ATOM      7  C   UNL     1      63.023  31.585  71.802  0.00  0.00    +0.000 C 
ATOM      8  C   UNL     1      60.275  33.061  72.681  0.00  0.00    +0.000 C 
ATOM      9  C   UNL     1      61.696  30.160  70.607  0.00  0.00    +0.000 C 
ATOM     10  C   UNL     1      60.168  33.934  73.810  0.00  0.00    +0.000 C 
ATOM     11  C   UNL     1      63.567  32.583  72.643  0.00  0.00    +0.000 C 
ATOM     12  C   UNL     1      61.952  34.698  74.910  0.00  0.00    +0.000 C 
ATOM     13  C   UNL     1      63.209  34.267  74.392  0.00  0.00    +0.000 C 
ATOM     14  C   UNL     1      64.092  33.543  73.558  0.00  0.00    +0.000 C 
ATOM     15  C   UNL     1      60.954  33.703  74.949  0.00  0.00    +0.000 C 
ATOM     16  C   UNL     1      63.092  29.649  70.647  0.00  0.00    +0.000 C 
ATOM     17  C   UNL     1      60.340  35.403  73.546  0.00  0.00    +0.000 C 
ATOM     18  C   UNL     1      60.657  29.523  70.054  0.00  0.00    +0.000 C 
ATOM     19  C   UNL     1      65.563  33.588  73.817  0.00  0.00    +0.000 C 
ENDROOT
BRANCH   6  20
ATOM     20  O   UNL     1      59.444  32.247  70.593  0.00  0.00    +0.000 OA
BRANCH  20  22
ATOM     21  O   UNL     1      59.369  34.392  69.764  0.00  0.00    +0.000 OA
ATOM     22  C   UNL     1      59.486  33.183  69.583  0.00  0.00    +0.000 C 
BRANCH  22  23
ATOM     23  C   UNL     1      59.704  32.501  68.256  0.00  0.00    +0.000 C 
ATOM     24  C   UNL     1      61.070  32.373  67.603  0.00  0.00    +0.000 C 
ATOM     25  C   UNL     1      58.703  31.904  67.596  0.00  0.00    +0.000 C 
ENDBRANCH  22  23
ENDBRANCH  20  22
ENDBRANCH   6  20
TORSDOF 3
ENDMDL
MODEL 8
REMARK VINA RESULT:      -5.6     20.481     21.711
REMARK  Name = 6325056_Deoxyelephantopin.pdbqt.pdb
REMARK  3 active torsions:
REMARK  status: ('A' for Active; 'I' for Inactive)
REMARK    1  A    between atoms: C_6  and  O_20
REMARK    2  A    between atoms: O_20  and  C_22
REMARK    3  A    between atoms: C_22  and  C_23
REMARK                            x       y       z     vdW  Elec       q    Type
REMARK                         _______ _______ _______ _____ _____    ______ ____
ROOT
ATOM      1  O   UNL     1      42.546  26.207  87.429  0.00  0.00    +0.000 OA
ATOM      2  O   UNL     1      48.790  24.364  87.806  0.00  0.00    +0.000 OA
ATOM      3  O   UNL     1      40.870  27.329  86.332  0.00  0.00    +0.000 OA
ATOM      4  O   UNL     1      49.054  24.322  85.500  0.00  0.00    +0.000 OA
ATOM      5  C   UNL     1      44.300  26.499  85.877  0.00  0.00    +0.000 C 
ATOM      6  C   UNL     1      45.590  26.385  85.195  0.00  0.00    +0.000 C 
ATOM      7  C   UNL     1      43.892  25.938  87.152  0.00  0.00    +0.000 C 
ATOM      8  C   UNL     1      46.836  26.393  85.874  0.00  0.00    +0.000 C 
ATOM      9  C   UNL     1      43.105  27.150  85.383  0.00  0.00    +0.000 C 
ATOM     10  C   UNL     1      48.055  26.234  86.608  0.00  0.00    +0.000 C 
ATOM     11  C   UNL     1      44.665  25.266  88.129  0.00  0.00    +0.000 C 
ATOM     12  C   UNL     1      48.124  25.296  88.630  0.00  0.00    +0.000 C 
ATOM     13  C   UNL     1      46.865  24.847  89.130  0.00  0.00    +0.000 C 
ATOM     14  C   UNL     1      45.464  24.663  89.144  0.00  0.00    +0.000 C 
ATOM     15  C   UNL     1      48.092  26.544  87.976  0.00  0.00    +0.000 C 
ATOM     16  C   UNL     1      42.023  26.937  86.382  0.00  0.00    +0.000 C 
ATOM     17  C   UNL     1      48.722  24.892  86.525  0.00  0.00    +0.000 C 
ATOM     18  C   UNL     1      42.993  27.883  84.270  0.00  0.00    +0.000 C 
ATOM     19  C   UNL     1      44.804  24.074  90.349  0.00  0.00    +0.000 C 
ENDROOT
BRANCH   6  20
ATOM     20  O   UNL     1      45.657  26.521  83.798  0.00  0.00    +0.000 OA
BRANCH  20  22
ATOM     21  O   UNL     1      47.391  25.594  82.601  0.00  0.00    +0.000 OA
ATOM     22  C   UNL     1      46.290  25.492  83.136  0.00  0.00    +0.000 C 
BRANCH  22  23
ATOM     23  C   UNL     1      45.437  24.249  83.182  0.00  0.00    +0.000 C 
ATOM     24  C   UNL     1      43.985  24.222  82.734  0.00  0.00    +0.000 C 
ATOM     25  C   UNL     1      45.932  23.066  83.567  0.00  0.00    +0.000 C 
ENDBRANCH  22  23
ENDBRANCH  20  22
ENDBRANCH   6  20
TORSDOF 3
ENDMDL
MODEL 9
REMARK VINA RESULT:      -5.6     14.310     15.919
REMARK  Name = 6325056_Deoxyelephantopin.pdbqt.pdb
REMARK  3 active torsions:
REMARK  status: ('A' for Active; 'I' for Inactive)
REMARK    1  A    between atoms: C_6  and  O_20
REMARK    2  A    between atoms: O_20  and  C_22
REMARK    3  A    between atoms: C_22  and  C_23
REMARK                            x       y       z     vdW  Elec       q    Type
REMARK                         _______ _______ _______ _____ _____    ______ ____
ROOT
ATOM      1  O   UNL     1      58.766  40.329  87.949  0.00  0.00    +0.000 OA
ATOM      2  O   UNL     1      58.347  33.827  87.669  0.00  0.00    +0.000 OA
ATOM      3  O   UNL     1      58.129  42.395  87.174  0.00  0.00    +0.000 OA
ATOM      4  O   UNL     1      56.136  33.869  86.962  0.00  0.00    +0.000 OA
ATOM      5  C   UNL     1      57.327  38.966  86.668  0.00  0.00    +0.000 C 
ATOM      6  C   UNL     1      56.603  37.803  86.153  0.00  0.00    +0.000 C 
ATOM      7  C   UNL     1      58.376  39.013  87.670  0.00  0.00    +0.000 C 
ATOM      8  C   UNL     1      57.210  36.539  85.931  0.00  0.00    +0.000 C 
ATOM      9  C   UNL     1      57.100  40.356  86.333  0.00  0.00    +0.000 C 
ATOM     10  C   UNL     1      57.817  35.244  85.884  0.00  0.00    +0.000 C 
ATOM     11  C   UNL     1      59.068  37.953  88.301  0.00  0.00    +0.000 C 
ATOM     12  C   UNL     1      59.442  34.630  87.283  0.00  0.00    +0.000 C 
ATOM     13  C   UNL     1      59.817  35.617  88.243  0.00  0.00    +0.000 C 
ATOM     14  C   UNL     1      59.818  36.882  88.872  0.00  0.00    +0.000 C 
ATOM     15  C   UNL     1      59.212  35.123  85.983  0.00  0.00    +0.000 C 
ATOM     16  C   UNL     1      58.017  41.181  87.164  0.00  0.00    +0.000 C 
ATOM     17  C   UNL     1      57.298  34.219  86.850  0.00  0.00    +0.000 C 
ATOM     18  C   UNL     1      56.276  40.829  85.391  0.00  0.00    +0.000 C 
ATOM     19  C   UNL     1      60.799  37.169  89.962  0.00  0.00    +0.000 C 
ENDROOT
BRANCH   6  20
ATOM     20  O   UNL     1      55.317  37.964  85.610  0.00  0.00    +0.000 OA
BRANCH  20  22
ATOM     21  O   UNL     1      53.762  36.268  85.536  0.00  0.00    +0.000 OA
ATOM     22  C   UNL     1      54.342  37.157  86.155  0.00  0.00    +0.000 C 
BRANCH  22  23
ATOM     23  C   UNL     1      54.116  37.526  87.599  0.00  0.00    +0.000 C 
ATOM     24  C   UNL     1      54.475  36.609  88.756  0.00  0.00    +0.000 C 
ATOM     25  C   UNL     1      53.637  38.724  87.956  0.00  0.00    +0.000 C 
ENDBRANCH  22  23
ENDBRANCH  20  22
ENDBRANCH   6  20
TORSDOF 3
ENDMDL
