MODEL 1
REMARK VINA RESULT:      -5.8      0.000      0.000
REMARK  Name = 641785_Cardamonin.pdbqt.pdb
REMARK  6 active torsions:
REMARK  status: ('A' for Active; 'I' for Inactive)
REMARK    1  A    between atoms: C_1  and  C_14
REMARK    2  A    between atoms: C_2  and  O_7
REMARK    3  A    between atoms: C_3  and  O_9
REMARK    4  A    between atoms: C_6  and  O_11
REMARK    5  A    between atoms: C_14  and  C_15
REMARK    6  A    between atoms: C_16  and  C_17
REMARK                            x       y       z     vdW  Elec       q    Type
REMARK                         _______ _______ _______ _____ _____    ______ ____
ROOT
ATOM      1  C   UNL     1      59.115  35.582  77.428  0.00  0.00    +0.000 A 
ATOM      2  C   UNL     1      58.003  36.183  76.807  0.00  0.00    +0.000 A 
ATOM      3  C   UNL     1      58.991  35.137  78.760  0.00  0.00    +0.000 A 
ATOM      4  C   UNL     1      56.816  36.345  77.535  0.00  0.00    +0.000 A 
ATOM      5  C   UNL     1      57.806  35.316  79.473  0.00  0.00    +0.000 A 
ATOM      6  C   UNL     1      56.726  35.925  78.856  0.00  0.00    +0.000 A 
ENDROOT
BRANCH   2   7
ATOM      7  O   UNL     1      58.085  36.526  75.477  0.00  0.00    +0.000 OA
ATOM      8  C   UNL     1      56.982  37.207  74.949  0.00  0.00    +0.000 C 
ENDBRANCH   2   7
BRANCH   3   9
ATOM      9  O   UNL     1      60.000  34.512  79.448  0.00  0.00    +0.000 OA
ATOM     10  H   UNL     1      60.690  35.168  79.693  0.00  0.00    +0.000 HD
ENDBRANCH   3   9
BRANCH   6  11
ATOM     11  O   UNL     1      55.576  36.094  79.565  0.00  0.00    +0.000 OA
ATOM     12  H   UNL     1      54.922  35.437  79.265  0.00  0.00    +0.000 HD
ENDBRANCH   6  11
BRANCH   1  14
ATOM     13  O   UNL     1      61.361  36.140  76.987  0.00  0.00    +0.000 OA
ATOM     14  C   UNL     1      60.424  35.385  76.753  0.00  0.00    +0.000 C 
BRANCH  14  15
ATOM     15  C   UNL     1      60.588  34.353  75.759  0.00  0.00    +0.000 C 
ATOM     16  C   UNL     1      60.720  33.505  74.917  0.00  0.00    +0.000 C 
BRANCH  16  17
ATOM     17  C   UNL     1      60.876  32.494  73.924  0.00  0.00    +0.000 A 
ATOM     18  C   UNL     1      59.888  32.311  72.958  0.00  0.00    +0.000 A 
ATOM     19  C   UNL     1      62.014  31.691  73.921  0.00  0.00    +0.000 A 
ATOM     20  C   UNL     1      60.040  31.323  71.988  0.00  0.00    +0.000 A 
ATOM     21  C   UNL     1      62.165  30.703  72.951  0.00  0.00    +0.000 A 
ATOM     22  C   UNL     1      61.178  30.520  71.986  0.00  0.00    +0.000 A 
ENDBRANCH  16  17
ENDBRANCH  14  15
ENDBRANCH   1  14
TORSDOF 6
ENDMDL
MODEL 2
REMARK VINA RESULT:      -5.5      1.925      3.532
REMARK  Name = 641785_Cardamonin.pdbqt.pdb
REMARK  6 active torsions:
REMARK  status: ('A' for Active; 'I' for Inactive)
REMARK    1  A    between atoms: C_1  and  C_14
REMARK    2  A    between atoms: C_2  and  O_7
REMARK    3  A    between atoms: C_3  and  O_9
REMARK    4  A    between atoms: C_6  and  O_11
REMARK    5  A    between atoms: C_14  and  C_15
REMARK    6  A    between atoms: C_16  and  C_17
REMARK                            x       y       z     vdW  Elec       q    Type
REMARK                         _______ _______ _______ _____ _____    ______ ____
ROOT
ATOM      1  C   UNL     1      58.242  37.337  74.982  0.00  0.00    +0.000 A 
ATOM      2  C   UNL     1      57.951  37.063  76.332  0.00  0.00    +0.000 A 
ATOM      3  C   UNL     1      57.292  38.037  74.210  0.00  0.00    +0.000 A 
ATOM      4  C   UNL     1      56.718  37.470  76.863  0.00  0.00    +0.000 A 
ATOM      5  C   UNL     1      56.067  38.425  74.752  0.00  0.00    +0.000 A 
ATOM      6  C   UNL     1      55.786  38.133  76.076  0.00  0.00    +0.000 A 
ENDROOT
BRANCH   2   7
ATOM      7  O   UNL     1      58.914  36.472  77.116  0.00  0.00    +0.000 OA
ATOM      8  C   UNL     1      58.789  36.671  78.497  0.00  0.00    +0.000 C 
ENDBRANCH   2   7
BRANCH   3   9
ATOM      9  O   UNL     1      57.488  38.383  72.897  0.00  0.00    +0.000 OA
ATOM     10  H   UNL     1      58.233  39.020  72.830  0.00  0.00    +0.000 HD
ENDBRANCH   3   9
BRANCH   6  11
ATOM     11  O   UNL     1      54.585  38.516  76.591  0.00  0.00    +0.000 OA
ATOM     12  H   UNL     1      54.277  39.309  76.116  0.00  0.00    +0.000 HD
ENDBRANCH   6  11
BRANCH   1  14
ATOM     13  O   UNL     1      60.363  37.766  74.051  0.00  0.00    +0.000 OA
ATOM     14  C   UNL     1      59.507  36.930  74.318  0.00  0.00    +0.000 C 
BRANCH  14  15
ATOM     15  C   UNL     1      59.714  35.562  73.911  0.00  0.00    +0.000 C 
ATOM     16  C   UNL     1      59.876  34.425  73.556  0.00  0.00    +0.000 C 
BRANCH  16  17
ATOM     17  C   UNL     1      60.071  33.074  73.141  0.00  0.00    +0.000 A 
ATOM     18  C   UNL     1      60.749  32.184  73.972  0.00  0.00    +0.000 A 
ATOM     19  C   UNL     1      59.587  32.648  71.907  0.00  0.00    +0.000 A 
ATOM     20  C   UNL     1      60.941  30.865  73.568  0.00  0.00    +0.000 A 
ATOM     21  C   UNL     1      59.780  31.329  71.503  0.00  0.00    +0.000 A 
ATOM     22  C   UNL     1      60.457  30.439  72.333  0.00  0.00    +0.000 A 
ENDBRANCH  16  17
ENDBRANCH  14  15
ENDBRANCH   1  14
TORSDOF 6
ENDMDL
MODEL 3
REMARK VINA RESULT:      -5.4      6.117      9.376
REMARK  Name = 641785_Cardamonin.pdbqt.pdb
REMARK  6 active torsions:
REMARK  status: ('A' for Active; 'I' for Inactive)
REMARK    1  A    between atoms: C_1  and  C_14
REMARK    2  A    between atoms: C_2  and  O_7
REMARK    3  A    between atoms: C_3  and  O_9
REMARK    4  A    between atoms: C_6  and  O_11
REMARK    5  A    between atoms: C_14  and  C_15
REMARK    6  A    between atoms: C_16  and  C_17
REMARK                            x       y       z     vdW  Elec       q    Type
REMARK                         _______ _______ _______ _____ _____    ______ ____
ROOT
ATOM      1  C   UNL     1      56.293  36.471  85.968  0.00  0.00    +0.000 A 
ATOM      2  C   UNL     1      57.370  36.071  86.781  0.00  0.00    +0.000 A 
ATOM      3  C   UNL     1      54.998  36.007  86.278  0.00  0.00    +0.000 A 
ATOM      4  C   UNL     1      57.131  35.205  87.858  0.00  0.00    +0.000 A 
ATOM      5  C   UNL     1      54.780  35.138  87.346  0.00  0.00    +0.000 A 
ATOM      6  C   UNL     1      55.851  34.737  88.127  0.00  0.00    +0.000 A 
ENDROOT
BRANCH   2   7
ATOM      7  O   UNL     1      58.618  36.602  86.546  0.00  0.00    +0.000 OA
ATOM      8  C   UNL     1      59.041  37.595  87.438  0.00  0.00    +0.000 C 
ENDBRANCH   2   7
BRANCH   3   9
ATOM      9  O   UNL     1      53.876  36.360  85.571  0.00  0.00    +0.000 OA
ATOM     10  H   UNL     1      54.048  36.265  84.608  0.00  0.00    +0.000 HD
ENDBRANCH   3   9
BRANCH   6  11
ATOM     11  O   UNL     1      55.624  33.887  89.166  0.00  0.00    +0.000 OA
ATOM     12  H   UNL     1      55.993  33.014  88.945  0.00  0.00    +0.000 HD
ENDBRANCH   6  11
BRANCH   1  14
ATOM     13  O   UNL     1      56.144  38.552  84.874  0.00  0.00    +0.000 OA
ATOM     14  C   UNL     1      56.443  37.366  84.791  0.00  0.00    +0.000 C 
BRANCH  14  15
ATOM     15  C   UNL     1      56.869  36.839  83.518  0.00  0.00    +0.000 C 
ATOM     16  C   UNL     1      57.209  36.408  82.449  0.00  0.00    +0.000 C 
BRANCH  16  17
ATOM     17  C   UNL     1      57.618  35.893  81.184  0.00  0.00    +0.000 A 
ATOM     18  C   UNL     1      56.945  36.281  80.026  0.00  0.00    +0.000 A 
ATOM     19  C   UNL     1      58.685  35.001  81.107  0.00  0.00    +0.000 A 
ATOM     20  C   UNL     1      57.342  35.776  78.790  0.00  0.00    +0.000 A 
ATOM     21  C   UNL     1      59.082  34.497  79.870  0.00  0.00    +0.000 A 
ATOM     22  C   UNL     1      58.410  34.885  78.713  0.00  0.00    +0.000 A 
ENDBRANCH  16  17
ENDBRANCH  14  15
ENDBRANCH   1  14
TORSDOF 6
ENDMDL
MODEL 4
REMARK VINA RESULT:      -5.3      4.304      7.661
REMARK  Name = 641785_Cardamonin.pdbqt.pdb
REMARK  6 active torsions:
REMARK  status: ('A' for Active; 'I' for Inactive)
REMARK    1  A    between atoms: C_1  and  C_14
REMARK    2  A    between atoms: C_2  and  O_7
REMARK    3  A    between atoms: C_3  and  O_9
REMARK    4  A    between atoms: C_6  and  O_11
REMARK    5  A    between atoms: C_14  and  C_15
REMARK    6  A    between atoms: C_16  and  C_17
REMARK                            x       y       z     vdW  Elec       q    Type
REMARK                         _______ _______ _______ _____ _____    ______ ____
ROOT
ATOM      1  C   UNL     1      57.707  37.819  74.844  0.00  0.00    +0.000 A 
ATOM      2  C   UNL     1      57.135  36.579  74.502  0.00  0.00    +0.000 A 
ATOM      3  C   UNL     1      57.443  38.361  76.119  0.00  0.00    +0.000 A 
ATOM      4  C   UNL     1      56.301  35.931  75.424  0.00  0.00    +0.000 A 
ATOM      5  C   UNL     1      56.602  37.708  77.019  0.00  0.00    +0.000 A 
ATOM      6  C   UNL     1      56.031  36.498  76.663  0.00  0.00    +0.000 A 
ENDROOT
BRANCH   2   7
ATOM      7  O   UNL     1      57.471  35.996  73.302  0.00  0.00    +0.000 OA
ATOM      8  C   UNL     1      58.318  34.884  73.374  0.00  0.00    +0.000 C 
ENDBRANCH   2   7
BRANCH   3   9
ATOM      9  O   UNL     1      57.974  39.545  76.565  0.00  0.00    +0.000 OA
ATOM     10  H   UNL     1      58.200  39.468  77.518  0.00  0.00    +0.000 HD
ENDBRANCH   3   9
BRANCH   6  11
ATOM     11  O   UNL     1      55.211  35.873  77.552  0.00  0.00    +0.000 OA
ATOM     12  H   UNL     1      55.479  36.120  78.455  0.00  0.00    +0.000 HD
ENDBRANCH   6  11
BRANCH   1  14
ATOM     13  O   UNL     1      59.797  38.403  73.926  0.00  0.00    +0.000 OA
ATOM     14  C   UNL     1      58.586  38.595  73.932  0.00  0.00    +0.000 C 
BRANCH  14  15
ATOM     15  C   UNL     1      58.038  39.636  73.096  0.00  0.00    +0.000 C 
ATOM     16  C   UNL     1      57.585  40.515  72.413  0.00  0.00    +0.000 C 
BRANCH  16  17
ATOM     17  C   UNL     1      57.045  41.554  71.599  0.00  0.00    +0.000 A 
ATOM     18  C   UNL     1      56.951  41.376  70.220  0.00  0.00    +0.000 A 
ATOM     19  C   UNL     1      56.616  42.743  72.182  0.00  0.00    +0.000 A 
ATOM     20  C   UNL     1      56.425  42.391  69.423  0.00  0.00    +0.000 A 
ATOM     21  C   UNL     1      56.090  43.758  71.385  0.00  0.00    +0.000 A 
ATOM     22  C   UNL     1      55.995  43.581  70.006  0.00  0.00    +0.000 A 
ENDBRANCH  16  17
ENDBRANCH  14  15
ENDBRANCH   1  14
TORSDOF 6
ENDMDL
MODEL 5
REMARK VINA RESULT:      -5.3      5.032      8.707
REMARK  Name = 641785_Cardamonin.pdbqt.pdb
REMARK  6 active torsions:
REMARK  status: ('A' for Active; 'I' for Inactive)
REMARK    1  A    between atoms: C_1  and  C_14
REMARK    2  A    between atoms: C_2  and  O_7
REMARK    3  A    between atoms: C_3  and  O_9
REMARK    4  A    between atoms: C_6  and  O_11
REMARK    5  A    between atoms: C_14  and  C_15
REMARK    6  A    between atoms: C_16  and  C_17
REMARK                            x       y       z     vdW  Elec       q    Type
REMARK                         _______ _______ _______ _____ _____    ______ ____
ROOT
ATOM      1  C   UNL     1      56.755  38.485  75.305  0.00  0.00    +0.000 A 
ATOM      2  C   UNL     1      58.152  38.308  75.318  0.00  0.00    +0.000 A 
ATOM      3  C   UNL     1      56.049  38.416  76.523  0.00  0.00    +0.000 A 
ATOM      4  C   UNL     1      58.797  38.043  76.535  0.00  0.00    +0.000 A 
ATOM      5  C   UNL     1      56.706  38.141  77.722  0.00  0.00    +0.000 A 
ATOM      6  C   UNL     1      58.077  37.950  77.719  0.00  0.00    +0.000 A 
ENDROOT
BRANCH   2   7
ATOM      7  O   UNL     1      58.858  38.476  74.150  0.00  0.00    +0.000 OA
ATOM      8  C   UNL     1      59.873  39.439  74.179  0.00  0.00    +0.000 C 
ENDBRANCH   2   7
BRANCH   3   9
ATOM      9  O   UNL     1      54.694  38.605  76.627  0.00  0.00    +0.000 OA
ATOM     10  H   UNL     1      54.288  37.839  77.089  0.00  0.00    +0.000 HD
ENDBRANCH   3   9
BRANCH   6  11
ATOM     11  O   UNL     1      58.705  37.681  78.897  0.00  0.00    +0.000 OA
ATOM     12  H   UNL     1      59.464  38.283  78.994  0.00  0.00    +0.000 HD
ENDBRANCH   6  11
BRANCH   1  14
ATOM     13  O   UNL     1      55.458  37.820  73.455  0.00  0.00    +0.000 OA
ATOM     14  C   UNL     1      55.974  38.748  74.068  0.00  0.00    +0.000 C 
BRANCH  14  15
ATOM     15  C   UNL     1      55.877  40.083  73.532  0.00  0.00    +0.000 C 
ATOM     16  C   UNL     1      55.797  41.203  73.103  0.00  0.00    +0.000 C 
BRANCH  16  17
ATOM     17  C   UNL     1      55.701  42.529  72.587  0.00  0.00    +0.000 A 
ATOM     18  C   UNL     1      55.981  42.773  71.244  0.00  0.00    +0.000 A 
ATOM     19  C   UNL     1      55.330  43.577  73.426  0.00  0.00    +0.000 A 
ATOM     20  C   UNL     1      55.888  44.069  70.740  0.00  0.00    +0.000 A 
ATOM     21  C   UNL     1      55.237  44.872  72.921  0.00  0.00    +0.000 A 
ATOM     22  C   UNL     1      55.517  45.117  71.579  0.00  0.00    +0.000 A 
ENDBRANCH  16  17
ENDBRANCH  14  15
ENDBRANCH   1  14
TORSDOF 6
ENDMDL
MODEL 6
REMARK VINA RESULT:      -5.2     17.613     19.064
REMARK  Name = 641785_Cardamonin.pdbqt.pdb
REMARK  6 active torsions:
REMARK  status: ('A' for Active; 'I' for Inactive)
REMARK    1  A    between atoms: C_1  and  C_14
REMARK    2  A    between atoms: C_2  and  O_7
REMARK    3  A    between atoms: C_3  and  O_9
REMARK    4  A    between atoms: C_6  and  O_11
REMARK    5  A    between atoms: C_14  and  C_15
REMARK    6  A    between atoms: C_16  and  C_17
REMARK                            x       y       z     vdW  Elec       q    Type
REMARK                         _______ _______ _______ _____ _____    ______ ____
ROOT
ATOM      1  C   UNL     1      43.945  27.518  85.072  0.00  0.00    +0.000 A 
ATOM      2  C   UNL     1      42.706  27.066  84.579  0.00  0.00    +0.000 A 
ATOM      3  C   UNL     1      43.999  28.073  86.367  0.00  0.00    +0.000 A 
ATOM      4  C   UNL     1      41.560  27.201  85.377  0.00  0.00    +0.000 A 
ATOM      5  C   UNL     1      42.848  28.210  87.142  0.00  0.00    +0.000 A 
ATOM      6  C   UNL     1      41.633  27.778  86.638  0.00  0.00    +0.000 A 
ENDROOT
BRANCH   2   7
ATOM      7  O   UNL     1      42.664  26.431  83.360  0.00  0.00    +0.000 OA
ATOM      8  C   UNL     1      42.434  25.050  83.394  0.00  0.00    +0.000 C 
ENDBRANCH   2   7
BRANCH   3   9
ATOM      9  O   UNL     1      45.158  28.515  86.955  0.00  0.00    +0.000 OA
ATOM     10  H   UNL     1      45.779  28.832  86.263  0.00  0.00    +0.000 HD
ENDBRANCH   3   9
BRANCH   6  11
ATOM     11  O   UNL     1      40.517  27.920  87.406  0.00  0.00    +0.000 OA
ATOM     12  H   UNL     1      40.027  28.706  87.107  0.00  0.00    +0.000 HD
ENDBRANCH   6  11
BRANCH   1  14
ATOM     13  O   UNL     1      45.605  28.409  83.659  0.00  0.00    +0.000 OA
ATOM     14  C   UNL     1      45.211  27.441  84.300  0.00  0.00    +0.000 C 
BRANCH  14  15
ATOM     15  C   UNL     1      45.954  26.207  84.231  0.00  0.00    +0.000 C 
ATOM     16  C   UNL     1      46.587  25.186  84.183  0.00  0.00    +0.000 C 
BRANCH  16  17
ATOM     17  C   UNL     1      47.334  23.973  84.121  0.00  0.00    +0.000 A 
ATOM     18  C   UNL     1      48.481  23.823  84.899  0.00  0.00    +0.000 A 
ATOM     19  C   UNL     1      46.918  22.941  83.284  0.00  0.00    +0.000 A 
ATOM     20  C   UNL     1      49.212  22.639  84.838  0.00  0.00    +0.000 A 
ATOM     21  C   UNL     1      47.649  21.757  83.223  0.00  0.00    +0.000 A 
ATOM     22  C   UNL     1      48.796  21.607  84.000  0.00  0.00    +0.000 A 
ENDBRANCH  16  17
ENDBRANCH  14  15
ENDBRANCH   1  14
TORSDOF 6
ENDMDL
MODEL 7
REMARK VINA RESULT:      -5.1     57.602     59.327
REMARK  Name = 641785_Cardamonin.pdbqt.pdb
REMARK  6 active torsions:
REMARK  status: ('A' for Active; 'I' for Inactive)
REMARK    1  A    between atoms: C_1  and  C_14
REMARK    2  A    between atoms: C_2  and  O_7
REMARK    3  A    between atoms: C_3  and  O_9
REMARK    4  A    between atoms: C_6  and  O_11
REMARK    5  A    between atoms: C_14  and  C_15
REMARK    6  A    between atoms: C_16  and  C_17
REMARK                            x       y       z     vdW  Elec       q    Type
REMARK                         _______ _______ _______ _____ _____    ______ ____
ROOT
ATOM      1  C   UNL     1      14.024   5.044  98.494  0.00  0.00    +0.000 A 
ATOM      2  C   UNL     1      13.489   3.794  98.862  0.00  0.00    +0.000 A 
ATOM      3  C   UNL     1      14.164   5.346  97.124  0.00  0.00    +0.000 A 
ATOM      4  C   UNL     1      13.134   2.879  97.860  0.00  0.00    +0.000 A 
ATOM      5  C   UNL     1      13.816   4.420  96.142  0.00  0.00    +0.000 A 
ATOM      6  C   UNL     1      13.309   3.188  96.517  0.00  0.00    +0.000 A 
ENDROOT
BRANCH   2   7
ATOM      7  O   UNL     1      13.254   3.534 100.192  0.00  0.00    +0.000 OA
ATOM      8  C   UNL     1      11.910   3.439 100.572  0.00  0.00    +0.000 C 
ENDBRANCH   2   7
BRANCH   3   9
ATOM      9  O   UNL     1      14.644   6.544  96.657  0.00  0.00    +0.000 OA
ATOM     10  H   UNL     1      14.173   7.284  97.099  0.00  0.00    +0.000 HD
ENDBRANCH   3   9
BRANCH   6  11
ATOM     11  O   UNL     1      12.974   2.292  95.547  0.00  0.00    +0.000 OA
ATOM     12  H   UNL     1      12.315   2.699  94.957  0.00  0.00    +0.000 HD
ENDBRANCH   6  11
BRANCH   1  14
ATOM     13  O   UNL     1      15.525   5.965 100.058  0.00  0.00    +0.000 OA
ATOM     14  C   UNL     1      14.452   6.073  99.476  0.00  0.00    +0.000 C 
BRANCH  14  15
ATOM     15  C   UNL     1      13.580   7.171  99.814  0.00  0.00    +0.000 C 
ATOM     16  C   UNL     1      12.838   8.074 100.096  0.00  0.00    +0.000 C 
BRANCH  16  17
ATOM     17  C   UNL     1      11.963   9.150 100.429  0.00  0.00    +0.000 A 
ATOM     18  C   UNL     1      10.583   8.965 100.373  0.00  0.00    +0.000 A 
ATOM     19  C   UNL     1      12.489  10.383 100.806  0.00  0.00    +0.000 A 
ATOM     20  C   UNL     1       9.728  10.016 100.697  0.00  0.00    +0.000 A 
ATOM     21  C   UNL     1      11.633  11.434 101.129  0.00  0.00    +0.000 A 
ATOM     22  C   UNL     1      10.254  11.249 101.074  0.00  0.00    +0.000 A 
ENDBRANCH  16  17
ENDBRANCH  14  15
ENDBRANCH   1  14
TORSDOF 6
ENDMDL
MODEL 8
REMARK VINA RESULT:      -5.1     18.931     21.247
REMARK  Name = 641785_Cardamonin.pdbqt.pdb
REMARK  6 active torsions:
REMARK  status: ('A' for Active; 'I' for Inactive)
REMARK    1  A    between atoms: C_1  and  C_14
REMARK    2  A    between atoms: C_2  and  O_7
REMARK    3  A    between atoms: C_3  and  O_9
REMARK    4  A    between atoms: C_6  and  O_11
REMARK    5  A    between atoms: C_14  and  C_15
REMARK    6  A    between atoms: C_16  and  C_17
REMARK                            x       y       z     vdW  Elec       q    Type
REMARK                         _______ _______ _______ _____ _____    ______ ____
ROOT
ATOM      1  C   UNL     1      43.045  24.755  83.378  0.00  0.00    +0.000 A 
ATOM      2  C   UNL     1      43.347  26.112  83.601  0.00  0.00    +0.000 A 
ATOM      3  C   UNL     1      44.105  23.843  83.202  0.00  0.00    +0.000 A 
ATOM      4  C   UNL     1      44.688  26.522  83.616  0.00  0.00    +0.000 A 
ATOM      5  C   UNL     1      45.432  24.269  83.209  0.00  0.00    +0.000 A 
ATOM      6  C   UNL     1      45.715  25.610  83.410  0.00  0.00    +0.000 A 
ENDROOT
BRANCH   2   7
ATOM      7  O   UNL     1      42.322  26.988  83.876  0.00  0.00    +0.000 OA
ATOM      8  C   UNL     1      42.616  28.011  84.785  0.00  0.00    +0.000 C 
ENDBRANCH   2   7
BRANCH   3   9
ATOM      9  O   UNL     1      43.923  22.496  83.010  0.00  0.00    +0.000 OA
ATOM     10  H   UNL     1      44.018  22.024  83.867  0.00  0.00    +0.000 HD
ENDBRANCH   3   9
BRANCH   6  11
ATOM     11  O   UNL     1      47.016  26.013  83.414  0.00  0.00    +0.000 OA
ATOM     12  H   UNL     1      47.466  25.629  82.640  0.00  0.00    +0.000 HD
ENDBRANCH   6  11
BRANCH   1  14
ATOM     13  O   UNL     1      41.134  23.754  84.325  0.00  0.00    +0.000 OA
ATOM     14  C   UNL     1      41.659  24.223  83.321  0.00  0.00    +0.000 C 
BRANCH  14  15
ATOM     15  C   UNL     1      40.940  24.181  82.072  0.00  0.00    +0.000 C 
ATOM     16  C   UNL     1      40.353  24.132  81.024  0.00  0.00    +0.000 C 
BRANCH  16  17
ATOM     17  C   UNL     1      39.653  24.081  79.782  0.00  0.00    +0.000 A 
ATOM     18  C   UNL     1      38.863  22.974  79.476  0.00  0.00    +0.000 A 
ATOM     19  C   UNL     1      39.761  25.135  78.878  0.00  0.00    +0.000 A 
ATOM     20  C   UNL     1      38.180  22.922  78.263  0.00  0.00    +0.000 A 
ATOM     21  C   UNL     1      39.077  25.082  77.665  0.00  0.00    +0.000 A 
ATOM     22  C   UNL     1      38.288  23.976  77.359  0.00  0.00    +0.000 A 
ENDBRANCH  16  17
ENDBRANCH  14  15
ENDBRANCH   1  14
TORSDOF 6
ENDMDL
MODEL 9
REMARK VINA RESULT:      -5.1     57.462     59.812
REMARK  Name = 641785_Cardamonin.pdbqt.pdb
REMARK  6 active torsions:
REMARK  status: ('A' for Active; 'I' for Inactive)
REMARK    1  A    between atoms: C_1  and  C_14
REMARK    2  A    between atoms: C_2  and  O_7
REMARK    3  A    between atoms: C_3  and  O_9
REMARK    4  A    between atoms: C_6  and  O_11
REMARK    5  A    between atoms: C_14  and  C_15
REMARK    6  A    between atoms: C_16  and  C_17
REMARK                            x       y       z     vdW  Elec       q    Type
REMARK                         _______ _______ _______ _____ _____    ______ ____
ROOT
ATOM      1  C   UNL     1      13.631  -0.015  95.672  0.00  0.00    +0.000 A 
ATOM      2  C   UNL     1      13.199   0.243  94.357  0.00  0.00    +0.000 A 
ATOM      3  C   UNL     1      14.675  -0.941  95.875  0.00  0.00    +0.000 A 
ATOM      4  C   UNL     1      13.799  -0.444  93.291  0.00  0.00    +0.000 A 
ATOM      5  C   UNL     1      15.253  -1.623  94.805  0.00  0.00    +0.000 A 
ATOM      6  C   UNL     1      14.806  -1.374  93.518  0.00  0.00    +0.000 A 
ENDROOT
BRANCH   2   7
ATOM      7  O   UNL     1      12.254   1.219  94.144  0.00  0.00    +0.000 OA
ATOM      8  C   UNL     1      12.351   1.915  92.932  0.00  0.00    +0.000 C 
ENDBRANCH   2   7
BRANCH   3   9
ATOM      9  O   UNL     1      15.193  -1.242  97.110  0.00  0.00    +0.000 OA
ATOM     10  H   UNL     1      14.535  -1.758  97.627  0.00  0.00    +0.000 HD
ENDBRANCH   3   9
BRANCH   6  11
ATOM     11  O   UNL     1      15.378  -2.048  92.483  0.00  0.00    +0.000 OA
ATOM     12  H   UNL     1      15.803  -2.854  92.828  0.00  0.00    +0.000 HD
ENDBRANCH   6  11
BRANCH   1  14
ATOM     13  O   UNL     1      12.350   0.001  97.648  0.00  0.00    +0.000 OA
ATOM     14  C   UNL     1      13.047   0.642  96.870  0.00  0.00    +0.000 C 
BRANCH  14  15
ATOM     15  C   UNL     1      13.228   2.055  97.093  0.00  0.00    +0.000 C 
ATOM     16  C   UNL     1      13.397   3.232  97.272  0.00  0.00    +0.000 C 
BRANCH  16  17
ATOM     17  C   UNL     1      13.591   4.628  97.488  0.00  0.00    +0.000 A 
ATOM     18  C   UNL     1      13.228   5.199  98.706  0.00  0.00    +0.000 A 
ATOM     19  C   UNL     1      14.141   5.418  96.481  0.00  0.00    +0.000 A 
ATOM     20  C   UNL     1      13.416   6.563  98.917  0.00  0.00    +0.000 A 
ATOM     21  C   UNL     1      14.328   6.782  96.693  0.00  0.00    +0.000 A 
ATOM     22  C   UNL     1      13.965   7.353  97.911  0.00  0.00    +0.000 A 
ENDBRANCH  16  17
ENDBRANCH  14  15
ENDBRANCH   1  14
TORSDOF 6
ENDMDL
