MODEL 1
REMARK VINA RESULT:      -5.9      0.000      0.000
REMARK  Name = 6440856_Goniothalamin.pdbqt.pdb
REMARK  2 active torsions:
REMARK  status: ('A' for Active; 'I' for Inactive)
REMARK    1  A    between atoms: C_1  and  C_5
REMARK    2  A    between atoms: C_2  and  C_10
REMARK                            x       y       z     vdW  Elec       q    Type
REMARK                         _______ _______ _______ _____ _____    ______ ____
ROOT
ATOM      1  C   UNL     1      56.997  36.091  80.858  0.00  0.00    +0.000 C 
ATOM      2  C   UNL     1      57.240  36.095  82.034  0.00  0.00    +0.000 C 
ENDROOT
BRANCH   1   5
ATOM      3  O   UNL     1      55.847  35.066  78.948  0.00  0.00    +0.000 OA
ATOM      4  O   UNL     1      54.858  34.263  77.011  0.00  0.00    +0.000 OA
ATOM      5  C   UNL     1      56.716  36.088  79.473  0.00  0.00    +0.000 A 
ATOM      6  C   UNL     1      57.214  37.014  78.516  0.00  0.00    +0.000 A 
ATOM      7  C   UNL     1      56.963  37.081  77.027  0.00  0.00    +0.000 A 
ATOM      8  C   UNL     1      56.233  36.148  76.854  0.00  0.00    +0.000 A 
ATOM      9  C   UNL     1      55.577  35.074  77.575  0.00  0.00    +0.000 A 
ENDBRANCH   1   5
BRANCH   2  10
ATOM     10  C   UNL     1      57.528  36.100  83.431  0.00  0.00    +0.000 A 
ATOM     11  C   UNL     1      57.987  34.940  84.050  0.00  0.00    +0.000 A 
ATOM     12  C   UNL     1      57.350  37.265  84.174  0.00  0.00    +0.000 A 
ATOM     13  C   UNL     1      58.267  34.944  85.415  0.00  0.00    +0.000 A 
ATOM     14  C   UNL     1      57.630  37.269  85.538  0.00  0.00    +0.000 A 
ATOM     15  C   UNL     1      58.090  36.109  86.158  0.00  0.00    +0.000 A 
ENDBRANCH   2  10
TORSDOF 2
ENDMDL
MODEL 2
REMARK VINA RESULT:      -5.6      2.541      7.202
REMARK  Name = 6440856_Goniothalamin.pdbqt.pdb
REMARK  2 active torsions:
REMARK  status: ('A' for Active; 'I' for Inactive)
REMARK    1  A    between atoms: C_1  and  C_5
REMARK    2  A    between atoms: C_2  and  C_10
REMARK                            x       y       z     vdW  Elec       q    Type
REMARK                         _______ _______ _______ _____ _____    ______ ____
ROOT
ATOM      1  C   UNL     1      57.350  36.088  78.972  0.00  0.00    +0.000 C 
ATOM      2  C   UNL     1      57.065  36.732  78.000  0.00  0.00    +0.000 C 
ENDROOT
BRANCH   1   5
ATOM      3  O   UNL     1      57.370  35.873  81.417  0.00  0.00    +0.000 OA
ATOM      4  O   UNL     1      57.492  35.463  83.696  0.00  0.00    +0.000 OA
ATOM      5  C   UNL     1      57.682  35.331  80.120  0.00  0.00    +0.000 A 
ATOM      6  C   UNL     1      58.308  34.055  80.128  0.00  0.00    +0.000 A 
ATOM      7  C   UNL     1      58.694  33.185  81.301  0.00  0.00    +0.000 A 
ATOM      8  C   UNL     1      58.337  33.847  82.232  0.00  0.00    +0.000 A 
ATOM      9  C   UNL     1      57.704  35.114  82.545  0.00  0.00    +0.000 A 
ENDBRANCH   1   5
BRANCH   2  10
ATOM     10  C   UNL     1      56.727  37.497  76.845  0.00  0.00    +0.000 A 
ATOM     11  C   UNL     1      56.272  38.807  76.986  0.00  0.00    +0.000 A 
ATOM     12  C   UNL     1      56.853  36.934  75.577  0.00  0.00    +0.000 A 
ATOM     13  C   UNL     1      55.941  39.553  75.858  0.00  0.00    +0.000 A 
ATOM     14  C   UNL     1      56.522  37.682  74.449  0.00  0.00    +0.000 A 
ATOM     15  C   UNL     1      56.067  38.991  74.590  0.00  0.00    +0.000 A 
ENDBRANCH   2  10
TORSDOF 2
ENDMDL
MODEL 3
REMARK VINA RESULT:      -5.6      2.259      6.974
REMARK  Name = 6440856_Goniothalamin.pdbqt.pdb
REMARK  2 active torsions:
REMARK  status: ('A' for Active; 'I' for Inactive)
REMARK    1  A    between atoms: C_1  and  C_5
REMARK    2  A    between atoms: C_2  and  C_10
REMARK                            x       y       z     vdW  Elec       q    Type
REMARK                         _______ _______ _______ _____ _____    ______ ____
ROOT
ATOM      1  C   UNL     1      57.262  36.137  79.086  0.00  0.00    +0.000 C 
ATOM      2  C   UNL     1      57.002  36.766  78.097  0.00  0.00    +0.000 C 
ENDROOT
BRANCH   1   5
ATOM      3  O   UNL     1      58.017  34.034  80.100  0.00  0.00    +0.000 OA
ATOM      4  O   UNL     1      58.706  32.151  81.265  0.00  0.00    +0.000 OA
ATOM      5  C   UNL     1      57.571  35.395  80.249  0.00  0.00    +0.000 A 
ATOM      6  C   UNL     1      57.487  35.865  81.588  0.00  0.00    +0.000 A 
ATOM      7  C   UNL     1      57.797  35.142  82.878  0.00  0.00    +0.000 A 
ATOM      8  C   UNL     1      58.135  34.062  82.485  0.00  0.00    +0.000 A 
ATOM      9  C   UNL     1      58.320  33.310  81.259  0.00  0.00    +0.000 A 
ENDBRANCH   1   5
BRANCH   2  10
ATOM     10  C   UNL     1      56.694  37.514  76.922  0.00  0.00    +0.000 A 
ATOM     11  C   UNL     1      56.787  36.912  75.669  0.00  0.00    +0.000 A 
ATOM     12  C   UNL     1      56.300  38.846  77.030  0.00  0.00    +0.000 A 
ATOM     13  C   UNL     1      56.487  37.644  74.522  0.00  0.00    +0.000 A 
ATOM     14  C   UNL     1      56.000  39.577  75.882  0.00  0.00    +0.000 A 
ATOM     15  C   UNL     1      56.093  38.975  74.630  0.00  0.00    +0.000 A 
ENDBRANCH   2  10
TORSDOF 2
ENDMDL
MODEL 4
REMARK VINA RESULT:      -5.5     15.605     18.060
REMARK  Name = 6440856_Goniothalamin.pdbqt.pdb
REMARK  2 active torsions:
REMARK  status: ('A' for Active; 'I' for Inactive)
REMARK    1  A    between atoms: C_1  and  C_5
REMARK    2  A    between atoms: C_2  and  C_10
REMARK                            x       y       z     vdW  Elec       q    Type
REMARK                         _______ _______ _______ _____ _____    ______ ____
ROOT
ATOM      1  C   UNL     1      52.863  20.511  75.155  0.00  0.00    +0.000 C 
ATOM      2  C   UNL     1      52.780  19.315  75.225  0.00  0.00    +0.000 C 
ENDROOT
BRANCH   1   5
ATOM      3  O   UNL     1      52.412  22.586  73.926  0.00  0.00    +0.000 OA
ATOM      4  O   UNL     1      52.092  24.659  72.938  0.00  0.00    +0.000 OA
ATOM      5  C   UNL     1      52.963  21.919  75.077  0.00  0.00    +0.000 A 
ATOM      6  C   UNL     1      53.566  22.770  76.043  0.00  0.00    +0.000 A 
ATOM      7  C   UNL     1      53.713  24.274  76.036  0.00  0.00    +0.000 A 
ATOM      8  C   UNL     1      53.189  24.572  75.001  0.00  0.00    +0.000 A 
ATOM      9  C   UNL     1      52.518  23.980  73.860  0.00  0.00    +0.000 A 
ENDBRANCH   1   5
BRANCH   2  10
ATOM     10  C   UNL     1      52.681  17.895  75.308  0.00  0.00    +0.000 A 
ATOM     11  C   UNL     1      53.795  17.140  75.669  0.00  0.00    +0.000 A 
ATOM     12  C   UNL     1      51.471  17.264  75.027  0.00  0.00    +0.000 A 
ATOM     13  C   UNL     1      53.698  15.752  75.748  0.00  0.00    +0.000 A 
ATOM     14  C   UNL     1      51.374  15.877  75.108  0.00  0.00    +0.000 A 
ATOM     15  C   UNL     1      52.488  15.122  75.469  0.00  0.00    +0.000 A 
ENDBRANCH   2  10
TORSDOF 2
ENDMDL
MODEL 5
REMARK VINA RESULT:      -5.5      2.506      3.693
REMARK  Name = 6440856_Goniothalamin.pdbqt.pdb
REMARK  2 active torsions:
REMARK  status: ('A' for Active; 'I' for Inactive)
REMARK    1  A    between atoms: C_1  and  C_5
REMARK    2  A    between atoms: C_2  and  C_10
REMARK                            x       y       z     vdW  Elec       q    Type
REMARK                         _______ _______ _______ _____ _____    ______ ____
ROOT
ATOM      1  C   UNL     1      57.022  36.729  78.096  0.00  0.00    +0.000 C 
ATOM      2  C   UNL     1      57.319  36.066  79.052  0.00  0.00    +0.000 C 
ENDROOT
BRANCH   1   5
ATOM      3  O   UNL     1      56.808  36.932  75.660  0.00  0.00    +0.000 OA
ATOM      4  O   UNL     1      56.528  37.340  73.395  0.00  0.00    +0.000 OA
ATOM      5  C   UNL     1      56.668  37.510  76.971  0.00  0.00    +0.000 A 
ATOM      6  C   UNL     1      56.174  38.842  77.000  0.00  0.00    +0.000 A 
ATOM      7  C   UNL     1      55.774  39.740  75.852  0.00  0.00    +0.000 A 
ATOM      8  C   UNL     1      55.981  39.040  74.903  0.00  0.00    +0.000 A 
ATOM      9  C   UNL     1      56.455  37.715  74.555  0.00  0.00    +0.000 A 
ENDBRANCH   1   5
BRANCH   2  10
ATOM     10  C   UNL     1      57.672  35.278  80.187  0.00  0.00    +0.000 A 
ATOM     11  C   UNL     1      58.217  34.008  80.010  0.00  0.00    +0.000 A 
ATOM     12  C   UNL     1      57.472  35.780  81.471  0.00  0.00    +0.000 A 
ATOM     13  C   UNL     1      58.561  33.239  81.120  0.00  0.00    +0.000 A 
ATOM     14  C   UNL     1      57.817  35.011  82.580  0.00  0.00    +0.000 A 
ATOM     15  C   UNL     1      58.362  33.741  82.404  0.00  0.00    +0.000 A 
ENDBRANCH   2  10
TORSDOF 2
ENDMDL
MODEL 6
REMARK VINA RESULT:      -5.4      5.829     10.000
REMARK  Name = 6440856_Goniothalamin.pdbqt.pdb
REMARK  2 active torsions:
REMARK  status: ('A' for Active; 'I' for Inactive)
REMARK    1  A    between atoms: C_1  and  C_5
REMARK    2  A    between atoms: C_2  and  C_10
REMARK                            x       y       z     vdW  Elec       q    Type
REMARK                         _______ _______ _______ _____ _____    ______ ____
ROOT
ATOM      1  C   UNL     1      57.952  35.085  73.720  0.00  0.00    +0.000 C 
ATOM      2  C   UNL     1      58.402  34.372  72.865  0.00  0.00    +0.000 C 
ENDROOT
BRANCH   1   5
ATOM      3  O   UNL     1      55.993  36.052  74.838  0.00  0.00    +0.000 OA
ATOM      4  O   UNL     1      54.292  37.078  76.033  0.00  0.00    +0.000 OA
ATOM      5  C   UNL     1      57.424  35.929  74.724  0.00  0.00    +0.000 A 
ATOM      6  C   UNL     1      58.177  36.688  75.660  0.00  0.00    +0.000 A 
ATOM      7  C   UNL     1      57.693  37.607  76.758  0.00  0.00    +0.000 A 
ATOM      8  C   UNL     1      56.503  37.535  76.639  0.00  0.00    +0.000 A 
ATOM      9  C   UNL     1      55.483  36.890  75.836  0.00  0.00    +0.000 A 
ENDBRANCH   1   5
BRANCH   2  10
ATOM     10  C   UNL     1      58.936  33.525  71.849  0.00  0.00    +0.000 A 
ATOM     11  C   UNL     1      59.107  34.012  70.556  0.00  0.00    +0.000 A 
ATOM     12  C   UNL     1      59.286  32.211  72.153  0.00  0.00    +0.000 A 
ATOM     13  C   UNL     1      59.628  33.184  69.564  0.00  0.00    +0.000 A 
ATOM     14  C   UNL     1      59.807  31.383  71.161  0.00  0.00    +0.000 A 
ATOM     15  C   UNL     1      59.978  31.871  69.867  0.00  0.00    +0.000 A 
ENDBRANCH   2  10
TORSDOF 2
ENDMDL
MODEL 7
REMARK VINA RESULT:      -5.4      4.659      6.864
REMARK  Name = 6440856_Goniothalamin.pdbqt.pdb
REMARK  2 active torsions:
REMARK  status: ('A' for Active; 'I' for Inactive)
REMARK    1  A    between atoms: C_1  and  C_5
REMARK    2  A    between atoms: C_2  and  C_10
REMARK                            x       y       z     vdW  Elec       q    Type
REMARK                         _______ _______ _______ _____ _____    ______ ____
ROOT
ATOM      1  C   UNL     1      59.653  35.393  77.564  0.00  0.00    +0.000 C 
ATOM      2  C   UNL     1      60.809  35.537  77.275  0.00  0.00    +0.000 C 
ENDROOT
BRANCH   1   5
ATOM      3  O   UNL     1      57.287  35.702  76.988  0.00  0.00    +0.000 OA
ATOM      4  O   UNL     1      55.001  35.890  76.647  0.00  0.00    +0.000 OA
ATOM      5  C   UNL     1      58.291  35.221  77.902  0.00  0.00    +0.000 A 
ATOM      6  C   UNL     1      57.793  34.604  79.082  0.00  0.00    +0.000 A 
ATOM      7  C   UNL     1      56.364  34.381  79.517  0.00  0.00    +0.000 A 
ATOM      8  C   UNL     1      55.748  34.860  78.608  0.00  0.00    +0.000 A 
ATOM      9  C   UNL     1      55.943  35.526  77.335  0.00  0.00    +0.000 A 
ENDBRANCH   1   5
BRANCH   2  10
ATOM     10  C   UNL     1      62.183  35.707  76.932  0.00  0.00    +0.000 A 
ATOM     11  C   UNL     1      63.072  34.643  77.073  0.00  0.00    +0.000 A 
ATOM     12  C   UNL     1      62.634  36.936  76.457  0.00  0.00    +0.000 A 
ATOM     13  C   UNL     1      64.414  34.810  76.739  0.00  0.00    +0.000 A 
ATOM     14  C   UNL     1      63.977  37.102  76.123  0.00  0.00    +0.000 A 
ATOM     15  C   UNL     1      64.865  36.039  76.264  0.00  0.00    +0.000 A 
ENDBRANCH   2  10
TORSDOF 2
ENDMDL
MODEL 8
REMARK VINA RESULT:      -5.4      3.203      8.206
REMARK  Name = 6440856_Goniothalamin.pdbqt.pdb
REMARK  2 active torsions:
REMARK  status: ('A' for Active; 'I' for Inactive)
REMARK    1  A    between atoms: C_1  and  C_5
REMARK    2  A    between atoms: C_2  and  C_10
REMARK                            x       y       z     vdW  Elec       q    Type
REMARK                         _______ _______ _______ _____ _____    ______ ____
ROOT
ATOM      1  C   UNL     1      57.378  36.028  76.990  0.00  0.00    +0.000 C 
ATOM      2  C   UNL     1      57.321  36.452  75.868  0.00  0.00    +0.000 C 
ENDROOT
BRANCH   1   5
ATOM      3  O   UNL     1      58.553  34.679  78.669  0.00  0.00    +0.000 OA
ATOM      4  O   UNL     1      59.494  33.462  80.405  0.00  0.00    +0.000 OA
ATOM      5  C   UNL     1      57.444  35.524  78.310  0.00  0.00    +0.000 A 
ATOM      6  C   UNL     1      56.506  35.773  79.348  0.00  0.00    +0.000 A 
ATOM      7  C   UNL     1      56.504  35.277  80.776  0.00  0.00    +0.000 A 
ATOM      8  C   UNL     1      57.501  34.615  80.813  0.00  0.00    +0.000 A 
ATOM      9  C   UNL     1      58.608  34.186  79.979  0.00  0.00    +0.000 A 
ENDBRANCH   1   5
BRANCH   2  10
ATOM     10  C   UNL     1      57.254  36.956  74.536  0.00  0.00    +0.000 A 
ATOM     11  C   UNL     1      56.282  37.893  74.195  0.00  0.00    +0.000 A 
ATOM     12  C   UNL     1      58.161  36.509  73.577  0.00  0.00    +0.000 A 
ATOM     13  C   UNL     1      56.216  38.384  72.892  0.00  0.00    +0.000 A 
ATOM     14  C   UNL     1      58.095  37.001  72.275  0.00  0.00    +0.000 A 
ATOM     15  C   UNL     1      57.123  37.939  71.934  0.00  0.00    +0.000 A 
ENDBRANCH   2  10
TORSDOF 2
ENDMDL
MODEL 9
REMARK VINA RESULT:      -5.4      4.818      7.364
REMARK  Name = 6440856_Goniothalamin.pdbqt.pdb
REMARK  2 active torsions:
REMARK  status: ('A' for Active; 'I' for Inactive)
REMARK    1  A    between atoms: C_1  and  C_5
REMARK    2  A    between atoms: C_2  and  C_10
REMARK                            x       y       z     vdW  Elec       q    Type
REMARK                         _______ _______ _______ _____ _____    ______ ____
ROOT
ATOM      1  C   UNL     1      60.052  35.472  77.623  0.00  0.00    +0.000 C 
ATOM      2  C   UNL     1      61.085  35.808  77.110  0.00  0.00    +0.000 C 
ENDROOT
BRANCH   1   5
ATOM      3  O   UNL     1      58.835  33.924  79.087  0.00  0.00    +0.000 OA
ATOM      4  O   UNL     1      57.493  32.586  80.424  0.00  0.00    +0.000 OA
ATOM      5  C   UNL     1      58.835  35.076  78.222  0.00  0.00    +0.000 A 
ATOM      6  C   UNL     1      57.575  35.713  78.057  0.00  0.00    +0.000 A 
ATOM      7  C   UNL     1      56.235  35.356  78.658  0.00  0.00    +0.000 A 
ATOM      8  C   UNL     1      56.504  34.391  79.315  0.00  0.00    +0.000 A 
ATOM      9  C   UNL     1      57.623  33.542  79.674  0.00  0.00    +0.000 A 
ENDBRANCH   1   5
BRANCH   2  10
ATOM     10  C   UNL     1      62.311  36.208  76.502  0.00  0.00    +0.000 A 
ATOM     11  C   UNL     1      63.488  35.521  76.792  0.00  0.00    +0.000 A 
ATOM     12  C   UNL     1      62.330  37.285  75.618  0.00  0.00    +0.000 A 
ATOM     13  C   UNL     1      64.686  35.912  76.197  0.00  0.00    +0.000 A 
ATOM     14  C   UNL     1      63.528  37.675  75.024  0.00  0.00    +0.000 A 
ATOM     15  C   UNL     1      64.705  36.988  75.313  0.00  0.00    +0.000 A 
ENDBRANCH   2  10
TORSDOF 2
ENDMDL
