MODEL 1
REMARK VINA RESULT:      -4.4      0.000      0.000
REMARK  Name = 649_Dihydrouracil.pdb
REMARK  0 active torsions:
REMARK  status: ('A' for Active; 'I' for Inactive)
REMARK                            x       y       z     vdW  Elec       q    Type
REMARK                         _______ _______ _______ _____ _____    ______ ____
ROOT
ATOM      1  O   UNL     1      59.795  34.278  80.208  0.00  0.00    +0.000 OA
ATOM      2  O   UNL     1      56.434  36.628  82.323  0.00  0.00    +0.000 OA
ATOM      3  N   UNL     1      55.848  35.300  80.548  0.00  0.00    +0.000 N 
ATOM      4  N   UNL     1      58.093  35.449  81.256  0.00  0.00    +0.000 N 
ATOM      5  C   UNL     1      56.199  34.447  79.577  0.00  0.00    +0.000 A 
ATOM      6  C   UNL     1      57.626  34.038  79.407  0.00  0.00    +0.000 A 
ATOM      7  C   UNL     1      58.614  34.575  80.301  0.00  0.00    +0.000 A 
ATOM      8  C   UNL     1      56.764  35.848  81.438  0.00  0.00    +0.000 A 
ATOM      9  H   UNL     1      54.878  35.570  80.654  0.00  0.00    +0.000 HD
ATOM     10  H   UNL     1      58.761  35.844  81.899  0.00  0.00    +0.000 HD
ENDROOT
TORSDOF 0
ENDMDL
MODEL 2
REMARK VINA RESULT:      -4.3      2.190      2.668
REMARK  Name = 649_Dihydrouracil.pdb
REMARK  0 active torsions:
REMARK  status: ('A' for Active; 'I' for Inactive)
REMARK                            x       y       z     vdW  Elec       q    Type
REMARK                         _______ _______ _______ _____ _____    ______ ____
ROOT
ATOM      1  O   UNL     1      58.188  32.799  80.680  0.00  0.00    +0.000 OA
ATOM      2  O   UNL     1      55.032  34.849  78.011  0.00  0.00    +0.000 OA
ATOM      3  N   UNL     1      55.709  35.959  79.900  0.00  0.00    +0.000 N 
ATOM      4  N   UNL     1      56.603  33.846  79.354  0.00  0.00    +0.000 N 
ATOM      5  C   UNL     1      56.469  36.008  81.002  0.00  0.00    +0.000 A 
ATOM      6  C   UNL     1      57.393  34.882  81.336  0.00  0.00    +0.000 A 
ATOM      7  C   UNL     1      57.453  33.748  80.457  0.00  0.00    +0.000 A 
ATOM      8  C   UNL     1      55.730  34.886  79.017  0.00  0.00    +0.000 A 
ATOM      9  H   UNL     1      55.087  36.727  79.683  0.00  0.00    +0.000 HD
ATOM     10  H   UNL     1      56.621  33.065  78.717  0.00  0.00    +0.000 HD
ENDROOT
TORSDOF 0
ENDMDL
MODEL 3
REMARK VINA RESULT:      -3.6     55.721     56.620
REMARK  Name = 649_Dihydrouracil.pdb
REMARK  0 active torsions:
REMARK  status: ('A' for Active; 'I' for Inactive)
REMARK                            x       y       z     vdW  Elec       q    Type
REMARK                         _______ _______ _______ _____ _____    ______ ____
ROOT
ATOM      1  O   UNL     1      11.664   5.347  99.880  0.00  0.00    +0.000 OA
ATOM      2  O   UNL     1      14.838   5.654  96.544  0.00  0.00    +0.000 OA
ATOM      3  N   UNL     1      13.741   3.655  96.787  0.00  0.00    +0.000 N 
ATOM      4  N   UNL     1      13.253   5.480  98.199  0.00  0.00    +0.000 N 
ATOM      5  C   UNL     1      12.832   2.905  97.424  0.00  0.00    +0.000 A 
ATOM      6  C   UNL     1      12.044   3.472  98.560  0.00  0.00    +0.000 A 
ATOM      7  C   UNL     1      12.278   4.832  98.958  0.00  0.00    +0.000 A 
ATOM      8  C   UNL     1      14.005   4.975  97.132  0.00  0.00    +0.000 A 
ATOM      9  H   UNL     1      14.268   3.261  96.019  0.00  0.00    +0.000 HD
ATOM     10  H   UNL     1      13.442   6.437  98.453  0.00  0.00    +0.000 HD
ENDROOT
TORSDOF 0
ENDMDL
MODEL 4
REMARK VINA RESULT:      -3.6     14.950     15.949
REMARK  Name = 649_Dihydrouracil.pdb
REMARK  0 active torsions:
REMARK  status: ('A' for Active; 'I' for Inactive)
REMARK                            x       y       z     vdW  Elec       q    Type
REMARK                         _______ _______ _______ _____ _____    ______ ____
ROOT
ATOM      1  O   UNL     1      42.349  25.825  82.984  0.00  0.00    +0.000 OA
ATOM      2  O   UNL     1      46.857  25.335  83.839  0.00  0.00    +0.000 OA
ATOM      3  N   UNL     1      45.937  27.413  84.142  0.00  0.00    +0.000 N 
ATOM      4  N   UNL     1      44.613  25.601  83.419  0.00  0.00    +0.000 N 
ATOM      5  C   UNL     1      44.869  28.221  84.106  0.00  0.00    +0.000 A 
ATOM      6  C   UNL     1      43.534  27.694  83.692  0.00  0.00    +0.000 A 
ATOM      7  C   UNL     1      43.415  26.309  83.331  0.00  0.00    +0.000 A 
ATOM      8  C   UNL     1      45.875  26.067  83.804  0.00  0.00    +0.000 A 
ATOM      9  H   UNL     1      46.837  27.780  84.425  0.00  0.00    +0.000 HD
ATOM     10  H   UNL     1      44.564  24.624  83.172  0.00  0.00    +0.000 HD
ENDROOT
TORSDOF 0
ENDMDL
MODEL 5
REMARK VINA RESULT:      -3.5     15.251     16.110
REMARK  Name = 649_Dihydrouracil.pdb
REMARK  0 active torsions:
REMARK  status: ('A' for Active; 'I' for Inactive)
REMARK                            x       y       z     vdW  Elec       q    Type
REMARK                         _______ _______ _______ _____ _____    ______ ____
ROOT
ATOM      1  O   UNL     1      46.258  28.030  85.873  0.00  0.00    +0.000 OA
ATOM      2  O   UNL     1      41.812  27.971  87.109  0.00  0.00    +0.000 OA
ATOM      3  N   UNL     1      42.299  28.405  84.911  0.00  0.00    +0.000 N 
ATOM      4  N   UNL     1      44.020  28.005  86.473  0.00  0.00    +0.000 N 
ATOM      5  C   UNL     1      43.205  28.567  83.938  0.00  0.00    +0.000 A 
ATOM      6  C   UNL     1      44.664  28.440  84.232  0.00  0.00    +0.000 A 
ATOM      7  C   UNL     1      45.079  28.144  85.575  0.00  0.00    +0.000 A 
ATOM      8  C   UNL     1      42.648  28.117  86.225  0.00  0.00    +0.000 A 
ATOM      9  H   UNL     1      41.313  28.492  84.700  0.00  0.00    +0.000 HD
ATOM     10  H   UNL     1      44.277  27.797  87.425  0.00  0.00    +0.000 HD
ENDROOT
TORSDOF 0
ENDMDL
MODEL 6
REMARK VINA RESULT:      -3.5     55.867     56.708
REMARK  Name = 649_Dihydrouracil.pdb
REMARK  0 active torsions:
REMARK  status: ('A' for Active; 'I' for Inactive)
REMARK                            x       y       z     vdW  Elec       q    Type
REMARK                         _______ _______ _______ _____ _____    ______ ____
ROOT
ATOM      1  O   UNL     1      14.823   5.492  96.789  0.00  0.00    +0.000 OA
ATOM      2  O   UNL     1      11.608   5.786 100.086  0.00  0.00    +0.000 OA
ATOM      3  N   UNL     1      11.766   3.813  98.928  0.00  0.00    +0.000 N 
ATOM      4  N   UNL     1      13.203   5.619  98.440  0.00  0.00    +0.000 N 
ATOM      5  C   UNL     1      12.354   3.074  97.978  0.00  0.00    +0.000 A 
ATOM      6  C   UNL     1      13.476   3.637  97.167  0.00  0.00    +0.000 A 
ATOM      7  C   UNL     1      13.912   4.981  97.422  0.00  0.00    +0.000 A 
ATOM      8  C   UNL     1      12.151   5.117  99.215  0.00  0.00    +0.000 A 
ATOM      9  H   UNL     1      11.008   3.422  99.472  0.00  0.00    +0.000 HD
ATOM     10  H   UNL     1      13.485   6.565  98.644  0.00  0.00    +0.000 HD
ENDROOT
TORSDOF 0
ENDMDL
MODEL 7
REMARK VINA RESULT:      -3.4      2.754      4.529
REMARK  Name = 649_Dihydrouracil.pdb
REMARK  0 active torsions:
REMARK  status: ('A' for Active; 'I' for Inactive)
REMARK                            x       y       z     vdW  Elec       q    Type
REMARK                         _______ _______ _______ _____ _____    ______ ____
ROOT
ATOM      1  O   UNL     1      56.622  38.638  84.865  0.00  0.00    +0.000 OA
ATOM      2  O   UNL     1      56.998  36.087  81.038  0.00  0.00    +0.000 OA
ATOM      3  N   UNL     1      57.752  35.175  83.001  0.00  0.00    +0.000 N 
ATOM      4  N   UNL     1      56.820  37.341  82.955  0.00  0.00    +0.000 N 
ATOM      5  C   UNL     1      57.954  35.278  84.322  0.00  0.00    +0.000 A 
ATOM      6  C   UNL     1      57.560  36.520  85.054  0.00  0.00    +0.000 A 
ATOM      7  C   UNL     1      56.963  37.599  84.319  0.00  0.00    +0.000 A 
ATOM      8  C   UNL     1      57.179  36.190  82.245  0.00  0.00    +0.000 A 
ATOM      9  H   UNL     1      58.022  34.329  82.516  0.00  0.00    +0.000 HD
ATOM     10  H   UNL     1      56.404  38.080  82.410  0.00  0.00    +0.000 HD
ENDROOT
TORSDOF 0
ENDMDL
MODEL 8
REMARK VINA RESULT:      -3.1     15.458     16.463
REMARK  Name = 649_Dihydrouracil.pdb
REMARK  0 active torsions:
REMARK  status: ('A' for Active; 'I' for Inactive)
REMARK                            x       y       z     vdW  Elec       q    Type
REMARK                         _______ _______ _______ _____ _____    ______ ____
ROOT
ATOM      1  O   UNL     1      41.906  26.433  86.642  0.00  0.00    +0.000 OA
ATOM      2  O   UNL     1      45.958  28.599  86.215  0.00  0.00    +0.000 OA
ATOM      3  N   UNL     1      44.704  28.307  84.318  0.00  0.00    +0.000 N 
ATOM      4  N   UNL     1      43.937  27.523  86.405  0.00  0.00    +0.000 N 
ATOM      5  C   UNL     1      43.594  27.846  83.725  0.00  0.00    +0.000 A 
ATOM      6  C   UNL     1      42.539  27.155  84.525  0.00  0.00    +0.000 A 
ATOM      7  C   UNL     1      42.734  26.992  85.939  0.00  0.00    +0.000 A 
ATOM      8  C   UNL     1      44.940  28.175  85.681  0.00  0.00    +0.000 A 
ATOM      9  H   UNL     1      45.412  28.775  83.766  0.00  0.00    +0.000 HD
ATOM     10  H   UNL     1      44.104  27.424  87.394  0.00  0.00    +0.000 HD
ENDROOT
TORSDOF 0
ENDMDL
MODEL 9
REMARK VINA RESULT:      -3.1     13.999     14.200
REMARK  Name = 649_Dihydrouracil.pdb
REMARK  0 active torsions:
REMARK  status: ('A' for Active; 'I' for Inactive)
REMARK                            x       y       z     vdW  Elec       q    Type
REMARK                         _______ _______ _______ _____ _____    ______ ____
ROOT
ATOM      1  O   UNL     1      49.249  24.906  85.303  0.00  0.00    +0.000 OA
ATOM      2  O   UNL     1      46.109  28.190  86.110  0.00  0.00    +0.000 OA
ATOM      3  N   UNL     1      45.788  26.838  84.286  0.00  0.00    +0.000 N 
ATOM      4  N   UNL     1      47.661  26.548  85.690  0.00  0.00    +0.000 N 
ATOM      5  C   UNL     1      46.196  25.822  83.514  0.00  0.00    +0.000 A 
ATOM      6  C   UNL     1      47.452  25.081  83.839  0.00  0.00    +0.000 A 
ATOM      7  C   UNL     1      48.214  25.476  84.990  0.00  0.00    +0.000 A 
ATOM      8  C   UNL     1      46.489  27.259  85.410  0.00  0.00    +0.000 A 
ATOM      9  H   UNL     1      44.936  27.334  84.057  0.00  0.00    +0.000 HD
ATOM     10  H   UNL     1      48.172  26.850  86.504  0.00  0.00    +0.000 HD
ENDROOT
TORSDOF 0
ENDMDL
