MODEL 1
REMARK VINA RESULT:      -8.2      0.000      0.000
REMARK  Name = 6509753_ManzamineA.pdbqt.pdb
REMARK  2 active torsions:
REMARK  status: ('A' for Active; 'I' for Inactive)
REMARK    1  A    between atoms: C_7  and  O_42
REMARK    2  A    between atoms: C_11  and  C_30
REMARK                            x       y       z     vdW  Elec       q    Type
REMARK                         _______ _______ _______ _____ _____    ______ ____
ROOT
ATOM      1  N   UNL     1      56.178  39.682  69.033  0.00  0.00    +0.000 N 
ATOM      2  N   UNL     1      54.236  43.326  71.825  0.00  0.00    +0.000 N 
ATOM      3  C   UNL     1      55.765  40.981  71.168  0.00  0.00    +0.000 C 
ATOM      4  C   UNL     1      55.374  39.754  70.280  0.00  0.00    +0.000 C 
ATOM      5  C   UNL     1      56.118  40.745  72.694  0.00  0.00    +0.000 C 
ATOM      6  C   UNL     1      56.955  41.358  70.411  0.00  0.00    +0.000 C 
ATOM      7  C   UNL     1      54.997  38.436  70.961  0.00  0.00    +0.000 C 
ATOM      8  C   UNL     1      54.769  42.108  71.131  0.00  0.00    +0.000 C 
ATOM      9  C   UNL     1      57.121  40.820  69.121  0.00  0.00    +0.000 C 
ATOM     10  C   UNL     1      55.775  41.864  73.535  0.00  0.00    +0.000 C 
ATOM     11  C   UNL     1      55.972  39.392  73.213  0.00  0.00    +0.000 C 
ATOM     12  C   UNL     1      55.461  38.599  72.324  0.00  0.00    +0.000 C 
ATOM     13  C   UNL     1      54.867  43.025  73.119  0.00  0.00    +0.000 C 
ATOM     14  C   UNL     1      55.339  39.724  67.834  0.00  0.00    +0.000 C 
ATOM     15  C   UNL     1      53.564  38.188  70.836  0.00  0.00    +0.000 C 
ATOM     16  C   UNL     1      57.520  41.550  67.962  0.00  0.00    +0.000 C 
ATOM     17  C   UNL     1      52.799  43.162  71.969  0.00  0.00    +0.000 C 
ATOM     18  C   UNL     1      54.893  40.112  66.411  0.00  0.00    +0.000 C 
ATOM     19  C   UNL     1      52.037  38.086  70.797  0.00  0.00    +0.000 C 
ATOM     20  C   UNL     1      57.452  41.971  66.838  0.00  0.00    +0.000 C 
ATOM     21  C   UNL     1      55.424  41.055  65.333  0.00  0.00    +0.000 C 
ATOM     22  C   UNL     1      51.305  42.831  72.021  0.00  0.00    +0.000 C 
ATOM     23  C   UNL     1      56.656  41.931  65.533  0.00  0.00    +0.000 C 
ATOM     24  C   UNL     1      50.564  38.464  70.925  0.00  0.00    +0.000 C 
ATOM     25  C   UNL     1      50.011  42.031  71.896  0.00  0.00    +0.000 C 
ATOM     26  C   UNL     1      49.352  40.700  71.572  0.00  0.00    +0.000 C 
ATOM     27  C   UNL     1      49.726  39.283  71.172  0.00  0.00    +0.000 C 
ENDROOT
BRANCH  11  30
ATOM     28  N   UNL     1      55.281  39.349  75.538  0.00  0.00    +0.000 NA
ATOM     29  N   UNL     1      58.295  37.667  74.205  0.00  0.00    +0.000 N 
ATOM     30  C   UNL     1      56.170  38.970  74.592  0.00  0.00    +0.000 A 
ATOM     31  C   UNL     1      57.267  38.192  74.954  0.00  0.00    +0.000 A 
ATOM     32  C   UNL     1      57.479  37.792  76.275  0.00  0.00    +0.000 A 
ATOM     33  C   UNL     1      55.493  38.958  76.814  0.00  0.00    +0.000 A 
ATOM     34  C   UNL     1      56.559  38.189  77.258  0.00  0.00    +0.000 A 
ATOM     35  C   UNL     1      58.677  37.014  76.301  0.00  0.00    +0.000 A 
ATOM     36  C   UNL     1      59.163  36.953  74.997  0.00  0.00    +0.000 A 
ATOM     37  C   UNL     1      59.389  36.353  77.319  0.00  0.00    +0.000 A 
ATOM     38  C   UNL     1      60.328  36.263  74.650  0.00  0.00    +0.000 A 
ATOM     39  C   UNL     1      60.557  35.659  76.993  0.00  0.00    +0.000 A 
ATOM     40  C   UNL     1      61.014  35.617  75.680  0.00  0.00    +0.000 A 
ATOM     41  H   UNL     1      58.397  37.780  73.205  0.00  0.00    +0.000 HD
ENDBRANCH  11  30
BRANCH   7  42
ATOM     42  O   UNL     1      55.707  37.349  70.388  0.00  0.00    +0.000 OA
ATOM     43  H   UNL     1      56.598  37.375  70.776  0.00  0.00    +0.000 HD
ENDBRANCH   7  42
TORSDOF 2
ENDMDL
MODEL 2
REMARK VINA RESULT:      -8.0      8.061     12.373
REMARK  Name = 6509753_ManzamineA.pdbqt.pdb
REMARK  2 active torsions:
REMARK  status: ('A' for Active; 'I' for Inactive)
REMARK    1  A    between atoms: C_7  and  O_42
REMARK    2  A    between atoms: C_11  and  C_30
REMARK                            x       y       z     vdW  Elec       q    Type
REMARK                         _______ _______ _______ _____ _____    ______ ____
ROOT
ATOM      1  N   UNL     1      59.527  32.838  72.599  0.00  0.00    +0.000 N 
ATOM      2  N   UNL     1      61.658  35.583  69.025  0.00  0.00    +0.000 N 
ATOM      3  C   UNL     1      59.948  33.604  70.222  0.00  0.00    +0.000 C 
ATOM      4  C   UNL     1      60.267  32.560  71.341  0.00  0.00    +0.000 C 
ATOM      5  C   UNL     1      59.493  33.088  68.795  0.00  0.00    +0.000 C 
ATOM      6  C   UNL     1      58.842  34.256  70.916  0.00  0.00    +0.000 C 
ATOM      7  C   UNL     1      60.479  31.095  70.950  0.00  0.00    +0.000 C 
ATOM      8  C   UNL     1      61.049  34.602  69.982  0.00  0.00    +0.000 C 
ATOM      9  C   UNL     1      58.694  34.024  72.297  0.00  0.00    +0.000 C 
ATOM     10  C   UNL     1      59.897  33.961  67.722  0.00  0.00    +0.000 C 
ATOM     11  C   UNL     1      59.481  31.648  68.576  0.00  0.00    +0.000 C 
ATOM     12  C   UNL     1      59.960  31.013  69.599  0.00  0.00    +0.000 C 
ATOM     13  C   UNL     1      60.933  35.082  67.847  0.00  0.00    +0.000 C 
ATOM     14  C   UNL     1      60.429  33.045  73.734  0.00  0.00    +0.000 C 
ATOM     15  C   UNL     1      61.886  30.730  71.081  0.00  0.00    +0.000 C 
ATOM     16  C   UNL     1      58.430  35.022  73.282  0.00  0.00    +0.000 C 
ATOM     17  C   UNL     1      63.063  35.242  68.875  0.00  0.00    +0.000 C 
ATOM     18  C   UNL     1      60.985  33.677  75.024  0.00  0.00    +0.000 C 
ATOM     19  C   UNL     1      63.395  30.478  71.092  0.00  0.00    +0.000 C 
ATOM     20  C   UNL     1      58.597  35.661  74.286  0.00  0.00    +0.000 C 
ATOM     21  C   UNL     1      60.606  34.878  75.889  0.00  0.00    +0.000 C 
ATOM     22  C   UNL     1      64.514  34.752  68.848  0.00  0.00    +0.000 C 
ATOM     23  C   UNL     1      59.455  35.816  75.543  0.00  0.00    +0.000 C 
ATOM     24  C   UNL     1      64.889  30.664  70.839  0.00  0.00    +0.000 C 
ATOM     25  C   UNL     1      65.729  33.865  69.103  0.00  0.00    +0.000 C 
ATOM     26  C   UNL     1      66.273  32.571  69.686  0.00  0.00    +0.000 C 
ATOM     27  C   UNL     1      65.787  31.318  70.394  0.00  0.00    +0.000 C 
ENDROOT
BRANCH  11  30
ATOM     28  N   UNL     1      57.941  30.433  67.150  0.00  0.00    +0.000 NA
ATOM     29  N   UNL     1      61.421  31.297  66.238  0.00  0.00    +0.000 N 
ATOM     30  C   UNL     1      59.170  30.967  67.328  0.00  0.00    +0.000 A 
ATOM     31  C   UNL     1      60.124  30.844  66.320  0.00  0.00    +0.000 A 
ATOM     32  C   UNL     1      59.846  30.180  65.124  0.00  0.00    +0.000 A 
ATOM     33  C   UNL     1      57.679  29.792  65.990  0.00  0.00    +0.000 A 
ATOM     34  C   UNL     1      58.571  29.623  64.940  0.00  0.00    +0.000 A 
ATOM     35  C   UNL     1      61.024  30.238  64.317  0.00  0.00    +0.000 A 
ATOM     36  C   UNL     1      61.988  30.940  65.037  0.00  0.00    +0.000 A 
ATOM     37  C   UNL     1      61.353  29.757  63.036  0.00  0.00    +0.000 A 
ATOM     38  C   UNL     1      63.272  31.191  64.545  0.00  0.00    +0.000 A 
ATOM     39  C   UNL     1      62.632  29.997  62.527  0.00  0.00    +0.000 A 
ATOM     40  C   UNL     1      63.571  30.703  63.272  0.00  0.00    +0.000 A 
ATOM     41  H   UNL     1      61.894  31.829  66.956  0.00  0.00    +0.000 HD
ENDBRANCH  11  30
BRANCH   7  42
ATOM     42  O   UNL     1      59.699  30.234  71.767  0.00  0.00    +0.000 OA
ATOM     43  H   UNL     1      59.556  30.713  72.601  0.00  0.00    +0.000 HD
ENDBRANCH   7  42
TORSDOF 2
ENDMDL
MODEL 3
REMARK VINA RESULT:      -7.9     21.636     25.639
REMARK  Name = 6509753_ManzamineA.pdbqt.pdb
REMARK  2 active torsions:
REMARK  status: ('A' for Active; 'I' for Inactive)
REMARK    1  A    between atoms: C_7  and  O_42
REMARK    2  A    between atoms: C_11  and  C_30
REMARK                            x       y       z     vdW  Elec       q    Type
REMARK                         _______ _______ _______ _____ _____    ______ ____
ROOT
ATOM      1  N   UNL     1      42.558  26.403  88.622  0.00  0.00    +0.000 N 
ATOM      2  N   UNL     1      45.050  26.976  84.343  0.00  0.00    +0.000 N 
ATOM      3  C   UNL     1      42.943  26.176  86.130  0.00  0.00    +0.000 C 
ATOM      4  C   UNL     1      43.034  25.505  87.539  0.00  0.00    +0.000 C 
ATOM      5  C   UNL     1      42.199  25.409  84.959  0.00  0.00    +0.000 C 
ATOM      6  C   UNL     1      42.178  27.345  86.554  0.00  0.00    +0.000 C 
ATOM      7  C   UNL     1      42.732  24.010  87.670  0.00  0.00    +0.000 C 
ATOM      8  C   UNL     1      44.269  26.618  85.573  0.00  0.00    +0.000 C 
ATOM      9  C   UNL     1      42.113  27.633  87.930  0.00  0.00    +0.000 C 
ATOM     10  C   UNL     1      42.740  25.703  83.656  0.00  0.00    +0.000 C 
ATOM     11  C   UNL     1      41.712  24.066  85.243  0.00  0.00    +0.000 C 
ATOM     12  C   UNL     1      42.073  23.674  86.424  0.00  0.00    +0.000 C 
ATOM     13  C   UNL     1      44.083  26.393  83.401  0.00  0.00    +0.000 C 
ATOM     14  C   UNL     1      43.595  26.653  89.626  0.00  0.00    +0.000 C 
ATOM     15  C   UNL     1      43.959  23.262  87.927  0.00  0.00    +0.000 C 
ATOM     16  C   UNL     1      42.282  28.923  88.516  0.00  0.00    +0.000 C 
ATOM     17  C   UNL     1      46.252  26.160  84.328  0.00  0.00    +0.000 C 
ATOM     18  C   UNL     1      44.455  27.445  90.628  0.00  0.00    +0.000 C 
ATOM     19  C   UNL     1      45.305  22.542  88.033  0.00  0.00    +0.000 C 
ATOM     20  C   UNL     1      42.748  29.758  89.244  0.00  0.00    +0.000 C 
ATOM     21  C   UNL     1      44.567  28.914  91.031  0.00  0.00    +0.000 C 
ATOM     22  C   UNL     1      47.463  25.235  84.479  0.00  0.00    +0.000 C 
ATOM     23  C   UNL     1      43.739  30.016  90.380  0.00  0.00    +0.000 C 
ATOM     24  C   UNL     1      46.745  22.129  87.743  0.00  0.00    +0.000 C 
ATOM     25  C   UNL     1      48.358  24.128  85.028  0.00  0.00    +0.000 C 
ATOM     26  C   UNL     1      48.528  22.989  86.020  0.00  0.00    +0.000 C 
ATOM     27  C   UNL     1      47.751  22.268  87.108  0.00  0.00    +0.000 C 
ENDROOT
BRANCH  11  30
ATOM     28  N   UNL     1      41.820  22.250  83.639  0.00  0.00    +0.000 NA
ATOM     29  N   UNL     1      38.724  24.042  84.586  0.00  0.00    +0.000 N 
ATOM     30  C   UNL     1      41.071  23.162  84.298  0.00  0.00    +0.000 A 
ATOM     31  C   UNL     1      39.702  23.232  84.054  0.00  0.00    +0.000 A 
ATOM     32  C   UNL     1      39.076  22.383  83.140  0.00  0.00    +0.000 A 
ATOM     33  C   UNL     1      41.207  21.431  82.756  0.00  0.00    +0.000 A 
ATOM     34  C   UNL     1      39.852  21.438  82.452  0.00  0.00    +0.000 A 
ATOM     35  C   UNL     1      37.685  22.713  83.130  0.00  0.00    +0.000 A 
ATOM     36  C   UNL     1      37.497  23.750  84.042  0.00  0.00    +0.000 A 
ATOM     37  C   UNL     1      36.570  22.218  82.428  0.00  0.00    +0.000 A 
ATOM     38  C   UNL     1      36.247  24.323  84.294  0.00  0.00    +0.000 A 
ATOM     39  C   UNL     1      35.313  22.779  82.666  0.00  0.00    +0.000 A 
ATOM     40  C   UNL     1      35.159  23.812  83.584  0.00  0.00    +0.000 A 
ATOM     41  H   UNL     1      38.882  24.750  85.290  0.00  0.00    +0.000 HD
ENDBRANCH  11  30
BRANCH   7  42
ATOM     42  O   UNL     1      41.813  23.770  88.725  0.00  0.00    +0.000 OA
ATOM     43  H   UNL     1      41.898  24.524  89.332  0.00  0.00    +0.000 HD
ENDBRANCH   7  42
TORSDOF 2
ENDMDL
MODEL 4
REMARK VINA RESULT:      -7.6      2.178      5.635
REMARK  Name = 6509753_ManzamineA.pdbqt.pdb
REMARK  2 active torsions:
REMARK  status: ('A' for Active; 'I' for Inactive)
REMARK    1  A    between atoms: C_7  and  O_42
REMARK    2  A    between atoms: C_11  and  C_30
REMARK                            x       y       z     vdW  Elec       q    Type
REMARK                         _______ _______ _______ _____ _____    ______ ____
ROOT
ATOM      1  N   UNL     1      54.148  43.570  71.083  0.00  0.00    +0.000 N 
ATOM      2  N   UNL     1      52.359  39.536  68.765  0.00  0.00    +0.000 N 
ATOM      3  C   UNL     1      53.799  41.090  70.710  0.00  0.00    +0.000 C 
ATOM      4  C   UNL     1      54.727  42.331  70.503  0.00  0.00    +0.000 C 
ATOM      5  C   UNL     1      54.403  39.777  71.358  0.00  0.00    +0.000 C 
ATOM      6  C   UNL     1      52.862  41.737  71.624  0.00  0.00    +0.000 C 
ATOM      7  C   UNL     1      56.244  42.145  70.591  0.00  0.00    +0.000 C 
ATOM      8  C   UNL     1      53.069  40.655  69.468  0.00  0.00    +0.000 C 
ATOM      9  C   UNL     1      52.876  43.142  71.707  0.00  0.00    +0.000 C 
ATOM     10  C   UNL     1      53.773  38.570  70.885  0.00  0.00    +0.000 C 
ATOM     11  C   UNL     1      55.830  39.769  71.648  0.00  0.00    +0.000 C 
ATOM     12  C   UNL     1      56.404  40.848  71.217  0.00  0.00    +0.000 C 
ATOM     13  C   UNL     1      52.864  38.481  69.656  0.00  0.00    +0.000 C 
ATOM     14  C   UNL     1      53.969  44.618  70.075  0.00  0.00    +0.000 C 
ATOM     15  C   UNL     1      56.850  42.258  69.268  0.00  0.00    +0.000 C 
ATOM     16  C   UNL     1      51.725  43.985  71.710  0.00  0.00    +0.000 C 
ATOM     17  C   UNL     1      52.978  39.368  67.461  0.00  0.00    +0.000 C 
ATOM     18  C   UNL     1      53.289  45.774  69.318  0.00  0.00    +0.000 C 
ATOM     19  C   UNL     1      57.381  42.231  67.833  0.00  0.00    +0.000 C 
ATOM     20  C   UNL     1      51.002  44.876  71.354  0.00  0.00    +0.000 C 
ATOM     21  C   UNL     1      51.934  46.474  69.406  0.00  0.00    +0.000 C 
ATOM     22  C   UNL     1      53.734  39.341  66.130  0.00  0.00    +0.000 C 
ATOM     23  C   UNL     1      50.848  46.054  70.390  0.00  0.00    +0.000 C 
ATOM     24  C   UNL     1      57.518  41.881  66.354  0.00  0.00    +0.000 C 
ATOM     25  C   UNL     1      54.795  39.661  65.080  0.00  0.00    +0.000 C 
ATOM     26  C   UNL     1      56.079  40.397  64.737  0.00  0.00    +0.000 C 
ATOM     27  C   UNL     1      57.111  41.302  65.388  0.00  0.00    +0.000 C 
ENDROOT
BRANCH  11  30
ATOM     28  N   UNL     1      57.479  38.013  71.365  0.00  0.00    +0.000 NA
ATOM     29  N   UNL     1      55.633  38.683  74.501  0.00  0.00    +0.000 N 
ATOM     30  C   UNL     1      56.600  38.649  72.171  0.00  0.00    +0.000 A 
ATOM     31  C   UNL     1      56.434  38.216  73.484  0.00  0.00    +0.000 A 
ATOM     32  C   UNL     1      57.153  37.134  73.996  0.00  0.00    +0.000 A 
ATOM     33  C   UNL     1      58.172  36.967  71.867  0.00  0.00    +0.000 A 
ATOM     34  C   UNL     1      58.064  36.470  73.159  0.00  0.00    +0.000 A 
ATOM     35  C   UNL     1      56.753  36.956  75.356  0.00  0.00    +0.000 A 
ATOM     36  C   UNL     1      55.805  37.936  75.642  0.00  0.00    +0.000 A 
ATOM     37  C   UNL     1      57.115  36.050  76.369  0.00  0.00    +0.000 A 
ATOM     38  C   UNL     1      55.195  38.063  76.894  0.00  0.00    +0.000 A 
ATOM     39  C   UNL     1      56.517  36.160  77.627  0.00  0.00    +0.000 A 
ATOM     40  C   UNL     1      55.575  37.150  77.880  0.00  0.00    +0.000 A 
ATOM     41  H   UNL     1      55.009  39.475  74.426  0.00  0.00    +0.000 HD
ENDBRANCH  11  30
BRANCH   7  42
ATOM     42  O   UNL     1      56.824  43.116  71.451  0.00  0.00    +0.000 OA
ATOM     43  H   UNL     1      56.867  43.939  70.936  0.00  0.00    +0.000 HD
ENDBRANCH   7  42
TORSDOF 2
ENDMDL
MODEL 5
REMARK VINA RESULT:      -7.5     23.135     26.272
REMARK  Name = 6509753_ManzamineA.pdbqt.pdb
REMARK  2 active torsions:
REMARK  status: ('A' for Active; 'I' for Inactive)
REMARK    1  A    between atoms: C_7  and  O_42
REMARK    2  A    between atoms: C_11  and  C_30
REMARK                            x       y       z     vdW  Elec       q    Type
REMARK                         _______ _______ _______ _____ _____    ______ ____
ROOT
ATOM      1  N   UNL     1      37.279  22.651  82.526  0.00  0.00    +0.000 N 
ATOM      2  N   UNL     1      39.774  20.796  86.422  0.00  0.00    +0.000 N 
ATOM      3  C   UNL     1      39.061  22.630  84.325  0.00  0.00    +0.000 C 
ATOM      4  C   UNL     1      38.700  22.342  82.831  0.00  0.00    +0.000 C 
ATOM      5  C   UNL     1      40.316  23.541  84.652  0.00  0.00    +0.000 C 
ATOM      6  C   UNL     1      37.818  23.317  84.664  0.00  0.00    +0.000 C 
ATOM      7  C   UNL     1      39.741  22.634  81.747  0.00  0.00    +0.000 C 
ATOM      8  C   UNL     1      39.200  21.395  85.173  0.00  0.00    +0.000 C 
ATOM      9  C   UNL     1      36.723  23.181  83.790  0.00  0.00    +0.000 C 
ATOM     10  C   UNL     1      40.962  23.191  85.892  0.00  0.00    +0.000 C 
ATOM     11  C   UNL     1      41.125  23.993  83.529  0.00  0.00    +0.000 C 
ATOM     12  C   UNL     1      40.719  23.468  82.415  0.00  0.00    +0.000 C 
ATOM     13  C   UNL     1      40.722  21.893  86.669  0.00  0.00    +0.000 C 
ATOM     14  C   UNL     1      36.556  21.478  82.028  0.00  0.00    +0.000 C 
ATOM     15  C   UNL     1      40.276  21.389  81.205  0.00  0.00    +0.000 C 
ATOM     16  C   UNL     1      35.376  22.919  84.182  0.00  0.00    +0.000 C 
ATOM     17  C   UNL     1      40.530  19.615  86.042  0.00  0.00    +0.000 C 
ATOM     18  C   UNL     1      35.399  20.476  81.858  0.00  0.00    +0.000 C 
ATOM     19  C   UNL     1      40.896  20.048  80.808  0.00  0.00    +0.000 C 
ATOM     20  C   UNL     1      34.320  22.347  84.207  0.00  0.00    +0.000 C 
ATOM     21  C   UNL     1      34.023  20.296  82.497  0.00  0.00    +0.000 C 
ATOM     22  C   UNL     1      41.266  18.402  85.466  0.00  0.00    +0.000 C 
ATOM     23  C   UNL     1      33.503  21.200  83.609  0.00  0.00    +0.000 C 
ATOM     24  C   UNL     1      41.537  18.667  80.920  0.00  0.00    +0.000 C 
ATOM     25  C   UNL     1      41.862  17.446  84.437  0.00  0.00    +0.000 C 
ATOM     26  C   UNL     1      42.133  17.145  82.972  0.00  0.00    +0.000 C 
ATOM     27  C   UNL     1      41.928  17.762  81.599  0.00  0.00    +0.000 C 
ENDROOT
BRANCH  11  30
ATOM     28  N   UNL     1      42.287  26.120  83.619  0.00  0.00    +0.000 NA
ATOM     29  N   UNL     1      43.943  22.811  83.668  0.00  0.00    +0.000 N 
ATOM     30  C   UNL     1      42.354  24.770  83.607  0.00  0.00    +0.000 A 
ATOM     31  C   UNL     1      43.597  24.143  83.655  0.00  0.00    +0.000 A 
ATOM     32  C   UNL     1      44.785  24.875  83.714  0.00  0.00    +0.000 A 
ATOM     33  C   UNL     1      43.441  26.821  83.677  0.00  0.00    +0.000 A 
ATOM     34  C   UNL     1      44.717  26.277  83.724  0.00  0.00    +0.000 A 
ATOM     35  C   UNL     1      45.864  23.939  83.754  0.00  0.00    +0.000 A 
ATOM     36  C   UNL     1      45.308  22.661  83.725  0.00  0.00    +0.000 A 
ATOM     37  C   UNL     1      47.264  24.067  83.817  0.00  0.00    +0.000 A 
ATOM     38  C   UNL     1      46.080  21.495  83.755  0.00  0.00    +0.000 A 
ATOM     39  C   UNL     1      48.052  22.913  83.847  0.00  0.00    +0.000 A 
ATOM     40  C   UNL     1      47.466  21.653  83.818  0.00  0.00    +0.000 A 
ATOM     41  H   UNL     1      43.286  22.044  83.649  0.00  0.00    +0.000 HD
ENDBRANCH  11  30
BRANCH   7  42
ATOM     42  O   UNL     1      39.172  23.394  80.691  0.00  0.00    +0.000 OA
ATOM     43  H   UNL     1      39.818  23.370  79.964  0.00  0.00    +0.000 HD
ENDBRANCH   7  42
TORSDOF 2
ENDMDL
MODEL 6
REMARK VINA RESULT:      -7.4     40.935     45.433
REMARK  Name = 6509753_ManzamineA.pdbqt.pdb
REMARK  2 active torsions:
REMARK  status: ('A' for Active; 'I' for Inactive)
REMARK    1  A    between atoms: C_7  and  O_42
REMARK    2  A    between atoms: C_11  and  C_30
REMARK                            x       y       z     vdW  Elec       q    Type
REMARK                         _______ _______ _______ _____ _____    ______ ____
ROOT
ATOM      1  N   UNL     1      20.894  17.907  91.840  0.00  0.00    +0.000 N 
ATOM      2  N   UNL     1      18.620  21.852  89.813  0.00  0.00    +0.000 N 
ATOM      3  C   UNL     1      19.165  19.094  90.421  0.00  0.00    +0.000 C 
ATOM      4  C   UNL     1      20.532  18.337  90.464  0.00  0.00    +0.000 C 
ATOM      5  C   UNL     1      18.052  18.617  89.399  0.00  0.00    +0.000 C 
ATOM      6  C   UNL     1      18.770  18.800  91.795  0.00  0.00    +0.000 C 
ATOM      7  C   UNL     1      20.900  17.404  89.307  0.00  0.00    +0.000 C 
ATOM      8  C   UNL     1      19.294  20.583  90.244  0.00  0.00    +0.000 C 
ATOM      9  C   UNL     1      19.756  18.334  92.685  0.00  0.00    +0.000 C 
ATOM     10  C   UNL     1      17.211  19.691  88.935  0.00  0.00    +0.000 C 
ATOM     11  C   UNL     1      18.402  17.539  88.485  0.00  0.00    +0.000 C 
ATOM     12  C   UNL     1      19.650  17.208  88.602  0.00  0.00    +0.000 C 
ATOM     13  C   UNL     1      17.520  21.181  89.104  0.00  0.00    +0.000 C 
ATOM     14  C   UNL     1      22.175  18.470  92.273  0.00  0.00    +0.000 C 
ATOM     15  C   UNL     1      21.965  17.991  88.499  0.00  0.00    +0.000 C 
ATOM     16  C   UNL     1      19.950  18.791  94.022  0.00  0.00    +0.000 C 
ATOM     17  C   UNL     1      19.473  22.495  88.827  0.00  0.00    +0.000 C 
ATOM     18  C   UNL     1      23.207  19.120  93.214  0.00  0.00    +0.000 C 
ATOM     19  C   UNL     1      22.965  18.744  87.619  0.00  0.00    +0.000 C 
ATOM     20  C   UNL     1      20.543  19.243  94.965  0.00  0.00    +0.000 C 
ATOM     21  C   UNL     1      23.173  19.677  94.636  0.00  0.00    +0.000 C 
ATOM     22  C   UNL     1      20.495  23.035  87.823  0.00  0.00    +0.000 C 
ATOM     23  C   UNL     1      21.903  19.721  95.477  0.00  0.00    +0.000 C 
ATOM     24  C   UNL     1      23.609  19.861  86.801  0.00  0.00    +0.000 C 
ATOM     25  C   UNL     1      21.721  23.084  86.915  0.00  0.00    +0.000 C 
ATOM     26  C   UNL     1      22.926  22.353  86.347  0.00  0.00    +0.000 C 
ATOM     27  C   UNL     1      23.592  20.989  86.401  0.00  0.00    +0.000 C 
ENDROOT
BRANCH  11  30
ATOM     28  N   UNL     1      16.777  15.929  87.678  0.00  0.00    +0.000 NA
ATOM     29  N   UNL     1      18.252  18.638  85.634  0.00  0.00    +0.000 N 
ATOM     30  C   UNL     1      17.563  16.999  87.424  0.00  0.00    +0.000 A 
ATOM     31  C   UNL     1      17.569  17.560  86.149  0.00  0.00    +0.000 A 
ATOM     32  C   UNL     1      16.783  17.044  85.118  0.00  0.00    +0.000 A 
ATOM     33  C   UNL     1      16.018  15.436  86.675  0.00  0.00    +0.000 A 
ATOM     34  C   UNL     1      15.968  15.931  85.379  0.00  0.00    +0.000 A 
ATOM     35  C   UNL     1      17.019  17.842  83.957  0.00  0.00    +0.000 A 
ATOM     36  C   UNL     1      17.939  18.827  84.309  0.00  0.00    +0.000 A 
ATOM     37  C   UNL     1      16.530  17.815  82.638  0.00  0.00    +0.000 A 
ATOM     38  C   UNL     1      18.400  19.795  83.411  0.00  0.00    +0.000 A 
ATOM     39  C   UNL     1      16.979  18.773  81.725  0.00  0.00    +0.000 A 
ATOM     40  C   UNL     1      17.897  19.744  82.110  0.00  0.00    +0.000 A 
ATOM     41  H   UNL     1      18.890  19.221  86.158  0.00  0.00    +0.000 HD
ENDBRANCH  11  30
BRANCH   7  42
ATOM     42  O   UNL     1      21.329  16.140  89.792  0.00  0.00    +0.000 OA
ATOM     43  H   UNL     1      20.677  15.875  90.463  0.00  0.00    +0.000 HD
ENDBRANCH   7  42
TORSDOF 2
ENDMDL
MODEL 7
REMARK VINA RESULT:      -7.4     21.395     25.438
REMARK  Name = 6509753_ManzamineA.pdbqt.pdb
REMARK  2 active torsions:
REMARK  status: ('A' for Active; 'I' for Inactive)
REMARK    1  A    between atoms: C_7  and  O_42
REMARK    2  A    between atoms: C_11  and  C_30
REMARK                            x       y       z     vdW  Elec       q    Type
REMARK                         _______ _______ _______ _____ _____    ______ ____
ROOT
ATOM      1  N   UNL     1      41.155  20.849  79.478  0.00  0.00    +0.000 N 
ATOM      2  N   UNL     1      36.181  21.142  79.340  0.00  0.00    +0.000 N 
ATOM      3  C   UNL     1      38.918  21.723  78.675  0.00  0.00    +0.000 C 
ATOM      4  C   UNL     1      40.148  21.932  79.617  0.00  0.00    +0.000 C 
ATOM      5  C   UNL     1      38.468  22.906  77.722  0.00  0.00    +0.000 C 
ATOM      6  C   UNL     1      39.488  20.622  77.903  0.00  0.00    +0.000 C 
ATOM      7  C   UNL     1      40.661  23.354  79.863  0.00  0.00    +0.000 C 
ATOM      8  C   UNL     1      37.676  21.251  79.381  0.00  0.00    +0.000 C 
ATOM      9  C   UNL     1      40.617  19.962  78.422  0.00  0.00    +0.000 C 
ATOM     10  C   UNL     1      37.050  22.918  77.464  0.00  0.00    +0.000 C 
ATOM     11  C   UNL     1      39.182  24.170  77.843  0.00  0.00    +0.000 C 
ATOM     12  C   UNL     1      40.033  24.139  78.819  0.00  0.00    +0.000 C 
ATOM     13  C   UNL     1      36.009  22.122  78.257  0.00  0.00    +0.000 C 
ATOM     14  C   UNL     1      41.394  20.154  80.745  0.00  0.00    +0.000 C 
ATOM     15  C   UNL     1      40.341  23.785  81.220  0.00  0.00    +0.000 C 
ATOM     16  C   UNL     1      40.804  18.548  78.468  0.00  0.00    +0.000 C 
ATOM     17  C   UNL     1      35.659  21.720  80.567  0.00  0.00    +0.000 C 
ATOM     18  C   UNL     1      41.638  18.976  81.707  0.00  0.00    +0.000 C 
ATOM     19  C   UNL     1      39.828  24.213  82.597  0.00  0.00    +0.000 C 
ATOM     20  C   UNL     1      41.024  17.474  78.959  0.00  0.00    +0.000 C 
ATOM     21  C   UNL     1      41.674  17.455  81.566  0.00  0.00    +0.000 C 
ATOM     22  C   UNL     1      35.288  22.350  81.912  0.00  0.00    +0.000 C 
ATOM     23  C   UNL     1      41.396  16.740  80.249  0.00  0.00    +0.000 C 
ATOM     24  C   UNL     1      38.885  24.452  83.773  0.00  0.00    +0.000 C 
ATOM     25  C   UNL     1      35.446  23.089  83.237  0.00  0.00    +0.000 C 
ATOM     26  C   UNL     1      36.364  23.849  84.181  0.00  0.00    +0.000 C 
ATOM     27  C   UNL     1      37.799  24.340  84.265  0.00  0.00    +0.000 C 
ENDROOT
BRANCH  11  30
ATOM     28  N   UNL     1      38.351  26.448  77.788  0.00  0.00    +0.000 NA
ATOM     29  N   UNL     1      39.676  24.620  74.858  0.00  0.00    +0.000 N 
ATOM     30  C   UNL     1      38.886  25.401  77.123  0.00  0.00    +0.000 A 
ATOM     31  C   UNL     1      39.135  25.511  75.757  0.00  0.00    +0.000 A 
ATOM     32  C   UNL     1      38.844  26.678  75.050  0.00  0.00    +0.000 A 
ATOM     33  C   UNL     1      38.071  27.575  77.098  0.00  0.00    +0.000 A 
ATOM     34  C   UNL     1      38.284  27.765  75.739  0.00  0.00    +0.000 A 
ATOM     35  C   UNL     1      39.218  26.461  73.688  0.00  0.00    +0.000 A 
ATOM     36  C   UNL     1      39.734  25.169  73.599  0.00  0.00    +0.000 A 
ATOM     37  C   UNL     1      39.166  27.250  72.524  0.00  0.00    +0.000 A 
ATOM     38  C   UNL     1      40.205  24.619  72.404  0.00  0.00    +0.000 A 
ATOM     39  C   UNL     1      39.632  26.717  71.319  0.00  0.00    +0.000 A 
ATOM     40  C   UNL     1      40.142  25.425  71.265  0.00  0.00    +0.000 A 
ATOM     41  H   UNL     1      39.998  23.690  75.089  0.00  0.00    +0.000 HD
ENDBRANCH  11  30
BRANCH   7  42
ATOM     42  O   UNL     1      42.066  23.425  79.673  0.00  0.00    +0.000 OA
ATOM     43  H   UNL     1      42.395  24.060  80.331  0.00  0.00    +0.000 HD
ENDBRANCH   7  42
TORSDOF 2
ENDMDL
MODEL 8
REMARK VINA RESULT:      -7.3     43.678     47.146
REMARK  Name = 6509753_ManzamineA.pdbqt.pdb
REMARK  2 active torsions:
REMARK  status: ('A' for Active; 'I' for Inactive)
REMARK    1  A    between atoms: C_7  and  O_42
REMARK    2  A    between atoms: C_11  and  C_30
REMARK                            x       y       z     vdW  Elec       q    Type
REMARK                         _______ _______ _______ _____ _____    ______ ____
ROOT
ATOM      1  N   UNL     1      19.239  12.617  80.471  0.00  0.00    +0.000 N 
ATOM      2  N   UNL     1      22.052  14.579  84.087  0.00  0.00    +0.000 N 
ATOM      3  C   UNL     1      20.796  12.562  82.466  0.00  0.00    +0.000 C 
ATOM      4  C   UNL     1      19.324  12.478  81.947  0.00  0.00    +0.000 C 
ATOM      5  C   UNL     1      21.346  11.416  83.411  0.00  0.00    +0.000 C 
ATOM      6  C   UNL     1      21.436  12.507  81.155  0.00  0.00    +0.000 C 
ATOM      7  C   UNL     1      18.352  11.511  82.628  0.00  0.00    +0.000 C 
ATOM      8  C   UNL     1      21.137  13.866  83.137  0.00  0.00    +0.000 C 
ATOM      9  C   UNL     1      20.642  12.744  80.018  0.00  0.00    +0.000 C 
ATOM     10  C   UNL     1      22.336  11.881  84.349  0.00  0.00    +0.000 C 
ATOM     11  C   UNL     1      20.409  10.378  83.819  0.00  0.00    +0.000 C 
ATOM     12  C   UNL     1      19.210  10.636  83.401  0.00  0.00    +0.000 C 
ATOM     13  C   UNL     1      22.613  13.352  84.673  0.00  0.00    +0.000 C 
ATOM     14  C   UNL     1      18.402  13.752  80.072  0.00  0.00    +0.000 C 
ATOM     15  C   UNL     1      17.368  12.246  83.417  0.00  0.00    +0.000 C 
ATOM     16  C   UNL     1      20.999  13.577  78.915  0.00  0.00    +0.000 C 
ATOM     17  C   UNL     1      21.228  15.230  85.092  0.00  0.00    +0.000 C 
ATOM     18  C   UNL     1      17.960  14.993  79.275  0.00  0.00    +0.000 C 
ATOM     19  C   UNL     1      16.481  13.083  84.341  0.00  0.00    +0.000 C 
ATOM     20  C   UNL     1      20.885  14.465  78.114  0.00  0.00    +0.000 C 
ATOM     21  C   UNL     1      18.579  15.842  78.166  0.00  0.00    +0.000 C 
ATOM     22  C   UNL     1      20.213  15.856  86.052  0.00  0.00    +0.000 C 
ATOM     23  C   UNL     1      19.970  15.579  77.602  0.00  0.00    +0.000 C 
ATOM     24  C   UNL     1      16.052  14.104  85.391  0.00  0.00    +0.000 C 
ATOM     25  C   UNL     1      18.875  16.163  86.718  0.00  0.00    +0.000 C 
ATOM     26  C   UNL     1      17.385  15.874  86.797  0.00  0.00    +0.000 C 
ATOM     27  C   UNL     1      16.338  14.974  86.162  0.00  0.00    +0.000 C 
ENDROOT
BRANCH  11  30
ATOM     28  N   UNL     1      21.112   9.551  85.989  0.00  0.00    +0.000 NA
ATOM     29  N   UNL     1      20.088   7.411  83.150  0.00  0.00    +0.000 N 
ATOM     30  C   UNL     1      20.681   9.280  84.736  0.00  0.00    +0.000 A 
ATOM     31  C   UNL     1      20.517   7.956  84.338  0.00  0.00    +0.000 A 
ATOM     32  C   UNL     1      20.789   6.892  85.200  0.00  0.00    +0.000 A 
ATOM     33  C   UNL     1      21.373   8.517  86.818  0.00  0.00    +0.000 A 
ATOM     34  C   UNL     1      21.239   7.172  86.500  0.00  0.00    +0.000 A 
ATOM     35  C   UNL     1      20.517   5.683  84.489  0.00  0.00    +0.000 A 
ATOM     36  C   UNL     1      20.082   6.038  83.215  0.00  0.00    +0.000 A 
ATOM     37  C   UNL     1      20.601   4.317  84.820  0.00  0.00    +0.000 A 
ATOM     38  C   UNL     1      19.722   5.098  82.244  0.00  0.00    +0.000 A 
ATOM     39  C   UNL     1      20.246   3.363  83.863  0.00  0.00    +0.000 A 
ATOM     40  C   UNL     1      19.814   3.751  82.600  0.00  0.00    +0.000 A 
ATOM     41  H   UNL     1      19.804   7.945  82.339  0.00  0.00    +0.000 HD
ENDBRANCH  11  30
BRANCH   7  42
ATOM     42  O   UNL     1      17.674  10.714  81.667  0.00  0.00    +0.000 OA
ATOM     43  H   UNL     1      17.759   9.795  81.972  0.00  0.00    +0.000 HD
ENDBRANCH   7  42
TORSDOF 2
ENDMDL
MODEL 9
REMARK VINA RESULT:      -7.2     57.906     61.347
REMARK  Name = 6509753_ManzamineA.pdbqt.pdb
REMARK  2 active torsions:
REMARK  status: ('A' for Active; 'I' for Inactive)
REMARK    1  A    between atoms: C_7  and  O_42
REMARK    2  A    between atoms: C_11  and  C_30
REMARK                            x       y       z     vdW  Elec       q    Type
REMARK                         _______ _______ _______ _____ _____    ______ ____
ROOT
ATOM      1  N   UNL     1      11.197  11.330 101.759  0.00  0.00    +0.000 N 
ATOM      2  N   UNL     1      14.825   8.539 103.731  0.00  0.00    +0.000 N 
ATOM      3  C   UNL     1      13.189   9.769 101.710  0.00  0.00    +0.000 C 
ATOM      4  C   UNL     1      11.634   9.916 101.642  0.00  0.00    +0.000 C 
ATOM      5  C   UNL     1      13.936   8.962 100.569  0.00  0.00    +0.000 C 
ATOM      6  C   UNL     1      13.493  11.194 101.622  0.00  0.00    +0.000 C 
ATOM      7  C   UNL     1      10.843   9.001 100.703  0.00  0.00    +0.000 C 
ATOM      8  C   UNL     1      13.698   9.226 103.018  0.00  0.00    +0.000 C 
ATOM      9  C   UNL     1      12.450  12.111 101.854  0.00  0.00    +0.000 C 
ATOM     10  C   UNL     1      15.130   8.300 101.033  0.00  0.00    +0.000 C 
ATOM     11  C   UNL     1      13.113   8.319  99.555  0.00  0.00    +0.000 C 
ATOM     12  C   UNL     1      11.851   8.440  99.827  0.00  0.00    +0.000 C 
ATOM     13  C   UNL     1      15.495   8.081 102.504  0.00  0.00    +0.000 C 
ATOM     14  C   UNL     1      10.303  11.538 102.901  0.00  0.00    +0.000 C 
ATOM     15  C   UNL     1      10.089   8.013 101.468  0.00  0.00    +0.000 C 
ATOM     16  C   UNL     1      12.541  13.283 102.663  0.00  0.00    +0.000 C 
ATOM     17  C   UNL     1      14.277   7.378 104.412  0.00  0.00    +0.000 C 
ATOM     18  C   UNL     1       9.697  12.229 104.137  0.00  0.00    +0.000 C 
ATOM     19  C   UNL     1       9.461   6.919 102.334  0.00  0.00    +0.000 C 
ATOM     20  C   UNL     1      12.248  14.051 103.540  0.00  0.00    +0.000 C 
ATOM     21  C   UNL     1      10.040  13.471 104.957  0.00  0.00    +0.000 C 
ATOM     22  C   UNL     1      13.531   6.215 105.071  0.00  0.00    +0.000 C 
ATOM     23  C   UNL     1      11.251  14.350 104.661  0.00  0.00    +0.000 C 
ATOM     24  C   UNL     1       9.312   5.817 103.380  0.00  0.00    +0.000 C 
ATOM     25  C   UNL     1      12.397   5.252 105.412  0.00  0.00    +0.000 C 
ATOM     26  C   UNL     1      10.967   4.810 105.150  0.00  0.00    +0.000 C 
ATOM     27  C   UNL     1       9.787   5.156 104.258  0.00  0.00    +0.000 C 
ENDROOT
BRANCH  11  30
ATOM     28  N   UNL     1      14.325   8.016  97.476  0.00  0.00    +0.000 NA
ATOM     29  N   UNL     1      12.561   5.321  99.297  0.00  0.00    +0.000 N 
ATOM     30  C   UNL     1      13.584   7.473  98.468  0.00  0.00    +0.000 A 
ATOM     31  C   UNL     1      13.273   6.116  98.427  0.00  0.00    +0.000 A 
ATOM     32  C   UNL     1      13.704   5.295  97.384  0.00  0.00    +0.000 A 
ATOM     33  C   UNL     1      14.739   7.216  96.469  0.00  0.00    +0.000 A 
ATOM     34  C   UNL     1      14.470   5.859  96.352  0.00  0.00    +0.000 A 
ATOM     35  C   UNL     1      13.221   3.977  97.646  0.00  0.00    +0.000 A 
ATOM     36  C   UNL     1      12.512   4.024  98.845  0.00  0.00    +0.000 A 
ATOM     37  C   UNL     1      13.326   2.747  96.971  0.00  0.00    +0.000 A 
ATOM     38  C   UNL     1      11.899   2.902  99.412  0.00  0.00    +0.000 A 
ATOM     39  C   UNL     1      12.720   1.614  97.521  0.00  0.00    +0.000 A 
ATOM     40  C   UNL     1      12.021   1.695  98.720  0.00  0.00    +0.000 A 
ATOM     41  H   UNL     1      12.138   5.642 100.157  0.00  0.00    +0.000 HD
ENDBRANCH  11  30
BRANCH   7  42
ATOM     42  O   UNL     1       9.943   9.754  99.903  0.00  0.00    +0.000 OA
ATOM     43  H   UNL     1      10.279  10.666  99.906  0.00  0.00    +0.000 HD
ENDBRANCH   7  42
TORSDOF 2
ENDMDL
