MODEL 1
REMARK VINA RESULT:      -5.2      0.000      0.000
REMARK  Name = 67499_Pyrazolo.pdbqt.pdb
REMARK  0 active torsions:
REMARK  status: ('A' for Active; 'I' for Inactive)
REMARK                            x       y       z     vdW  Elec       q    Type
REMARK                         _______ _______ _______ _____ _____    ______ ____
ROOT
ATOM      1  N   UNL     1      55.859  36.175  81.478  0.00  0.00    +0.000 N 
ATOM      2  N   UNL     1      56.402  36.691  82.602  0.00  0.00    +0.000 NA
ATOM      3  N   UNL     1      56.359  34.532  79.770  0.00  0.00    +0.000 NA
ATOM      4  N   UNL     1      58.489  33.449  80.160  0.00  0.00    +0.000 NA
ATOM      5  C   UNL     1      57.756  35.099  81.681  0.00  0.00    +0.000 A 
ATOM      6  C   UNL     1      56.633  35.218  80.889  0.00  0.00    +0.000 A 
ATOM      7  C   UNL     1      57.560  36.028  82.718  0.00  0.00    +0.000 A 
ATOM      8  C   UNL     1      58.711  34.173  81.285  0.00  0.00    +0.000 A 
ATOM      9  C   UNL     1      57.346  33.664  79.476  0.00  0.00    +0.000 A 
ATOM     10  H   UNL     1      54.959  36.516  81.161  0.00  0.00    +0.000 HD
ENDROOT
TORSDOF 0
ENDMDL
MODEL 2
REMARK VINA RESULT:      -4.7      1.407      2.029
REMARK  Name = 67499_Pyrazolo.pdbqt.pdb
REMARK  0 active torsions:
REMARK  status: ('A' for Active; 'I' for Inactive)
REMARK                            x       y       z     vdW  Elec       q    Type
REMARK                         _______ _______ _______ _____ _____    ______ ____
ROOT
ATOM      1  N   UNL     1      56.063  35.672  81.137  0.00  0.00    +0.000 N 
ATOM      2  N   UNL     1      56.030  36.596  80.152  0.00  0.00    +0.000 NA
ATOM      3  N   UNL     1      57.462  33.858  81.924  0.00  0.00    +0.000 NA
ATOM      4  N   UNL     1      59.429  33.574  80.541  0.00  0.00    +0.000 NA
ATOM      5  C   UNL     1      57.890  35.279  79.995  0.00  0.00    +0.000 A 
ATOM      6  C   UNL     1      57.159  34.860  81.086  0.00  0.00    +0.000 A 
ATOM      7  C   UNL     1      57.150  36.348  79.460  0.00  0.00    +0.000 A 
ATOM      8  C   UNL     1      59.069  34.598  79.728  0.00  0.00    +0.000 A 
ATOM      9  C   UNL     1      58.621  33.266  81.576  0.00  0.00    +0.000 A 
ATOM     10  H   UNL     1      55.311  35.645  81.815  0.00  0.00    +0.000 HD
ENDROOT
TORSDOF 0
ENDMDL
MODEL 3
REMARK VINA RESULT:      -4.4      3.001      4.457
REMARK  Name = 67499_Pyrazolo.pdbqt.pdb
REMARK  0 active torsions:
REMARK  status: ('A' for Active; 'I' for Inactive)
REMARK                            x       y       z     vdW  Elec       q    Type
REMARK                         _______ _______ _______ _____ _____    ______ ____
ROOT
ATOM      1  N   UNL     1      55.092  34.657  78.089  0.00  0.00    +0.000 N 
ATOM      2  N   UNL     1      54.940  34.646  76.747  0.00  0.00    +0.000 NA
ATOM      3  N   UNL     1      56.398  35.779  79.793  0.00  0.00    +0.000 NA
ATOM      4  N   UNL     1      57.924  37.398  78.836  0.00  0.00    +0.000 NA
ATOM      5  C   UNL     1      56.527  36.158  77.392  0.00  0.00    +0.000 A 
ATOM      6  C   UNL     1      56.031  35.546  78.524  0.00  0.00    +0.000 A 
ATOM      7  C   UNL     1      55.820  35.565  76.330  0.00  0.00    +0.000 A 
ATOM      8  C   UNL     1      57.511  37.119  77.574  0.00  0.00    +0.000 A 
ATOM      9  C   UNL     1      57.355  36.725  79.858  0.00  0.00    +0.000 A 
ATOM     10  H   UNL     1      54.528  34.035  78.656  0.00  0.00    +0.000 HD
ENDROOT
TORSDOF 0
ENDMDL
MODEL 4
REMARK VINA RESULT:      -4.2      2.555      3.561
REMARK  Name = 67499_Pyrazolo.pdbqt.pdb
REMARK  0 active torsions:
REMARK  status: ('A' for Active; 'I' for Inactive)
REMARK                            x       y       z     vdW  Elec       q    Type
REMARK                         _______ _______ _______ _____ _____    ______ ____
ROOT
ATOM      1  N   UNL     1      59.244  35.053  78.748  0.00  0.00    +0.000 N 
ATOM      2  N   UNL     1      59.460  34.367  79.891  0.00  0.00    +0.000 NA
ATOM      3  N   UNL     1      57.409  35.776  77.343  0.00  0.00    +0.000 NA
ATOM      4  N   UNL     1      55.268  35.066  78.224  0.00  0.00    +0.000 NA
ATOM      5  C   UNL     1      57.231  34.493  79.404  0.00  0.00    +0.000 A 
ATOM      6  C   UNL     1      57.925  35.156  78.414  0.00  0.00    +0.000 A 
ATOM      7  C   UNL     1      58.224  34.028  80.284  0.00  0.00    +0.000 A 
ATOM      8  C   UNL     1      55.849  34.457  79.287  0.00  0.00    +0.000 A 
ATOM      9  C   UNL     1      56.065  35.681  77.326  0.00  0.00    +0.000 A 
ATOM     10  H   UNL     1      60.036  35.428  78.240  0.00  0.00    +0.000 HD
ENDROOT
TORSDOF 0
ENDMDL
MODEL 5
REMARK VINA RESULT:      -4.2      2.484      3.017
REMARK  Name = 67499_Pyrazolo.pdbqt.pdb
REMARK  0 active torsions:
REMARK  status: ('A' for Active; 'I' for Inactive)
REMARK                            x       y       z     vdW  Elec       q    Type
REMARK                         _______ _______ _______ _____ _____    ______ ____
ROOT
ATOM      1  N   UNL     1      56.531  36.625  78.539  0.00  0.00    +0.000 N 
ATOM      2  N   UNL     1      55.319  36.089  78.280  0.00  0.00    +0.000 NA
ATOM      3  N   UNL     1      58.695  35.971  79.409  0.00  0.00    +0.000 NA
ATOM      4  N   UNL     1      58.748  33.628  80.018  0.00  0.00    +0.000 NA
ATOM      5  C   UNL     1      56.751  34.531  79.140  0.00  0.00    +0.000 A 
ATOM      6  C   UNL     1      57.424  35.732  79.056  0.00  0.00    +0.000 A 
ATOM      7  C   UNL     1      55.463  34.810  78.650  0.00  0.00    +0.000 A 
ATOM      8  C   UNL     1      57.457  33.447  79.643  0.00  0.00    +0.000 A 
ATOM      9  C   UNL     1      59.287  34.857  79.883  0.00  0.00    +0.000 A 
ATOM     10  H   UNL     1      56.690  37.606  78.343  0.00  0.00    +0.000 HD
ENDROOT
TORSDOF 0
ENDMDL
MODEL 6
REMARK VINA RESULT:      -4.1      2.259      3.380
REMARK  Name = 67499_Pyrazolo.pdbqt.pdb
REMARK  0 active torsions:
REMARK  status: ('A' for Active; 'I' for Inactive)
REMARK                            x       y       z     vdW  Elec       q    Type
REMARK                         _______ _______ _______ _____ _____    ______ ____
ROOT
ATOM      1  N   UNL     1      59.183  35.112  77.999  0.00  0.00    +0.000 N 
ATOM      2  N   UNL     1      59.152  36.432  77.713  0.00  0.00    +0.000 NA
ATOM      3  N   UNL     1      58.303  33.552  79.629  0.00  0.00    +0.000 NA
ATOM      4  N   UNL     1      56.929  34.662  81.286  0.00  0.00    +0.000 NA
ATOM      5  C   UNL     1      57.915  35.955  79.574  0.00  0.00    +0.000 A 
ATOM      6  C   UNL     1      58.458  34.776  79.105  0.00  0.00    +0.000 A 
ATOM      7  C   UNL     1      58.375  36.938  78.680  0.00  0.00    +0.000 A 
ATOM      8  C   UNL     1      57.122  35.875  80.710  0.00  0.00    +0.000 A 
ATOM      9  C   UNL     1      57.519  33.587  80.724  0.00  0.00    +0.000 A 
ATOM     10  H   UNL     1      59.717  34.490  77.404  0.00  0.00    +0.000 HD
ENDROOT
TORSDOF 0
ENDMDL
MODEL 7
REMARK VINA RESULT:      -4.0      3.791      4.632
REMARK  Name = 67499_Pyrazolo.pdbqt.pdb
REMARK  0 active torsions:
REMARK  status: ('A' for Active; 'I' for Inactive)
REMARK                            x       y       z     vdW  Elec       q    Type
REMARK                         _______ _______ _______ _____ _____    ______ ____
ROOT
ATOM      1  N   UNL     1      58.529  38.136  78.206  0.00  0.00    +0.000 N 
ATOM      2  N   UNL     1      58.234  38.953  77.172  0.00  0.00    +0.000 NA
ATOM      3  N   UNL     1      57.545  36.313  79.461  0.00  0.00    +0.000 NA
ATOM      4  N   UNL     1      55.339  35.743  78.640  0.00  0.00    +0.000 NA
ATOM      5  C   UNL     1      56.528  37.493  77.591  0.00  0.00    +0.000 A 
ATOM      6  C   UNL     1      57.538  37.243  78.496  0.00  0.00    +0.000 A 
ATOM      7  C   UNL     1      57.010  38.553  76.803  0.00  0.00    +0.000 A 
ATOM      8  C   UNL     1      55.391  36.701  77.682  0.00  0.00    +0.000 A 
ATOM      9  C   UNL     1      56.400  35.603  79.462  0.00  0.00    +0.000 A 
ATOM     10  H   UNL     1      59.421  38.234  78.676  0.00  0.00    +0.000 HD
ENDROOT
TORSDOF 0
ENDMDL
MODEL 8
REMARK VINA RESULT:      -4.0      4.298      5.083
REMARK  Name = 67499_Pyrazolo.pdbqt.pdb
REMARK  0 active torsions:
REMARK  status: ('A' for Active; 'I' for Inactive)
REMARK                            x       y       z     vdW  Elec       q    Type
REMARK                         _______ _______ _______ _____ _____    ______ ____
ROOT
ATOM      1  N   UNL     1      58.757  37.627  78.747  0.00  0.00    +0.000 N 
ATOM      2  N   UNL     1      58.462  36.531  79.479  0.00  0.00    +0.000 NA
ATOM      3  N   UNL     1      57.707  39.134  77.169  0.00  0.00    +0.000 NA
ATOM      4  N   UNL     1      55.404  38.523  76.737  0.00  0.00    +0.000 NA
ATOM      5  C   UNL     1      56.666  37.215  78.244  0.00  0.00    +0.000 A 
ATOM      6  C   UNL     1      57.714  38.075  77.991  0.00  0.00    +0.000 A 
ATOM      7  C   UNL     1      57.182  36.287  79.166  0.00  0.00    +0.000 A 
ATOM      8  C   UNL     1      55.472  37.464  77.582  0.00  0.00    +0.000 A 
ATOM      9  C   UNL     1      56.506  39.286  76.579  0.00  0.00    +0.000 A 
ATOM     10  H   UNL     1      59.687  38.024  78.805  0.00  0.00    +0.000 HD
ENDROOT
TORSDOF 0
ENDMDL
MODEL 9
REMARK VINA RESULT:      -3.8      3.908      4.948
REMARK  Name = 67499_Pyrazolo.pdbqt.pdb
REMARK  0 active torsions:
REMARK  status: ('A' for Active; 'I' for Inactive)
REMARK                            x       y       z     vdW  Elec       q    Type
REMARK                         _______ _______ _______ _____ _____    ______ ____
ROOT
ATOM      1  N   UNL     1      57.814  35.576  77.642  0.00  0.00    +0.000 N 
ATOM      2  N   UNL     1      58.119  36.076  78.859  0.00  0.00    +0.000 NA
ATOM      3  N   UNL     1      56.215  35.909  75.853  0.00  0.00    +0.000 NA
ATOM      4  N   UNL     1      54.652  37.687  76.364  0.00  0.00    +0.000 NA
ATOM      5  C   UNL     1      56.324  37.153  77.943  0.00  0.00    +0.000 A 
ATOM      6  C   UNL     1      56.746  36.188  77.052  0.00  0.00    +0.000 A 
ATOM      7  C   UNL     1      57.204  37.039  79.034  0.00  0.00    +0.000 A 
ATOM      8  C   UNL     1      55.233  37.923  77.567  0.00  0.00    +0.000 A 
ATOM      9  C   UNL     1      55.166  36.711  75.587  0.00  0.00    +0.000 A 
ATOM     10  H   UNL     1      58.371  34.818  77.265  0.00  0.00    +0.000 HD
ENDROOT
TORSDOF 0
ENDMDL
