MODEL 1
REMARK VINA RESULT:      -4.7      0.000      0.000
REMARK  Name = 71369791_5FluoroDione.pdbqt.pdb
REMARK  1 active torsions:
REMARK  status: ('A' for Active; 'I' for Inactive)
REMARK    1  A    between atoms: N_4  and  C_12
REMARK                            x       y       z     vdW  Elec       q    Type
REMARK                         _______ _______ _______ _____ _____    ______ ____
ROOT
ATOM      1  F   UNL     1      45.110  26.332  87.517  0.00  0.00    +0.000 F 
ATOM      2  O   UNL     1      43.221  28.505  82.895  0.00  0.00    +0.000 OA
ATOM      3  O   UNL     1      45.755  28.963  86.689  0.00  0.00    +0.000 OA
ATOM      4  N   UNL     1      43.524  26.563  84.207  0.00  0.00    +0.000 N 
ATOM      5  N   UNL     1      44.543  28.621  84.760  0.00  0.00    +0.000 N 
ATOM      6  C   UNL     1      44.140  26.112  85.317  0.00  0.00    +0.000 C 
ATOM      7  C   UNL     1      44.978  26.742  86.245  0.00  0.00    +0.000 C 
ATOM      8  C   UNL     1      43.707  27.920  83.857  0.00  0.00    +0.000 C 
ATOM      9  C   UNL     1      45.151  28.196  85.950  0.00  0.00    +0.000 C 
ATOM     10  H   UNL     1      44.653  29.603  84.550  0.00  0.00    +0.000 HD
ENDROOT
BRANCH   4  12
ATOM     11  O   UNL     1      41.365  25.610  83.633  0.00  0.00    +0.000 OA
ATOM     12  C   UNL     1      42.755  25.694  83.485  0.00  0.00    +0.000 C 
ATOM     13  C   UNL     1      43.154  24.752  82.501  0.00  0.00    +0.000 C 
ATOM     14  C   UNL     1      42.152  23.845  81.784  0.00  0.00    +0.000 C 
ATOM     15  C   UNL     1      41.240  24.645  82.713  0.00  0.00    +0.000 C 
ENDBRANCH   4  12
TORSDOF 1
ENDMDL
MODEL 2
REMARK VINA RESULT:      -4.6      2.611      3.060
REMARK  Name = 71369791_5FluoroDione.pdbqt.pdb
REMARK  1 active torsions:
REMARK  status: ('A' for Active; 'I' for Inactive)
REMARK    1  A    between atoms: N_4  and  C_12
REMARK                            x       y       z     vdW  Elec       q    Type
REMARK                         _______ _______ _______ _____ _____    ______ ____
ROOT
ATOM      1  F   UNL     1      42.321  25.739  88.536  0.00  0.00    +0.000 F 
ATOM      2  O   UNL     1      42.895  28.272  83.749  0.00  0.00    +0.000 OA
ATOM      3  O   UNL     1      41.038  28.195  87.942  0.00  0.00    +0.000 OA
ATOM      4  N   UNL     1      43.653  26.578  85.212  0.00  0.00    +0.000 N 
ATOM      5  N   UNL     1      42.087  28.211  85.890  0.00  0.00    +0.000 N 
ATOM      6  C   UNL     1      43.510  26.112  86.469  0.00  0.00    +0.000 C 
ATOM      7  C   UNL     1      42.733  26.550  87.548  0.00  0.00    +0.000 C 
ATOM      8  C   UNL     1      42.902  27.717  84.843  0.00  0.00    +0.000 C 
ATOM      9  C   UNL     1      41.874  27.716  87.185  0.00  0.00    +0.000 C 
ATOM     10  H   UNL     1      41.511  29.001  85.634  0.00  0.00    +0.000 HD
ENDROOT
BRANCH   4  12
ATOM     11  O   UNL     1      44.136  24.783  83.650  0.00  0.00    +0.000 OA
ATOM     12  C   UNL     1      44.506  25.929  84.365  0.00  0.00    +0.000 C 
ATOM     13  C   UNL     1      45.853  26.238  84.041  0.00  0.00    +0.000 C 
ATOM     14  C   UNL     1      46.672  25.394  83.063  0.00  0.00    +0.000 C 
ATOM     15  C   UNL     1      45.332  24.661  83.062  0.00  0.00    +0.000 C 
ENDBRANCH   4  12
TORSDOF 1
ENDMDL
MODEL 3
REMARK VINA RESULT:      -4.6     38.213     39.958
REMARK  Name = 71369791_5FluoroDione.pdbqt.pdb
REMARK  1 active torsions:
REMARK  status: ('A' for Active; 'I' for Inactive)
REMARK    1  A    between atoms: N_4  and  C_12
REMARK                            x       y       z     vdW  Elec       q    Type
REMARK                         _______ _______ _______ _____ _____    ______ ____
ROOT
ATOM      1  F   UNL     1      14.571   8.359  97.048  0.00  0.00    +0.000 F 
ATOM      2  O   UNL     1      11.476   5.112 100.137  0.00  0.00    +0.000 OA
ATOM      3  O   UNL     1      14.719   5.533  96.921  0.00  0.00    +0.000 OA
ATOM      4  N   UNL     1      12.277   7.296  99.719  0.00  0.00    +0.000 N 
ATOM      5  N   UNL     1      13.157   5.405  98.610  0.00  0.00    +0.000 N 
ATOM      6  C   UNL     1      13.170   7.980  98.978  0.00  0.00    +0.000 C 
ATOM      7  C   UNL     1      14.117   7.566  98.033  0.00  0.00    +0.000 C 
ATOM      8  C   UNL     1      12.226   5.893  99.559  0.00  0.00    +0.000 C 
ATOM      9  C   UNL     1      14.056   6.095  97.784  0.00  0.00    +0.000 C 
ATOM     10  H   UNL     1      13.107   4.409  98.451  0.00  0.00    +0.000 HD
ENDROOT
BRANCH   4  12
ATOM     11  O   UNL     1      11.632   7.949 101.967  0.00  0.00    +0.000 OA
ATOM     12  C   UNL     1      11.470   7.989 100.577  0.00  0.00    +0.000 C 
ATOM     13  C   UNL     1      10.370   8.837 100.283  0.00  0.00    +0.000 C 
ATOM     14  C   UNL     1       9.565   9.540 101.378  0.00  0.00    +0.000 C 
ATOM     15  C   UNL     1      10.604   8.774 102.196  0.00  0.00    +0.000 C 
ENDBRANCH   4  12
TORSDOF 1
ENDMDL
MODEL 4
REMARK VINA RESULT:      -4.4     37.732     39.558
REMARK  Name = 71369791_5FluoroDione.pdbqt.pdb
REMARK  1 active torsions:
REMARK  status: ('A' for Active; 'I' for Inactive)
REMARK    1  A    between atoms: N_4  and  C_12
REMARK                            x       y       z     vdW  Elec       q    Type
REMARK                         _______ _______ _______ _____ _____    ______ ____
ROOT
ATOM      1  F   UNL     1      13.977   3.750  96.320  0.00  0.00    +0.000 F 
ATOM      2  O   UNL     1      11.520   6.521 100.313  0.00  0.00    +0.000 OA
ATOM      3  O   UNL     1      11.886   2.649  97.882  0.00  0.00    +0.000 OA
ATOM      4  N   UNL     1      13.334   6.385  98.803  0.00  0.00    +0.000 N 
ATOM      5  N   UNL     1      11.831   4.590  99.122  0.00  0.00    +0.000 N 
ATOM      6  C   UNL     1      13.925   5.558  97.919  0.00  0.00    +0.000 C 
ATOM      7  C   UNL     1      13.629   4.250  97.517  0.00  0.00    +0.000 C 
ATOM      8  C   UNL     1      12.190   5.911  99.486  0.00  0.00    +0.000 C 
ATOM      9  C   UNL     1      12.390   3.729  98.167  0.00  0.00    +0.000 C 
ATOM     10  H   UNL     1      10.991   4.248  99.568  0.00  0.00    +0.000 HD
ENDROOT
BRANCH   4  12
ATOM     11  O   UNL     1      15.047   8.051  98.374  0.00  0.00    +0.000 OA
ATOM     12  C   UNL     1      13.863   7.631  98.991  0.00  0.00    +0.000 C 
ATOM     13  C   UNL     1      13.376   8.699  99.790  0.00  0.00    +0.000 C 
ATOM     14  C   UNL     1      14.102  10.041  99.889  0.00  0.00    +0.000 C 
ATOM     15  C   UNL     1      15.008   9.266  98.934  0.00  0.00    +0.000 C 
ENDBRANCH   4  12
TORSDOF 1
ENDMDL
MODEL 5
REMARK VINA RESULT:      -4.3     28.460     29.511
REMARK  Name = 71369791_5FluoroDione.pdbqt.pdb
REMARK  1 active torsions:
REMARK  status: ('A' for Active; 'I' for Inactive)
REMARK    1  A    between atoms: N_4  and  C_12
REMARK                            x       y       z     vdW  Elec       q    Type
REMARK                         _______ _______ _______ _____ _____    ______ ____
ROOT
ATOM      1  F   UNL     1      18.727  14.357  81.613  0.00  0.00    +0.000 F 
ATOM      2  O   UNL     1      15.402  13.075  85.732  0.00  0.00    +0.000 OA
ATOM      3  O   UNL     1      17.067  12.061  81.581  0.00  0.00    +0.000 OA
ATOM      4  N   UNL     1      17.200  14.401  84.958  0.00  0.00    +0.000 N 
ATOM      5  N   UNL     1      16.353  12.584  83.708  0.00  0.00    +0.000 N 
ATOM      6  C   UNL     1      18.050  14.544  83.923  0.00  0.00    +0.000 C 
ATOM      7  C   UNL     1      18.205  13.826  82.731  0.00  0.00    +0.000 C 
ATOM      8  C   UNL     1      16.255  13.351  84.894  0.00  0.00    +0.000 C 
ATOM      9  C   UNL     1      17.186  12.744  82.591  0.00  0.00    +0.000 C 
ATOM     10  H   UNL     1      15.659  11.855  83.624  0.00  0.00    +0.000 HD
ENDROOT
BRANCH   4  12
ATOM     11  O   UNL     1      16.628  16.505  86.027  0.00  0.00    +0.000 OA
ATOM     12  C   UNL     1      17.291  15.272  86.007  0.00  0.00    +0.000 C 
ATOM     13  C   UNL     1      18.019  15.141  87.219  0.00  0.00    +0.000 C 
ATOM     14  C   UNL     1      18.012  16.225  88.297  0.00  0.00    +0.000 C 
ATOM     15  C   UNL     1      17.101  16.836  87.234  0.00  0.00    +0.000 C 
ENDBRANCH   4  12
TORSDOF 1
ENDMDL
MODEL 6
REMARK VINA RESULT:      -4.3      9.660     11.297
REMARK  Name = 71369791_5FluoroDione.pdbqt.pdb
REMARK  1 active torsions:
REMARK  status: ('A' for Active; 'I' for Inactive)
REMARK    1  A    between atoms: N_4  and  C_12
REMARK                            x       y       z     vdW  Elec       q    Type
REMARK                         _______ _______ _______ _____ _____    ______ ____
ROOT
ATOM      1  F   UNL     1      43.835  37.574  86.144  0.00  0.00    +0.000 F 
ATOM      2  O   UNL     1      44.106  35.219  81.241  0.00  0.00    +0.000 OA
ATOM      3  O   UNL     1      42.123  35.453  85.370  0.00  0.00    +0.000 OA
ATOM      4  N   UNL     1      44.752  37.022  82.626  0.00  0.00    +0.000 N 
ATOM      5  N   UNL     1      43.103  35.464  83.284  0.00  0.00    +0.000 N 
ATOM      6  C   UNL     1      44.510  37.584  83.826  0.00  0.00    +0.000 C 
ATOM      7  C   UNL     1      43.627  37.245  84.858  0.00  0.00    +0.000 C 
ATOM      8  C   UNL     1      44.015  35.866  82.279  0.00  0.00    +0.000 C 
ATOM      9  C   UNL     1      42.871  35.992  84.563  0.00  0.00    +0.000 C 
ATOM     10  H   UNL     1      42.597  34.616  83.073  0.00  0.00    +0.000 HD
ENDROOT
BRANCH   4  12
ATOM     11  O   UNL     1      46.983  37.070  81.669  0.00  0.00    +0.000 OA
ATOM     12  C   UNL     1      45.691  37.591  81.813  0.00  0.00    +0.000 C 
ATOM     13  C   UNL     1      45.585  38.747  80.995  0.00  0.00    +0.000 C 
ATOM     14  C   UNL     1      46.749  39.252  80.140  0.00  0.00    +0.000 C 
ATOM     15  C   UNL     1      47.362  38.020  80.805  0.00  0.00    +0.000 C 
ENDBRANCH   4  12
TORSDOF 1
ENDMDL
MODEL 7
REMARK VINA RESULT:      -4.2     12.041     12.692
REMARK  Name = 71369791_5FluoroDione.pdbqt.pdb
REMARK  1 active torsions:
REMARK  status: ('A' for Active; 'I' for Inactive)
REMARK    1  A    between atoms: N_4  and  C_12
REMARK                            x       y       z     vdW  Elec       q    Type
REMARK                         _______ _______ _______ _____ _____    ______ ____
ROOT
ATOM      1  F   UNL     1      54.854  20.654  81.565  0.00  0.00    +0.000 F 
ATOM      2  O   UNL     1      50.848  19.639  78.017  0.00  0.00    +0.000 OA
ATOM      3  O   UNL     1      52.612  19.046  82.209  0.00  0.00    +0.000 OA
ATOM      4  N   UNL     1      52.759  20.923  78.554  0.00  0.00    +0.000 N 
ATOM      5  N   UNL     1      51.744  19.472  80.117  0.00  0.00    +0.000 N 
ATOM      6  C   UNL     1      53.624  21.179  79.554  0.00  0.00    +0.000 C 
ATOM      7  C   UNL     1      53.706  20.701  80.867  0.00  0.00    +0.000 C 
ATOM      8  C   UNL     1      51.717  20.001  78.804  0.00  0.00    +0.000 C 
ATOM      9  C   UNL     1      52.661  19.675  81.159  0.00  0.00    +0.000 C 
ATOM     10  H   UNL     1      51.031  18.780  80.303  0.00  0.00    +0.000 HD
ENDROOT
BRANCH   4  12
ATOM     11  O   UNL     1      52.929  20.879  76.132  0.00  0.00    +0.000 OA
ATOM     12  C   UNL     1      52.934  21.558  77.357  0.00  0.00    +0.000 C 
ATOM     13  C   UNL     1      53.146  22.938  77.098  0.00  0.00    +0.000 C 
ATOM     14  C   UNL     1      53.327  23.484  75.681  0.00  0.00    +0.000 C 
ATOM     15  C   UNL     1      53.137  21.992  75.418  0.00  0.00    +0.000 C 
ENDBRANCH   4  12
TORSDOF 1
ENDMDL
MODEL 8
REMARK VINA RESULT:      -4.1      3.395      5.454
REMARK  Name = 71369791_5FluoroDione.pdbqt.pdb
REMARK  1 active torsions:
REMARK  status: ('A' for Active; 'I' for Inactive)
REMARK    1  A    between atoms: N_4  and  C_12
REMARK                            x       y       z     vdW  Elec       q    Type
REMARK                         _______ _______ _______ _____ _____    ______ ____
ROOT
ATOM      1  F   UNL     1      42.802  27.117  83.749  0.00  0.00    +0.000 F 
ATOM      2  O   UNL     1      45.593  22.456  83.354  0.00  0.00    +0.000 OA
ATOM      3  O   UNL     1      41.970  24.971  82.096  0.00  0.00    +0.000 OA
ATOM      4  N   UNL     1      45.556  24.703  84.088  0.00  0.00    +0.000 N 
ATOM      5  N   UNL     1      43.866  23.810  82.700  0.00  0.00    +0.000 N 
ATOM      6  C   UNL     1      44.832  25.837  84.014  0.00  0.00    +0.000 C 
ATOM      7  C   UNL     1      43.639  26.145  83.349  0.00  0.00    +0.000 C 
ATOM      8  C   UNL     1      45.077  23.569  83.393  0.00  0.00    +0.000 C 
ATOM      9  C   UNL     1      43.062  24.958  82.651  0.00  0.00    +0.000 C 
ATOM     10  H   UNL     1      43.485  23.000  82.232  0.00  0.00    +0.000 HD
ENDROOT
BRANCH   4  12
ATOM     11  O   UNL     1      46.793  24.110  86.092  0.00  0.00    +0.000 OA
ATOM     12  C   UNL     1      46.705  24.705  84.828  0.00  0.00    +0.000 C 
ATOM     13  C   UNL     1      47.970  25.267  84.514  0.00  0.00    +0.000 C 
ATOM     14  C   UNL     1      49.162  25.180  85.469  0.00  0.00    +0.000 C 
ATOM     15  C   UNL     1      48.079  24.444  86.254  0.00  0.00    +0.000 C 
ENDBRANCH   4  12
TORSDOF 1
ENDMDL
MODEL 9
REMARK VINA RESULT:      -4.1      9.654     10.723
REMARK  Name = 71369791_5FluoroDione.pdbqt.pdb
REMARK  1 active torsions:
REMARK  status: ('A' for Active; 'I' for Inactive)
REMARK    1  A    between atoms: N_4  and  C_12
REMARK                            x       y       z     vdW  Elec       q    Type
REMARK                         _______ _______ _______ _____ _____    ______ ____
ROOT
ATOM      1  F   UNL     1      40.068  36.553  83.597  0.00  0.00    +0.000 F 
ATOM      2  O   UNL     1      45.271  35.854  82.146  0.00  0.00    +0.000 OA
ATOM      3  O   UNL     1      42.015  35.480  85.354  0.00  0.00    +0.000 OA
ATOM      4  N   UNL     1      43.054  36.310  81.464  0.00  0.00    +0.000 N 
ATOM      5  N   UNL     1      43.571  35.607  83.659  0.00  0.00    +0.000 N 
ATOM      6  C   UNL     1      41.784  36.332  81.913  0.00  0.00    +0.000 C 
ATOM      7  C   UNL     1      41.226  36.030  83.161  0.00  0.00    +0.000 C 
ATOM      8  C   UNL     1      44.067  35.923  82.371  0.00  0.00    +0.000 C 
ATOM      9  C   UNL     1      42.267  35.676  84.171  0.00  0.00    +0.000 C 
ATOM     10  H   UNL     1      44.284  35.369  84.334  0.00  0.00    +0.000 HD
ENDROOT
BRANCH   4  12
ATOM     11  O   UNL     1      42.812  35.927  79.078  0.00  0.00    +0.000 OA
ATOM     12  C   UNL     1      43.298  36.662  80.166  0.00  0.00    +0.000 C 
ATOM     13  C   UNL     1      44.039  37.763  79.662  0.00  0.00    +0.000 C 
ATOM     14  C   UNL     1      44.215  38.011  78.163  0.00  0.00    +0.000 C 
ATOM     15  C   UNL     1      43.365  36.742  78.172  0.00  0.00    +0.000 C 
ENDBRANCH   4  12
TORSDOF 1
ENDMDL
