MODEL 1
REMARK VINA RESULT:      -3.3      0.000      0.000
REMARK  Name = 7288_3Pentanone.pdbqt.pdb
REMARK  2 active torsions:
REMARK  status: ('A' for Active; 'I' for Inactive)
REMARK    1  A    between atoms: C_2  and  C_3
REMARK    2  A    between atoms: C_2  and  C_5
REMARK                            x       y       z     vdW  Elec       q    Type
REMARK                         _______ _______ _______ _____ _____    ______ ____
ROOT
ATOM      1  O   UNL     1      54.926  34.300  76.964  0.00  0.00    +0.000 OA
ATOM      2  C   UNL     1      55.470  35.061  77.756  0.00  0.00    +0.000 C 
ENDROOT
BRANCH   2   3
ATOM      3  C   UNL     1      55.391  36.492  77.580  0.00  0.00    +0.000 C 
ATOM      4  C   UNL     1      55.287  38.020  77.408  0.00  0.00    +0.000 C 
ENDBRANCH   2   3
BRANCH   2   5
ATOM      5  C   UNL     1      56.206  34.551  78.888  0.00  0.00    +0.000 C 
ATOM      6  C   UNL     1      56.983  34.023  80.111  0.00  0.00    +0.000 C 
ENDBRANCH   2   5
TORSDOF 2
ENDMDL
MODEL 2
REMARK VINA RESULT:      -3.3      0.036      3.279
REMARK  Name = 7288_3Pentanone.pdbqt.pdb
REMARK  2 active torsions:
REMARK  status: ('A' for Active; 'I' for Inactive)
REMARK    1  A    between atoms: C_2  and  C_3
REMARK    2  A    between atoms: C_2  and  C_5
REMARK                            x       y       z     vdW  Elec       q    Type
REMARK                         _______ _______ _______ _____ _____    ______ ____
ROOT
ATOM      1  O   UNL     1      54.924  34.284  76.961  0.00  0.00    +0.000 OA
ATOM      2  C   UNL     1      55.468  35.038  77.759  0.00  0.00    +0.000 C 
ENDROOT
BRANCH   2   3
ATOM      3  C   UNL     1      56.201  34.518  78.889  0.00  0.00    +0.000 C 
ATOM      4  C   UNL     1      56.998  33.982  80.094  0.00  0.00    +0.000 C 
ENDBRANCH   2   3
BRANCH   2   5
ATOM      5  C   UNL     1      55.393  36.471  77.594  0.00  0.00    +0.000 C 
ATOM      6  C   UNL     1      55.337  38.001  77.416  0.00  0.00    +0.000 C 
ENDBRANCH   2   5
TORSDOF 2
ENDMDL
MODEL 3
REMARK VINA RESULT:      -3.1      2.593      3.282
REMARK  Name = 7288_3Pentanone.pdbqt.pdb
REMARK  2 active torsions:
REMARK  status: ('A' for Active; 'I' for Inactive)
REMARK    1  A    between atoms: C_2  and  C_3
REMARK    2  A    between atoms: C_2  and  C_5
REMARK                            x       y       z     vdW  Elec       q    Type
REMARK                         _______ _______ _______ _____ _____    ______ ____
ROOT
ATOM      1  O   UNL     1      56.234  35.905  81.427  0.00  0.00    +0.000 OA
ATOM      2  C   UNL     1      56.568  34.973  80.705  0.00  0.00    +0.000 C 
ENDROOT
BRANCH   2   3
ATOM      3  C   UNL     1      56.044  34.849  79.365  0.00  0.00    +0.000 C 
ATOM      4  C   UNL     1      55.481  34.740  77.935  0.00  0.00    +0.000 C 
ENDBRANCH   2   3
BRANCH   2   5
ATOM      5  C   UNL     1      57.495  33.970  81.171  0.00  0.00    +0.000 C 
ATOM      6  C   UNL     1      58.482  32.886  81.649  0.00  0.00    +0.000 C 
ENDBRANCH   2   5
TORSDOF 2
ENDMDL
MODEL 4
REMARK VINA RESULT:      -3.1      2.583      4.490
REMARK  Name = 7288_3Pentanone.pdbqt.pdb
REMARK  2 active torsions:
REMARK  status: ('A' for Active; 'I' for Inactive)
REMARK    1  A    between atoms: C_2  and  C_3
REMARK    2  A    between atoms: C_2  and  C_5
REMARK                            x       y       z     vdW  Elec       q    Type
REMARK                         _______ _______ _______ _____ _____    ______ ____
ROOT
ATOM      1  O   UNL     1      56.262  35.942  81.472  0.00  0.00    +0.000 OA
ATOM      2  C   UNL     1      56.576  35.016  80.734  0.00  0.00    +0.000 C 
ENDROOT
BRANCH   2   3
ATOM      3  C   UNL     1      57.490  33.991  81.180  0.00  0.00    +0.000 C 
ATOM      4  C   UNL     1      58.452  32.894  81.675  0.00  0.00    +0.000 C 
ENDBRANCH   2   3
BRANCH   2   5
ATOM      5  C   UNL     1      56.042  34.921  79.396  0.00  0.00    +0.000 C 
ATOM      6  C   UNL     1      55.480  34.841  77.963  0.00  0.00    +0.000 C 
ENDBRANCH   2   5
TORSDOF 2
ENDMDL
MODEL 5
REMARK VINA RESULT:      -2.9      1.651      2.262
REMARK  Name = 7288_3Pentanone.pdbqt.pdb
REMARK  2 active torsions:
REMARK  status: ('A' for Active; 'I' for Inactive)
REMARK    1  A    between atoms: C_2  and  C_3
REMARK    2  A    between atoms: C_2  and  C_5
REMARK                            x       y       z     vdW  Elec       q    Type
REMARK                         _______ _______ _______ _____ _____    ______ ____
ROOT
ATOM      1  O   UNL     1      54.195  36.963  75.967  0.00  0.00    +0.000 OA
ATOM      2  C   UNL     1      55.127  36.998  76.761  0.00  0.00    +0.000 C 
ENDROOT
BRANCH   2   3
ATOM      3  C   UNL     1      56.035  38.121  76.789  0.00  0.00    +0.000 C 
ATOM      4  C   UNL     1      56.986  39.333  76.830  0.00  0.00    +0.000 C 
ENDBRANCH   2   3
BRANCH   2   5
ATOM      5  C   UNL     1      55.348  35.918  77.693  0.00  0.00    +0.000 C 
ATOM      6  C   UNL     1      55.564  34.771  78.700  0.00  0.00    +0.000 C 
ENDBRANCH   2   5
TORSDOF 2
ENDMDL
MODEL 6
REMARK VINA RESULT:      -2.9      2.448      3.197
REMARK  Name = 7288_3Pentanone.pdbqt.pdb
REMARK  2 active torsions:
REMARK  status: ('A' for Active; 'I' for Inactive)
REMARK    1  A    between atoms: C_2  and  C_3
REMARK    2  A    between atoms: C_2  and  C_5
REMARK                            x       y       z     vdW  Elec       q    Type
REMARK                         _______ _______ _______ _____ _____    ______ ____
ROOT
ATOM      1  O   UNL     1      59.074  34.432  78.472  0.00  0.00    +0.000 OA
ATOM      2  C   UNL     1      58.121  34.257  79.222  0.00  0.00    +0.000 C 
ENDROOT
BRANCH   2   3
ATOM      3  C   UNL     1      56.778  34.576  78.801  0.00  0.00    +0.000 C 
ATOM      4  C   UNL     1      55.337  34.920  78.375  0.00  0.00    +0.000 C 
ENDBRANCH   2   3
BRANCH   2   5
ATOM      5  C   UNL     1      58.312  33.726  80.551  0.00  0.00    +0.000 C 
ATOM      6  C   UNL     1      58.496  33.145  81.968  0.00  0.00    +0.000 C 
ENDBRANCH   2   5
TORSDOF 2
ENDMDL
MODEL 7
REMARK VINA RESULT:      -2.9      2.438      4.398
REMARK  Name = 7288_3Pentanone.pdbqt.pdb
REMARK  2 active torsions:
REMARK  status: ('A' for Active; 'I' for Inactive)
REMARK    1  A    between atoms: C_2  and  C_3
REMARK    2  A    between atoms: C_2  and  C_5
REMARK                            x       y       z     vdW  Elec       q    Type
REMARK                         _______ _______ _______ _____ _____    ______ ____
ROOT
ATOM      1  O   UNL     1      59.071  34.431  78.464  0.00  0.00    +0.000 OA
ATOM      2  C   UNL     1      58.118  34.258  79.215  0.00  0.00    +0.000 C 
ENDROOT
BRANCH   2   3
ATOM      3  C   UNL     1      58.310  33.732  80.546  0.00  0.00    +0.000 C 
ATOM      4  C   UNL     1      58.517  33.148  81.957  0.00  0.00    +0.000 C 
ENDBRANCH   2   3
BRANCH   2   5
ATOM      5  C   UNL     1      56.775  34.575  78.793  0.00  0.00    +0.000 C 
ATOM      6  C   UNL     1      55.347  34.916  78.320  0.00  0.00    +0.000 C 
ENDBRANCH   2   5
TORSDOF 2
ENDMDL
MODEL 8
REMARK VINA RESULT:      -2.9      2.298      3.590
REMARK  Name = 7288_3Pentanone.pdbqt.pdb
REMARK  2 active torsions:
REMARK  status: ('A' for Active; 'I' for Inactive)
REMARK    1  A    between atoms: C_2  and  C_3
REMARK    2  A    between atoms: C_2  and  C_5
REMARK                            x       y       z     vdW  Elec       q    Type
REMARK                         _______ _______ _______ _____ _____    ______ ____
ROOT
ATOM      1  O   UNL     1      54.371  36.984  76.110  0.00  0.00    +0.000 OA
ATOM      2  C   UNL     1      55.334  36.265  76.349  0.00  0.00    +0.000 C 
ENDROOT
BRANCH   2   3
ATOM      3  C   UNL     1      55.425  35.537  77.592  0.00  0.00    +0.000 C 
ATOM      4  C   UNL     1      55.546  34.765  78.921  0.00  0.00    +0.000 C 
ENDBRANCH   2   3
BRANCH   2   5
ATOM      5  C   UNL     1      56.408  36.124  75.394  0.00  0.00    +0.000 C 
ATOM      6  C   UNL     1      57.563  35.996  74.381  0.00  0.00    +0.000 C 
ENDBRANCH   2   5
TORSDOF 2
ENDMDL
MODEL 9
REMARK VINA RESULT:      -2.9      2.356      2.912
REMARK  Name = 7288_3Pentanone.pdbqt.pdb
REMARK  2 active torsions:
REMARK  status: ('A' for Active; 'I' for Inactive)
REMARK    1  A    between atoms: C_2  and  C_3
REMARK    2  A    between atoms: C_2  and  C_5
REMARK                            x       y       z     vdW  Elec       q    Type
REMARK                         _______ _______ _______ _____ _____    ______ ____
ROOT
ATOM      1  O   UNL     1      54.221  36.954  75.912  0.00  0.00    +0.000 OA
ATOM      2  C   UNL     1      55.302  36.581  76.353  0.00  0.00    +0.000 C 
ENDROOT
BRANCH   2   3
ATOM      3  C   UNL     1      56.361  36.166  75.464  0.00  0.00    +0.000 C 
ATOM      4  C   UNL     1      57.490  35.745  74.503  0.00  0.00    +0.000 C 
ENDBRANCH   2   3
BRANCH   2   5
ATOM      5  C   UNL     1      55.550  36.545  77.774  0.00  0.00    +0.000 C 
ATOM      6  C   UNL     1      55.794  36.517  79.297  0.00  0.00    +0.000 C 
ENDBRANCH   2   5
TORSDOF 2
ENDMDL
