MODEL 1
REMARK VINA RESULT:      -6.2      0.000      0.000
REMARK  Name = 73299_Hederagenin.pdbqt.pdb
REMARK  5 active torsions:
REMARK  status: ('A' for Active; 'I' for Inactive)
REMARK    1  A    between atoms: C_9  and  C_35
REMARK    2  A    between atoms: C_14  and  C_32
REMARK    3  A    between atoms: C_17  and  O_29
REMARK    4  A    between atoms: C_32  and  O_33
REMARK    5  A    between atoms: C_35  and  O_36
REMARK                            x       y       z     vdW  Elec       q    Type
REMARK                         _______ _______ _______ _____ _____    ______ ____
ROOT
ATOM      1  C   UNL     1      43.619  24.965  84.575  0.00  0.00    +0.000 C 
ATOM      2  C   UNL     1      43.407  26.333  85.348  0.00  0.00    +0.000 C 
ATOM      3  C   UNL     1      44.523  27.051  86.115  0.00  0.00    +0.000 C 
ATOM      4  C   UNL     1      42.337  23.934  84.765  0.00  0.00    +0.000 C 
ATOM      5  C   UNL     1      45.595  26.158  86.806  0.00  0.00    +0.000 C 
ATOM      6  C   UNL     1      44.848  24.390  85.133  0.00  0.00    +0.000 C 
ATOM      7  C   UNL     1      45.794  24.902  86.167  0.00  0.00    +0.000 C 
ATOM      8  C   UNL     1      40.914  24.668  84.492  0.00  0.00    +0.000 C 
ATOM      9  C   UNL     1      46.183  26.471  88.192  0.00  0.00    +0.000 C 
ATOM     10  C   UNL     1      39.784  24.070  83.747  0.00  0.00    +0.000 C 
ATOM     11  C   UNL     1      42.044  26.768  85.316  0.00  0.00    +0.000 C 
ATOM     12  C   UNL     1      43.947  27.853  87.190  0.00  0.00    +0.000 C 
ATOM     13  C   UNL     1      42.336  22.813  83.807  0.00  0.00    +0.000 C 
ATOM     14  C   UNL     1      39.987  22.975  82.529  0.00  0.00    +0.000 C 
ATOM     15  C   UNL     1      43.838  25.333  83.051  0.00  0.00    +0.000 C 
ATOM     16  C   UNL     1      41.280  22.358  82.827  0.00  0.00    +0.000 C 
ATOM     17  C   UNL     1      45.626  27.696  88.966  0.00  0.00    +0.000 C 
ATOM     18  C   UNL     1      40.892  25.915  84.867  0.00  0.00    +0.000 C 
ATOM     19  C   UNL     1      45.266  27.969  85.111  0.00  0.00    +0.000 C 
ATOM     20  C   UNL     1      44.390  28.233  88.563  0.00  0.00    +0.000 C 
ATOM     21  C   UNL     1      42.234  23.369  86.248  0.00  0.00    +0.000 C 
ATOM     22  C   UNL     1      38.481  24.007  84.409  0.00  0.00    +0.000 C 
ATOM     23  C   UNL     1      38.803  22.082  82.645  0.00  0.00    +0.000 C 
ATOM     24  C   UNL     1      37.199  23.217  84.540  0.00  0.00    +0.000 C 
ATOM     25  C   UNL     1      47.730  26.659  88.050  0.00  0.00    +0.000 C 
ATOM     26  C   UNL     1      37.525  22.169  83.519  0.00  0.00    +0.000 C 
ATOM     27  C   UNL     1      37.057  22.617  85.951  0.00  0.00    +0.000 C 
ATOM     28  C   UNL     1      35.976  24.056  84.132  0.00  0.00    +0.000 C 
ENDROOT
BRANCH  17  29
ATOM     29  O   UNL     1      46.433  28.436  89.813  0.00  0.00    +0.000 OA
ATOM     30  H   UNL     1      46.656  29.302  89.413  0.00  0.00    +0.000 HD
ENDBRANCH  17  29
BRANCH  14  32
ATOM     31  O   UNL     1      40.340  24.900  81.034  0.00  0.00    +0.000 OA
ATOM     32  C   UNL     1      39.967  23.747  81.205  0.00  0.00    +0.000 C 
BRANCH  32  33
ATOM     33  O   UNL     1      39.413  23.071  80.174  0.00  0.00    +0.000 OA
ATOM     34  H   UNL     1      40.170  22.790  79.616  0.00  0.00    +0.000 HD
ENDBRANCH  32  33
ENDBRANCH  14  32
BRANCH   9  35
ATOM     35  C   UNL     1      45.908  25.294  89.076  0.00  0.00    +0.000 C 
BRANCH  35  36
ATOM     36  O   UNL     1      45.664  24.235  89.853  0.00  0.00    +0.000 OA
ATOM     37  H   UNL     1      46.255  24.226  90.628  0.00  0.00    +0.000 HD
ENDBRANCH  35  36
ENDBRANCH   9  35
TORSDOF 5
ENDMDL
MODEL 2
REMARK VINA RESULT:      -5.8     24.902     26.978
REMARK  Name = 73299_Hederagenin.pdbqt.pdb
REMARK  5 active torsions:
REMARK  status: ('A' for Active; 'I' for Inactive)
REMARK    1  A    between atoms: C_9  and  C_35
REMARK    2  A    between atoms: C_14  and  C_32
REMARK    3  A    between atoms: C_17  and  O_29
REMARK    4  A    between atoms: C_32  and  O_33
REMARK    5  A    between atoms: C_35  and  O_36
REMARK                            x       y       z     vdW  Elec       q    Type
REMARK                         _______ _______ _______ _____ _____    ______ ____
ROOT
ATOM      1  C   UNL     1      20.396  12.028  82.892  0.00  0.00    +0.000 C 
ATOM      2  C   UNL     1      18.828  12.021  83.129  0.00  0.00    +0.000 C 
ATOM      3  C   UNL     1      17.996  13.296  83.309  0.00  0.00    +0.000 C 
ATOM      4  C   UNL     1      21.160  10.820  83.728  0.00  0.00    +0.000 C 
ATOM      5  C   UNL     1      18.683  14.494  84.026  0.00  0.00    +0.000 C 
ATOM      6  C   UNL     1      20.851  13.350  83.336  0.00  0.00    +0.000 C 
ATOM      7  C   UNL     1      20.097  14.522  83.871  0.00  0.00    +0.000 C 
ATOM      8  C   UNL     1      20.437   9.380  83.524  0.00  0.00    +0.000 C 
ATOM      9  C   UNL     1      17.954  15.403  85.030  0.00  0.00    +0.000 C 
ATOM     10  C   UNL     1      21.149   8.099  83.323  0.00  0.00    +0.000 C 
ATOM     11  C   UNL     1      18.303  10.695  83.240  0.00  0.00    +0.000 C 
ATOM     12  C   UNL     1      16.811  13.003  84.109  0.00  0.00    +0.000 C 
ATOM     13  C   UNL     1      22.544  10.578  83.279  0.00  0.00    +0.000 C 
ATOM     14  C   UNL     1      22.621   7.992  82.585  0.00  0.00    +0.000 C 
ATOM     15  C   UNL     1      20.620  11.876  81.332  0.00  0.00    +0.000 C 
ATOM     16  C   UNL     1      23.213   9.313  82.797  0.00  0.00    +0.000 C 
ATOM     17  C   UNL     1      16.486  15.060  85.398  0.00  0.00    +0.000 C 
ATOM     18  C   UNL     1      19.143   9.461  83.406  0.00  0.00    +0.000 C 
ATOM     19  C   UNL     1      17.574  13.782  81.898  0.00  0.00    +0.000 C 
ATOM     20  C   UNL     1      16.010  13.768  85.109  0.00  0.00    +0.000 C 
ATOM     21  C   UNL     1      21.145  11.073  85.298  0.00  0.00    +0.000 C 
ATOM     22  C   UNL     1      20.843   6.993  84.232  0.00  0.00    +0.000 C 
ATOM     23  C   UNL     1      23.293   6.862  83.282  0.00  0.00    +0.000 C 
ATOM     24  C   UNL     1      21.406   5.774  84.926  0.00  0.00    +0.000 C 
ATOM     25  C   UNL     1      17.982  16.871  84.490  0.00  0.00    +0.000 C 
ATOM     26  C   UNL     1      22.775   5.834  84.321  0.00  0.00    +0.000 C 
ATOM     27  C   UNL     1      21.444   5.971  86.452  0.00  0.00    +0.000 C 
ATOM     28  C   UNL     1      20.652   4.496  84.518  0.00  0.00    +0.000 C 
ENDROOT
BRANCH  17  29
ATOM     29  O   UNL     1      15.574  16.054  85.709  0.00  0.00    +0.000 OA
ATOM     30  H   UNL     1      14.661  15.769  85.496  0.00  0.00    +0.000 HD
ENDBRANCH  17  29
BRANCH  14  32
ATOM     31  O   UNL     1      22.606   6.589  80.561  0.00  0.00    +0.000 OA
ATOM     32  C   UNL     1      22.375   7.659  81.109  0.00  0.00    +0.000 C 
BRANCH  32  33
ATOM     33  O   UNL     1      21.922   8.697  80.371  0.00  0.00    +0.000 OA
ATOM     34  H   UNL     1      21.025   8.887  80.720  0.00  0.00    +0.000 HD
ENDBRANCH  32  33
ENDBRANCH  14  32
BRANCH   9  35
ATOM     35  C   UNL     1      18.704  15.339  86.324  0.00  0.00    +0.000 C 
BRANCH  35  36
ATOM     36  O   UNL     1      19.364  15.271  87.484  0.00  0.00    +0.000 OA
ATOM     37  H   UNL     1      19.963  14.501  87.502  0.00  0.00    +0.000 HD
ENDBRANCH  35  36
ENDBRANCH   9  35
TORSDOF 5
ENDMDL
MODEL 3
REMARK VINA RESULT:      -5.7      2.379      8.136
REMARK  Name = 73299_Hederagenin.pdbqt.pdb
REMARK  5 active torsions:
REMARK  status: ('A' for Active; 'I' for Inactive)
REMARK    1  A    between atoms: C_9  and  C_35
REMARK    2  A    between atoms: C_14  and  C_32
REMARK    3  A    between atoms: C_17  and  O_29
REMARK    4  A    between atoms: C_32  and  O_33
REMARK    5  A    between atoms: C_35  and  O_36
REMARK                            x       y       z     vdW  Elec       q    Type
REMARK                         _______ _______ _______ _____ _____    ______ ____
ROOT
ATOM      1  C   UNL     1      42.137  24.165  83.445  0.00  0.00    +0.000 C 
ATOM      2  C   UNL     1      41.626  22.907  84.265  0.00  0.00    +0.000 C 
ATOM      3  C   UNL     1      40.389  22.091  83.873  0.00  0.00    +0.000 C 
ATOM      4  C   UNL     1      42.654  25.388  84.435  0.00  0.00    +0.000 C 
ATOM      5  C   UNL     1      39.213  22.862  83.207  0.00  0.00    +0.000 C 
ATOM      6  C   UNL     1      40.993  24.589  82.630  0.00  0.00    +0.000 C 
ATOM      7  C   UNL     1      39.621  24.021  82.489  0.00  0.00    +0.000 C 
ATOM      8  C   UNL     1      43.666  24.858  85.590  0.00  0.00    +0.000 C 
ATOM      9  C   UNL     1      37.735  22.571  83.515  0.00  0.00    +0.000 C 
ATOM     10  C   UNL     1      44.893  25.560  86.024  0.00  0.00    +0.000 C 
ATOM     11  C   UNL     1      42.397  22.681  85.448  0.00  0.00    +0.000 C 
ATOM     12  C   UNL     1      39.811  21.469  85.061  0.00  0.00    +0.000 C 
ATOM     13  C   UNL     1      43.440  26.420  83.734  0.00  0.00    +0.000 C 
ATOM     14  C   UNL     1      45.788  26.516  85.020  0.00  0.00    +0.000 C 
ATOM     15  C   UNL     1      43.306  23.652  82.509  0.00  0.00    +0.000 C 
ATOM     16  C   UNL     1      44.828  26.952  84.006  0.00  0.00    +0.000 C 
ATOM     17  C   UNL     1      37.407  21.507  84.597  0.00  0.00    +0.000 C 
ATOM     18  C   UNL     1      43.384  23.661  86.018  0.00  0.00    +0.000 C 
ATOM     19  C   UNL     1      40.847  20.997  82.875  0.00  0.00    +0.000 C 
ATOM     20  C   UNL     1      38.423  21.133  85.494  0.00  0.00    +0.000 C 
ATOM     21  C   UNL     1      41.453  26.074  85.220  0.00  0.00    +0.000 C 
ATOM     22  C   UNL     1      45.040  25.869  87.447  0.00  0.00    +0.000 C 
ATOM     23  C   UNL     1      46.317  27.583  85.912  0.00  0.00    +0.000 C 
ATOM     24  C   UNL     1      45.610  26.851  88.445  0.00  0.00    +0.000 C 
ATOM     25  C   UNL     1      37.021  22.143  82.191  0.00  0.00    +0.000 C 
ATOM     26  C   UNL     1      46.274  27.756  87.452  0.00  0.00    +0.000 C 
ATOM     27  C   UNL     1      44.491  27.572  89.218  0.00  0.00    +0.000 C 
ATOM     28  C   UNL     1      46.629  26.177  89.380  0.00  0.00    +0.000 C 
ENDROOT
BRANCH  17  29
ATOM     29  O   UNL     1      36.271  20.721  84.507  0.00  0.00    +0.000 OA
ATOM     30  H   UNL     1      35.482  21.269  84.311  0.00  0.00    +0.000 HD
ENDBRANCH  17  29
BRANCH  14  32
ATOM     31  O   UNL     1      47.977  25.387  85.024  0.00  0.00    +0.000 OA
ATOM     32  C   UNL     1      46.926  25.656  84.457  0.00  0.00    +0.000 C 
BRANCH  32  33
ATOM     33  O   UNL     1      46.732  25.236  83.187  0.00  0.00    +0.000 OA
ATOM     34  H   UNL     1      45.889  24.735  83.210  0.00  0.00    +0.000 HD
ENDBRANCH  32  33
ENDBRANCH  14  32
BRANCH   9  35
ATOM     35  C   UNL     1      37.120  23.840  84.019  0.00  0.00    +0.000 C 
BRANCH  35  36
ATOM     36  O   UNL     1      36.585  24.978  84.469  0.00  0.00    +0.000 OA
ATOM     37  H   UNL     1      36.632  25.680  83.793  0.00  0.00    +0.000 HD
ENDBRANCH  35  36
ENDBRANCH   9  35
TORSDOF 5
ENDMDL
MODEL 4
REMARK VINA RESULT:      -5.7      4.602      9.312
REMARK  Name = 73299_Hederagenin.pdbqt.pdb
REMARK  5 active torsions:
REMARK  status: ('A' for Active; 'I' for Inactive)
REMARK    1  A    between atoms: C_9  and  C_35
REMARK    2  A    between atoms: C_14  and  C_32
REMARK    3  A    between atoms: C_17  and  O_29
REMARK    4  A    between atoms: C_32  and  O_33
REMARK    5  A    between atoms: C_35  and  O_36
REMARK                            x       y       z     vdW  Elec       q    Type
REMARK                         _______ _______ _______ _____ _____    ______ ____
ROOT
ATOM      1  C   UNL     1      47.943  24.729  85.815  0.00  0.00    +0.000 C 
ATOM      2  C   UNL     1      47.203  24.093  84.565  0.00  0.00    +0.000 C 
ATOM      3  C   UNL     1      46.109  24.818  83.773  0.00  0.00    +0.000 C 
ATOM      4  C   UNL     1      48.187  23.625  87.025  0.00  0.00    +0.000 C 
ATOM      5  C   UNL     1      45.177  25.777  84.569  0.00  0.00    +0.000 C 
ATOM      6  C   UNL     1      47.076  25.825  86.263  0.00  0.00    +0.000 C 
ATOM      7  C   UNL     1      45.787  26.345  85.722  0.00  0.00    +0.000 C 
ATOM      8  C   UNL     1      48.831  22.240  86.472  0.00  0.00    +0.000 C 
ATOM      9  C   UNL     1      43.666  25.892  84.305  0.00  0.00    +0.000 C 
ATOM     10  C   UNL     1      49.902  21.478  87.150  0.00  0.00    +0.000 C 
ATOM     11  C   UNL     1      47.613  22.744  84.321  0.00  0.00    +0.000 C 
ATOM     12  C   UNL     1      45.214  23.841  83.159  0.00  0.00    +0.000 C 
ATOM     13  C   UNL     1      49.154  24.073  88.044  0.00  0.00    +0.000 C 
ATOM     14  C   UNL     1      51.056  22.188  88.092  0.00  0.00    +0.000 C 
ATOM     15  C   UNL     1      49.316  25.309  85.283  0.00  0.00    +0.000 C 
ATOM     16  C   UNL     1      50.421  23.424  88.549  0.00  0.00    +0.000 C 
ATOM     17  C   UNL     1      43.033  24.951  83.244  0.00  0.00    +0.000 C 
ATOM     18  C   UNL     1      48.421  21.916  85.280  0.00  0.00    +0.000 C 
ATOM     19  C   UNL     1      46.806  25.659  82.674  0.00  0.00    +0.000 C 
ATOM     20  C   UNL     1      43.755  23.811  82.848  0.00  0.00    +0.000 C 
ATOM     21  C   UNL     1      46.828  23.198  87.732  0.00  0.00    +0.000 C 
ATOM     22  C   UNL     1      49.655  20.067  87.452  0.00  0.00    +0.000 C 
ATOM     23  C   UNL     1      51.336  21.176  89.146  0.00  0.00    +0.000 C 
ATOM     24  C   UNL     1      49.944  18.943  88.420  0.00  0.00    +0.000 C 
ATOM     25  C   UNL     1      43.339  27.365  83.894  0.00  0.00    +0.000 C 
ATOM     26  C   UNL     1      50.872  19.706  89.316  0.00  0.00    +0.000 C 
ATOM     27  C   UNL     1      48.667  18.503  89.159  0.00  0.00    +0.000 C 
ATOM     28  C   UNL     1      50.653  17.768  87.724  0.00  0.00    +0.000 C 
ENDROOT
BRANCH  17  29
ATOM     29  O   UNL     1      41.953  25.358  82.480  0.00  0.00    +0.000 OA
ATOM     30  H   UNL     1      41.339  24.611  82.319  0.00  0.00    +0.000 HD
ENDBRANCH  17  29
BRANCH  14  32
ATOM     31  O   UNL     1      53.458  22.271  87.550  0.00  0.00    +0.000 OA
ATOM     32  C   UNL     1      52.291  22.421  87.212  0.00  0.00    +0.000 C 
BRANCH  32  33
ATOM     33  O   UNL     1      52.014  22.901  85.980  0.00  0.00    +0.000 OA
ATOM     34  H   UNL     1      52.531  23.732  85.907  0.00  0.00    +0.000 HD
ENDBRANCH  32  33
ENDBRANCH  14  32
BRANCH   9  35
ATOM     35  C   UNL     1      42.958  25.567  85.584  0.00  0.00    +0.000 C 
BRANCH  35  36
ATOM     36  O   UNL     1      42.318  25.268  86.717  0.00  0.00    +0.000 OA
ATOM     37  H   UNL     1      42.882  25.437  87.494  0.00  0.00    +0.000 HD
ENDBRANCH  35  36
ENDBRANCH   9  35
TORSDOF 5
ENDMDL
MODEL 5
REMARK VINA RESULT:      -5.6     25.045     27.391
REMARK  Name = 73299_Hederagenin.pdbqt.pdb
REMARK  5 active torsions:
REMARK  status: ('A' for Active; 'I' for Inactive)
REMARK    1  A    between atoms: C_9  and  C_35
REMARK    2  A    between atoms: C_14  and  C_32
REMARK    3  A    between atoms: C_17  and  O_29
REMARK    4  A    between atoms: C_32  and  O_33
REMARK    5  A    between atoms: C_35  and  O_36
REMARK                            x       y       z     vdW  Elec       q    Type
REMARK                         _______ _______ _______ _____ _____    ______ ____
ROOT
ATOM      1  C   UNL     1      21.721   9.531  84.124  0.00  0.00    +0.000 C 
ATOM      2  C   UNL     1      21.209   8.386  85.094  0.00  0.00    +0.000 C 
ATOM      3  C   UNL     1      22.085   7.738  86.171  0.00  0.00    +0.000 C 
ATOM      4  C   UNL     1      21.168   9.333  82.575  0.00  0.00    +0.000 C 
ATOM      5  C   UNL     1      23.602   7.592  85.856  0.00  0.00    +0.000 C 
ATOM      6  C   UNL     1      23.186   9.459  84.176  0.00  0.00    +0.000 C 
ATOM      7  C   UNL     1      24.100   8.578  84.959  0.00  0.00    +0.000 C 
ATOM      8  C   UNL     1      19.569   9.051  82.527  0.00  0.00    +0.000 C 
ATOM      9  C   UNL     1      24.426   6.353  86.246  0.00  0.00    +0.000 C 
ATOM     10  C   UNL     1      18.637   9.642  81.542  0.00  0.00    +0.000 C 
ATOM     11  C   UNL     1      19.873   7.975  84.789  0.00  0.00    +0.000 C 
ATOM     12  C   UNL     1      21.620   6.381  86.436  0.00  0.00    +0.000 C 
ATOM     13  C   UNL     1      21.332  10.533  81.734  0.00  0.00    +0.000 C 
ATOM     14  C   UNL     1      18.871  11.125  80.857  0.00  0.00    +0.000 C 
ATOM     15  C   UNL     1      21.226  10.903  84.739  0.00  0.00    +0.000 C 
ATOM     16  C   UNL     1      20.319  11.322  80.938  0.00  0.00    +0.000 C 
ATOM     17  C   UNL     1      23.689   5.165  86.920  0.00  0.00    +0.000 C 
ATOM     18  C   UNL     1      19.133   8.355  83.537  0.00  0.00    +0.000 C 
ATOM     19  C   UNL     1      21.962   8.599  87.455  0.00  0.00    +0.000 C 
ATOM     20  C   UNL     1      22.288   5.101  86.812  0.00  0.00    +0.000 C 
ATOM     21  C   UNL     1      21.832   8.081  81.855  0.00  0.00    +0.000 C 
ATOM     22  C   UNL     1      17.803   8.734  80.754  0.00  0.00    +0.000 C 
ATOM     23  C   UNL     1      18.314  10.982  79.485  0.00  0.00    +0.000 C 
ATOM     24  C   UNL     1      17.125   8.526  79.419  0.00  0.00    +0.000 C 
ATOM     25  C   UNL     1      25.584   6.800  87.198  0.00  0.00    +0.000 C 
ATOM     26  C   UNL     1      17.508   9.841  78.811  0.00  0.00    +0.000 C 
ATOM     27  C   UNL     1      17.747   7.341  78.658  0.00  0.00    +0.000 C 
ATOM     28  C   UNL     1      15.601   8.387  79.577  0.00  0.00    +0.000 C 
ENDROOT
BRANCH  17  29
ATOM     29  O   UNL     1      24.325   4.363  87.853  0.00  0.00    +0.000 OA
ATOM     30  H   UNL     1      24.679   4.901  88.592  0.00  0.00    +0.000 HD
ENDBRANCH  17  29
BRANCH  14  32
ATOM     31  O   UNL     1      18.517  13.127  82.247  0.00  0.00    +0.000 OA
ATOM     32  C   UNL     1      18.067  12.144  81.673  0.00  0.00    +0.000 C 
BRANCH  32  33
ATOM     33  O   UNL     1      16.754  11.847  81.797  0.00  0.00    +0.000 OA
ATOM     34  H   UNL     1      16.727  11.024  82.331  0.00  0.00    +0.000 HD
ENDBRANCH  32  33
ENDBRANCH  14  32
BRANCH   9  35
ATOM     35  C   UNL     1      25.011   5.785  84.990  0.00  0.00    +0.000 C 
BRANCH  35  36
ATOM     36  O   UNL     1      25.520   5.274  83.866  0.00  0.00    +0.000 OA
ATOM     37  H   UNL     1      24.873   4.698  83.419  0.00  0.00    +0.000 HD
ENDBRANCH  35  36
ENDBRANCH   9  35
TORSDOF 5
ENDMDL
MODEL 6
REMARK VINA RESULT:      -5.6     20.046     22.698
REMARK  Name = 73299_Hederagenin.pdbqt.pdb
REMARK  5 active torsions:
REMARK  status: ('A' for Active; 'I' for Inactive)
REMARK    1  A    between atoms: C_9  and  C_35
REMARK    2  A    between atoms: C_14  and  C_32
REMARK    3  A    between atoms: C_17  and  O_29
REMARK    4  A    between atoms: C_32  and  O_33
REMARK    5  A    between atoms: C_35  and  O_36
REMARK                            x       y       z     vdW  Elec       q    Type
REMARK                         _______ _______ _______ _____ _____    ______ ____
ROOT
ATOM      1  C   UNL     1      21.020  19.965  93.945  0.00  0.00    +0.000 C 
ATOM      2  C   UNL     1      22.402  19.703  94.679  0.00  0.00    +0.000 C 
ATOM      3  C   UNL     1      22.779  20.339  96.021  0.00  0.00    +0.000 C 
ATOM      4  C   UNL     1      21.204  20.130  92.308  0.00  0.00    +0.000 C 
ATOM      5  C   UNL     1      22.239  21.772  96.302  0.00  0.00    +0.000 C 
ATOM      6  C   UNL     1      20.489  21.195  94.545  0.00  0.00    +0.000 C 
ATOM      7  C   UNL     1      21.018  22.067  95.634  0.00  0.00    +0.000 C 
ATOM      8  C   UNL     1      22.110  18.942  91.670  0.00  0.00    +0.000 C 
ATOM      9  C   UNL     1      23.070  22.861  97.001  0.00  0.00    +0.000 C 
ATOM     10  C   UNL     1      21.821  18.252  90.393  0.00  0.00    +0.000 C 
ATOM     11  C   UNL     1      23.278  18.879  93.905  0.00  0.00    +0.000 C 
ATOM     12  C   UNL     1      24.230  20.453  96.124  0.00  0.00    +0.000 C 
ATOM     13  C   UNL     1      19.935  20.035  91.561  0.00  0.00    +0.000 C 
ATOM     14  C   UNL     1      20.291  18.037  89.812  0.00  0.00    +0.000 C 
ATOM     15  C   UNL     1      20.079  18.742  94.298  0.00  0.00    +0.000 C 
ATOM     16  C   UNL     1      19.529  19.125  90.425  0.00  0.00    +0.000 C 
ATOM     17  C   UNL     1      24.540  22.534  97.377  0.00  0.00    +0.000 C 
ATOM     18  C   UNL     1      23.061  18.533  92.459  0.00  0.00    +0.000 C 
ATOM     19  C   UNL     1      22.240  19.416  97.145  0.00  0.00    +0.000 C 
ATOM     20  C   UNL     1      25.159  21.436  96.754  0.00  0.00    +0.000 C 
ATOM     21  C   UNL     1      21.952  21.477  91.918  0.00  0.00    +0.000 C 
ATOM     22  C   UNL     1      22.868  18.230  89.372  0.00  0.00    +0.000 C 
ATOM     23  C   UNL     1      20.452  18.113  88.335  0.00  0.00    +0.000 C 
ATOM     24  C   UNL     1      23.142  18.221  87.885  0.00  0.00    +0.000 C 
ATOM     25  C   UNL     1      22.328  23.297  98.307  0.00  0.00    +0.000 C 
ATOM     26  C   UNL     1      21.714  18.176  87.435  0.00  0.00    +0.000 C 
ATOM     27  C   UNL     1      23.842  19.518  87.441  0.00  0.00    +0.000 C 
ATOM     28  C   UNL     1      23.918  16.961  87.463  0.00  0.00    +0.000 C 
ENDROOT
BRANCH  17  29
ATOM     29  O   UNL     1      25.133  23.088  98.499  0.00  0.00    +0.000 OA
ATOM     30  H   UNL     1      25.643  22.413  98.994  0.00  0.00    +0.000 HD
ENDBRANCH  17  29
BRANCH  14  32
ATOM     31  O   UNL     1      20.077  16.092  91.307  0.00  0.00    +0.000 OA
ATOM     32  C   UNL     1      19.824  16.642  90.243  0.00  0.00    +0.000 C 
BRANCH  32  33
ATOM     33  O   UNL     1      19.127  15.971  89.300  0.00  0.00    +0.000 OA
ATOM     34  H   UNL     1      18.258  15.779  89.712  0.00  0.00    +0.000 HD
ENDBRANCH  32  33
ENDBRANCH  14  32
BRANCH   9  35
ATOM     35  C   UNL     1      23.158  24.030  96.070  0.00  0.00    +0.000 C 
BRANCH  35  36
ATOM     36  O   UNL     1      23.235  25.064  95.228  0.00  0.00    +0.000 OA
ATOM     37  H   UNL     1      24.148  25.402  95.169  0.00  0.00    +0.000 HD
ENDBRANCH  35  36
ENDBRANCH   9  35
TORSDOF 5
ENDMDL
MODEL 7
REMARK VINA RESULT:      -5.5     20.499     26.482
REMARK  Name = 73299_Hederagenin.pdbqt.pdb
REMARK  5 active torsions:
REMARK  status: ('A' for Active; 'I' for Inactive)
REMARK    1  A    between atoms: C_9  and  C_35
REMARK    2  A    between atoms: C_14  and  C_32
REMARK    3  A    between atoms: C_17  and  O_29
REMARK    4  A    between atoms: C_32  and  O_33
REMARK    5  A    between atoms: C_35  and  O_36
REMARK                            x       y       z     vdW  Elec       q    Type
REMARK                         _______ _______ _______ _____ _____    ______ ____
ROOT
ATOM      1  C   UNL     1      22.350   7.974  86.179  0.00  0.00    +0.000 C 
ATOM      2  C   UNL     1      21.879   8.041  84.666  0.00  0.00    +0.000 C 
ATOM      3  C   UNL     1      20.892   7.047  84.044  0.00  0.00    +0.000 C 
ATOM      4  C   UNL     1      23.964   8.303  86.346  0.00  0.00    +0.000 C 
ATOM      5  C   UNL     1      20.936   5.583  84.570  0.00  0.00    +0.000 C 
ATOM      6  C   UNL     1      22.039   6.610  86.622  0.00  0.00    +0.000 C 
ATOM      7  C   UNL     1      21.389   5.469  85.914  0.00  0.00    +0.000 C 
ATOM      8  C   UNL     1      24.403   9.647  85.545  0.00  0.00    +0.000 C 
ATOM      9  C   UNL     1      20.777   4.356  83.656  0.00  0.00    +0.000 C 
ATOM     10  C   UNL     1      25.330  10.675  86.066  0.00  0.00    +0.000 C 
ATOM     11  C   UNL     1      22.544   9.077  83.937  0.00  0.00    +0.000 C 
ATOM     12  C   UNL     1      21.134   6.943  82.609  0.00  0.00    +0.000 C 
ATOM     13  C   UNL     1      24.367   8.583  87.737  0.00  0.00    +0.000 C 
ATOM     14  C   UNL     1      25.489  11.015  87.673  0.00  0.00    +0.000 C 
ATOM     15  C   UNL     1      21.466   9.016  86.977  0.00  0.00    +0.000 C 
ATOM     16  C   UNL     1      25.075   9.777  88.333  0.00  0.00    +0.000 C 
ATOM     17  C   UNL     1      20.639   4.593  82.128  0.00  0.00    +0.000 C 
ATOM     18  C   UNL     1      23.746   9.828  84.436  0.00  0.00    +0.000 C 
ATOM     19  C   UNL     1      19.461   7.585  84.301  0.00  0.00    +0.000 C 
ATOM     20  C   UNL     1      21.030   5.840  81.609  0.00  0.00    +0.000 C 
ATOM     21  C   UNL     1      24.879   7.148  85.748  0.00  0.00    +0.000 C 
ATOM     22  C   UNL     1      26.497  11.022  85.253  0.00  0.00    +0.000 C 
ATOM     23  C   UNL     1      26.923  11.381  87.825  0.00  0.00    +0.000 C 
ATOM     24  C   UNL     1      27.938  11.474  85.293  0.00  0.00    +0.000 C 
ATOM     25  C   UNL     1      19.530   3.537  84.128  0.00  0.00    +0.000 C 
ATOM     26  C   UNL     1      28.045  11.616  86.781  0.00  0.00    +0.000 C 
ATOM     27  C   UNL     1      28.879  10.382  84.752  0.00  0.00    +0.000 C 
ATOM     28  C   UNL     1      28.126  12.821  84.572  0.00  0.00    +0.000 C 
ENDROOT
BRANCH  17  29
ATOM     29  O   UNL     1      19.879   3.747  81.337  0.00  0.00    +0.000 OA
ATOM     30  H   UNL     1      18.952   4.061  81.282  0.00  0.00    +0.000 HD
ENDBRANCH  17  29
BRANCH  14  32
ATOM     31  O   UNL     1      24.263  13.099  87.205  0.00  0.00    +0.000 OA
ATOM     32  C   UNL     1      24.580  12.210  87.984  0.00  0.00    +0.000 C 
BRANCH  32  33
ATOM     33  O   UNL     1      24.172  12.279  89.271  0.00  0.00    +0.000 OA
ATOM     34  H   UNL     1      23.511  13.005  89.291  0.00  0.00    +0.000 HD
ENDBRANCH  32  33
ENDBRANCH  14  32
BRANCH   9  35
ATOM     35  C   UNL     1      22.006   3.515  83.809  0.00  0.00    +0.000 C 
BRANCH  35  36
ATOM     36  O   UNL     1      23.097   2.754  83.938  0.00  0.00    +0.000 OA
ATOM     37  H   UNL     1      23.264   2.240  83.127  0.00  0.00    +0.000 HD
ENDBRANCH  35  36
ENDBRANCH   9  35
TORSDOF 5
ENDMDL
MODEL 8
REMARK VINA RESULT:      -5.4     21.570     24.590
REMARK  Name = 73299_Hederagenin.pdbqt.pdb
REMARK  5 active torsions:
REMARK  status: ('A' for Active; 'I' for Inactive)
REMARK    1  A    between atoms: C_9  and  C_35
REMARK    2  A    between atoms: C_14  and  C_32
REMARK    3  A    between atoms: C_17  and  O_29
REMARK    4  A    between atoms: C_32  and  O_33
REMARK    5  A    between atoms: C_35  and  O_36
REMARK                            x       y       z     vdW  Elec       q    Type
REMARK                         _______ _______ _______ _____ _____    ______ ____
ROOT
ATOM      1  C   UNL     1      22.325  19.346  92.916  0.00  0.00    +0.000 C 
ATOM      2  C   UNL     1      21.255  18.208  92.642  0.00  0.00    +0.000 C 
ATOM      3  C   UNL     1      21.247  17.344  91.376  0.00  0.00    +0.000 C 
ATOM      4  C   UNL     1      21.646  20.691  93.603  0.00  0.00    +0.000 C 
ATOM      5  C   UNL     1      21.723  18.018  90.057  0.00  0.00    +0.000 C 
ATOM      6  C   UNL     1      22.907  19.656  91.605  0.00  0.00    +0.000 C 
ATOM      7  C   UNL     1      22.658  19.071  90.255  0.00  0.00    +0.000 C 
ATOM      8  C   UNL     1      20.693  20.321  94.865  0.00  0.00    +0.000 C 
ATOM      9  C   UNL     1      21.051  17.768  88.696  0.00  0.00    +0.000 C 
ATOM     10  C   UNL     1      20.643  21.077  96.135  0.00  0.00    +0.000 C 
ATOM     11  C   UNL     1      20.259  18.143  93.667  0.00  0.00    +0.000 C 
ATOM     12  C   UNL     1      19.889  16.886  91.100  0.00  0.00    +0.000 C 
ATOM     13  C   UNL     1      22.635  21.621  94.178  0.00  0.00    +0.000 C 
ATOM     14  C   UNL     1      21.940  21.892  96.751  0.00  0.00    +0.000 C 
ATOM     15  C   UNL     1      23.428  18.715  93.861  0.00  0.00    +0.000 C 
ATOM     16  C   UNL     1      22.756  22.187  95.573  0.00  0.00    +0.000 C 
ATOM     17  C   UNL     1      19.795  16.857  88.654  0.00  0.00    +0.000 C 
ATOM     18  C   UNL     1      20.060  19.192  94.725  0.00  0.00    +0.000 C 
ATOM     19  C   UNL     1      22.173  16.128  91.633  0.00  0.00    +0.000 C 
ATOM     20  C   UNL     1      19.112  16.608  89.857  0.00  0.00    +0.000 C 
ATOM     21  C   UNL     1      20.705  21.473  92.588  0.00  0.00    +0.000 C 
ATOM     22  C   UNL     1      19.343  21.573  96.589  0.00  0.00    +0.000 C 
ATOM     23  C   UNL     1      21.337  23.069  97.432  0.00  0.00    +0.000 C 
ATOM     24  C   UNL     1      18.637  22.680  97.337  0.00  0.00    +0.000 C 
ATOM     25  C   UNL     1      22.112  17.166  87.716  0.00  0.00    +0.000 C 
ATOM     26  C   UNL     1      19.863  23.446  97.731  0.00  0.00    +0.000 C 
ATOM     27  C   UNL     1      17.729  23.496  96.398  0.00  0.00    +0.000 C 
ATOM     28  C   UNL     1      17.879  22.138  98.562  0.00  0.00    +0.000 C 
ENDROOT
BRANCH  17  29
ATOM     29  O   UNL     1      19.522  16.064  87.552  0.00  0.00    +0.000 OA
ATOM     30  H   UNL     1      18.642  15.641  87.637  0.00  0.00    +0.000 HD
ENDBRANCH  17  29
BRANCH  14  32
ATOM     31  O   UNL     1      22.550  21.039  98.979  0.00  0.00    +0.000 OA
ATOM     32  C   UNL     1      22.630  20.966  97.760  0.00  0.00    +0.000 C 
BRANCH  32  33
ATOM     33  O   UNL     1      23.446  20.044  97.203  0.00  0.00    +0.000 OA
ATOM     34  H   UNL     1      23.925  19.638  97.957  0.00  0.00    +0.000 HD
ENDBRANCH  32  33
ENDBRANCH  14  32
BRANCH   9  35
ATOM     35  C   UNL     1      20.590  19.092  88.169  0.00  0.00    +0.000 C 
BRANCH  35  36
ATOM     36  O   UNL     1      20.171  20.275  87.713  0.00  0.00    +0.000 OA
ATOM     37  H   UNL     1      19.403  20.171  87.121  0.00  0.00    +0.000 HD
ENDBRANCH  35  36
ENDBRANCH   9  35
TORSDOF 5
ENDMDL
MODEL 9
REMARK VINA RESULT:      -5.4     21.467     23.558
REMARK  Name = 73299_Hederagenin.pdbqt.pdb
REMARK  5 active torsions:
REMARK  status: ('A' for Active; 'I' for Inactive)
REMARK    1  A    between atoms: C_9  and  C_35
REMARK    2  A    between atoms: C_14  and  C_32
REMARK    3  A    between atoms: C_17  and  O_29
REMARK    4  A    between atoms: C_32  and  O_33
REMARK    5  A    between atoms: C_35  and  O_36
REMARK                            x       y       z     vdW  Elec       q    Type
REMARK                         _______ _______ _______ _____ _____    ______ ____
ROOT
ATOM      1  C   UNL     1      20.786  18.872  93.036  0.00  0.00    +0.000 C 
ATOM      2  C   UNL     1      22.067  19.806  93.038  0.00  0.00    +0.000 C 
ATOM      3  C   UNL     1      22.782  20.255  94.317  0.00  0.00    +0.000 C 
ATOM      4  C   UNL     1      19.667  19.347  91.911  0.00  0.00    +0.000 C 
ATOM      5  C   UNL     1      21.900  20.484  95.578  0.00  0.00    +0.000 C 
ATOM      6  C   UNL     1      20.240  18.958  94.396  0.00  0.00    +0.000 C 
ATOM      7  C   UNL     1      20.718  19.693  95.603  0.00  0.00    +0.000 C 
ATOM      8  C   UNL     1      20.335  19.606  90.453  0.00  0.00    +0.000 C 
ATOM      9  C   UNL     1      22.128  21.642  96.565  0.00  0.00    +0.000 C 
ATOM     10  C   UNL     1      19.736  19.194  89.165  0.00  0.00    +0.000 C 
ATOM     11  C   UNL     1      22.420  20.243  91.723  0.00  0.00    +0.000 C 
ATOM     12  C   UNL     1      23.453  21.531  94.086  0.00  0.00    +0.000 C 
ATOM     13  C   UNL     1      18.634  18.329  91.642  0.00  0.00    +0.000 C 
ATOM     14  C   UNL     1      18.764  17.870  89.006  0.00  0.00    +0.000 C 
ATOM     15  C   UNL     1      21.296  17.400  92.752  0.00  0.00    +0.000 C 
ATOM     16  C   UNL     1      18.203  17.686  90.345  0.00  0.00    +0.000 C 
ATOM     17  C   UNL     1      23.246  22.670  96.244  0.00  0.00    +0.000 C 
ATOM     18  C   UNL     1      21.541  20.092  90.514  0.00  0.00    +0.000 C 
ATOM     19  C   UNL     1      23.827  19.167  94.677  0.00  0.00    +0.000 C 
ATOM     20  C   UNL     1      23.740  22.729  94.928  0.00  0.00    +0.000 C 
ATOM     21  C   UNL     1      18.972  20.723  92.299  0.00  0.00    +0.000 C 
ATOM     22  C   UNL     1      19.538  20.220  88.140  0.00  0.00    +0.000 C 
ATOM     23  C   UNL     1      17.795  18.258  87.946  0.00  0.00    +0.000 C 
ATOM     24  C   UNL     1      18.663  20.663  86.990  0.00  0.00    +0.000 C 
ATOM     25  C   UNL     1      22.420  21.044  97.981  0.00  0.00    +0.000 C 
ATOM     26  C   UNL     1      17.729  19.492  87.008  0.00  0.00    +0.000 C 
ATOM     27  C   UNL     1      17.938  21.980  87.319  0.00  0.00    +0.000 C 
ATOM     28  C   UNL     1      19.459  20.743  85.675  0.00  0.00    +0.000 C 
ENDROOT
BRANCH  17  29
ATOM     29  O   UNL     1      23.958  23.293  97.254  0.00  0.00    +0.000 OA
ATOM     30  H   UNL     1      24.919  23.279  97.063  0.00  0.00    +0.000 HD
ENDBRANCH  17  29
BRANCH  14  32
ATOM     31  O   UNL     1      20.859  16.728  88.397  0.00  0.00    +0.000 OA
ATOM     32  C   UNL     1      19.644  16.702  88.545  0.00  0.00    +0.000 C 
BRANCH  32  33
ATOM     33  O   UNL     1      18.961  15.583  88.219  0.00  0.00    +0.000 OA
ATOM     34  H   UNL     1      18.467  15.339  89.032  0.00  0.00    +0.000 HD
ENDBRANCH  32  33
ENDBRANCH  14  32
BRANCH   9  35
ATOM     35  C   UNL     1      20.865  22.445  96.619  0.00  0.00    +0.000 C 
BRANCH  35  36
ATOM     36  O   UNL     1      19.738  23.162  96.652  0.00  0.00    +0.000 OA
ATOM     37  H   UNL     1      18.965  22.611  96.428  0.00  0.00    +0.000 HD
ENDBRANCH  35  36
ENDBRANCH   9  35
TORSDOF 5
ENDMDL
