MODEL 1
REMARK VINA RESULT:      -8.3      0.000      0.000
REMARK  Name = 73659_MaslinicAcid.pdbqt.pdb
REMARK  4 active torsions:
REMARK  status: ('A' for Active; 'I' for Inactive)
REMARK    1  A    between atoms: C_14  and  C_35
REMARK    2  A    between atoms: C_17  and  O_30
REMARK    3  A    between atoms: C_19  and  O_32
REMARK    4  A    between atoms: C_35  and  O_36
REMARK                            x       y       z     vdW  Elec       q    Type
REMARK                         _______ _______ _______ _____ _____    ______ ____
ROOT
ATOM      1  C   UNL     1      60.549  35.580  74.872  0.00  0.00    +0.000 C 
ATOM      2  C   UNL     1      58.965  35.651  74.970  0.00  0.00    +0.000 C 
ATOM      3  C   UNL     1      58.216  36.082  76.235  0.00  0.00    +0.000 C 
ATOM      4  C   UNL     1      61.065  34.257  74.021  0.00  0.00    +0.000 C 
ATOM      5  C   UNL     1      58.859  35.741  77.584  0.00  0.00    +0.000 C 
ATOM      6  C   UNL     1      61.017  35.538  76.262  0.00  0.00    +0.000 C 
ATOM      7  C   UNL     1      60.274  35.609  77.555  0.00  0.00    +0.000 C 
ATOM      8  C   UNL     1      60.280  34.095  72.608  0.00  0.00    +0.000 C 
ATOM      9  C   UNL     1      57.983  35.426  78.787  0.00  0.00    +0.000 C 
ATOM     10  C   UNL     1      60.917  33.735  71.323  0.00  0.00    +0.000 C 
ATOM     11  C   UNL     1      58.328  35.194  73.773  0.00  0.00    +0.000 C 
ATOM     12  C   UNL     1      56.919  35.427  76.290  0.00  0.00    +0.000 C 
ATOM     13  C   UNL     1      62.482  34.333  73.623  0.00  0.00    +0.000 C 
ATOM     14  C   UNL     1      62.480  34.119  70.953  0.00  0.00    +0.000 C 
ATOM     15  C   UNL     1      61.019  36.927  74.188  0.00  0.00    +0.000 C 
ATOM     16  C   UNL     1      63.127  34.242  72.259  0.00  0.00    +0.000 C 
ATOM     17  C   UNL     1      56.500  35.046  78.547  0.00  0.00    +0.000 C 
ATOM     18  C   UNL     1      58.039  37.617  76.173  0.00  0.00    +0.000 C 
ATOM     19  C   UNL     1      56.017  34.910  77.214  0.00  0.00    +0.000 C 
ATOM     20  C   UNL     1      59.032  34.469  72.662  0.00  0.00    +0.000 C 
ATOM     21  C   UNL     1      60.797  32.901  74.804  0.00  0.00    +0.000 C 
ATOM     22  C   UNL     1      60.383  32.592  70.585  0.00  0.00    +0.000 C 
ATOM     23  C   UNL     1      62.938  32.987  70.105  0.00  0.00    +0.000 C 
ATOM     24  C   UNL     1      60.727  31.454  69.651  0.00  0.00    +0.000 C 
ATOM     25  C   UNL     1      58.583  34.180  79.527  0.00  0.00    +0.000 C 
ATOM     26  C   UNL     1      58.001  36.635  79.766  0.00  0.00    +0.000 C 
ATOM     27  C   UNL     1      62.179  31.786  69.485  0.00  0.00    +0.000 C 
ATOM     28  C   UNL     1      59.958  31.563  68.322  0.00  0.00    +0.000 C 
ATOM     29  C   UNL     1      60.527  30.090  70.337  0.00  0.00    +0.000 C 
ENDROOT
BRANCH  17  30
ATOM     30  O   UNL     1      55.579  34.846  79.573  0.00  0.00    +0.000 OA
ATOM     31  H   UNL     1      54.660  34.881  79.234  0.00  0.00    +0.000 HD
ENDBRANCH  17  30
BRANCH  19  32
ATOM     32  O   UNL     1      54.687  34.761  76.965  0.00  0.00    +0.000 OA
ATOM     33  H   UNL     1      54.210  35.606  77.084  0.00  0.00    +0.000 HD
ENDBRANCH  19  32
BRANCH  14  35
ATOM     34  O   UNL     1      61.634  35.755  69.316  0.00  0.00    +0.000 OA
ATOM     35  C   UNL     1      62.460  35.430  70.158  0.00  0.00    +0.000 C 
BRANCH  35  36
ATOM     36  O   UNL     1      63.514  36.242  70.400  0.00  0.00    +0.000 OA
ATOM     37  H   UNL     1      63.932  36.386  69.523  0.00  0.00    +0.000 HD
ENDBRANCH  35  36
ENDBRANCH  14  35
TORSDOF 4
ENDMDL
MODEL 2
REMARK VINA RESULT:      -7.4      3.240      8.333
REMARK  Name = 73659_MaslinicAcid.pdbqt.pdb
REMARK  4 active torsions:
REMARK  status: ('A' for Active; 'I' for Inactive)
REMARK    1  A    between atoms: C_14  and  C_35
REMARK    2  A    between atoms: C_17  and  O_30
REMARK    3  A    between atoms: C_19  and  O_32
REMARK    4  A    between atoms: C_35  and  O_36
REMARK                            x       y       z     vdW  Elec       q    Type
REMARK                         _______ _______ _______ _____ _____    ______ ____
ROOT
ATOM      1  C   UNL     1      61.428  36.218  74.654  0.00  0.00    +0.000 C 
ATOM      2  C   UNL     1      62.763  36.031  75.496  0.00  0.00    +0.000 C 
ATOM      3  C   UNL     1      64.130  35.761  74.860  0.00  0.00    +0.000 C 
ATOM      4  C   UNL     1      60.129  35.484  75.370  0.00  0.00    +0.000 C 
ATOM      5  C   UNL     1      64.154  34.949  73.560  0.00  0.00    +0.000 C 
ATOM      6  C   UNL     1      61.718  35.631  73.341  0.00  0.00    +0.000 C 
ATOM      7  C   UNL     1      62.966  35.030  72.784  0.00  0.00    +0.000 C 
ATOM      8  C   UNL     1      60.007  35.857  76.947  0.00  0.00    +0.000 C 
ATOM      9  C   UNL     1      65.325  34.027  73.260  0.00  0.00    +0.000 C 
ATOM     10  C   UNL     1      58.743  36.186  77.643  0.00  0.00    +0.000 C 
ATOM     11  C   UNL     1      62.522  36.068  76.906  0.00  0.00    +0.000 C 
ATOM     12  C   UNL     1      64.955  34.986  75.772  0.00  0.00    +0.000 C 
ATOM     13  C   UNL     1      58.833  35.910  74.812  0.00  0.00    +0.000 C 
ATOM     14  C   UNL     1      57.456  36.893  76.889  0.00  0.00    +0.000 C 
ATOM     15  C   UNL     1      61.202  37.777  74.507  0.00  0.00    +0.000 C 
ATOM     16  C   UNL     1      57.621  36.513  75.486  0.00  0.00    +0.000 C 
ATOM     17  C   UNL     1      66.253  33.601  74.426  0.00  0.00    +0.000 C 
ATOM     18  C   UNL     1      64.790  37.130  74.572  0.00  0.00    +0.000 C 
ATOM     19  C   UNL     1      65.939  34.003  75.755  0.00  0.00    +0.000 C 
ATOM     20  C   UNL     1      61.160  36.004  77.535  0.00  0.00    +0.000 C 
ATOM     21  C   UNL     1      60.238  33.899  75.326  0.00  0.00    +0.000 C 
ATOM     22  C   UNL     1      58.401  35.423  78.842  0.00  0.00    +0.000 C 
ATOM     23  C   UNL     1      56.272  36.319  77.582  0.00  0.00    +0.000 C 
ATOM     24  C   UNL     1      57.263  34.868  79.670  0.00  0.00    +0.000 C 
ATOM     25  C   UNL     1      64.762  32.672  72.703  0.00  0.00    +0.000 C 
ATOM     26  C   UNL     1      66.221  34.673  72.165  0.00  0.00    +0.000 C 
ATOM     27  C   UNL     1      56.145  35.425  78.842  0.00  0.00    +0.000 C 
ATOM     28  C   UNL     1      57.267  35.448  81.095  0.00  0.00    +0.000 C 
ATOM     29  C   UNL     1      57.270  33.328  79.660  0.00  0.00    +0.000 C 
ENDROOT
BRANCH  17  30
ATOM     30  O   UNL     1      67.415  32.852  74.253  0.00  0.00    +0.000 OA
ATOM     31  H   UNL     1      67.409  32.384  73.393  0.00  0.00    +0.000 HD
ENDBRANCH  17  30
BRANCH  19  32
ATOM     32  O   UNL     1      66.824  33.805  76.772  0.00  0.00    +0.000 OA
ATOM     33  H   UNL     1      67.476  34.532  76.815  0.00  0.00    +0.000 HD
ENDBRANCH  19  32
BRANCH  14  35
ATOM     34  O   UNL     1      56.633  39.209  77.066  0.00  0.00    +0.000 OA
ATOM     35  C   UNL     1      57.554  38.405  77.125  0.00  0.00    +0.000 C 
BRANCH  35  36
ATOM     36  O   UNL     1      58.810  38.852  77.351  0.00  0.00    +0.000 OA
ATOM     37  H   UNL     1      59.371  38.046  77.349  0.00  0.00    +0.000 HD
ENDBRANCH  35  36
ENDBRANCH  14  35
TORSDOF 4
ENDMDL
MODEL 3
REMARK VINA RESULT:      -6.7      2.726      8.608
REMARK  Name = 73659_MaslinicAcid.pdbqt.pdb
REMARK  4 active torsions:
REMARK  status: ('A' for Active; 'I' for Inactive)
REMARK    1  A    between atoms: C_14  and  C_35
REMARK    2  A    between atoms: C_17  and  O_30
REMARK    3  A    between atoms: C_19  and  O_32
REMARK    4  A    between atoms: C_35  and  O_36
REMARK                            x       y       z     vdW  Elec       q    Type
REMARK                         _______ _______ _______ _____ _____    ______ ____
ROOT
ATOM      1  C   UNL     1      61.681  33.089  71.157  0.00  0.00    +0.000 C 
ATOM      2  C   UNL     1      60.670  31.992  70.610  0.00  0.00    +0.000 C 
ATOM      3  C   UNL     1      60.932  31.155  69.354  0.00  0.00    +0.000 C 
ATOM      4  C   UNL     1      60.900  34.438  71.714  0.00  0.00    +0.000 C 
ATOM      5  C   UNL     1      61.731  31.814  68.223  0.00  0.00    +0.000 C 
ATOM      6  C   UNL     1      62.553  33.406  70.021  0.00  0.00    +0.000 C 
ATOM      7  C   UNL     1      62.617  32.843  68.640  0.00  0.00    +0.000 C 
ATOM      8  C   UNL     1      59.678  34.066  72.718  0.00  0.00    +0.000 C 
ATOM      9  C   UNL     1      61.436  31.456  66.775  0.00  0.00    +0.000 C 
ATOM     10  C   UNL     1      59.373  34.777  73.979  0.00  0.00    +0.000 C 
ATOM     11  C   UNL     1      59.465  31.937  71.379  0.00  0.00    +0.000 C 
ATOM     12  C   UNL     1      59.670  30.795  68.728  0.00  0.00    +0.000 C 
ATOM     13  C   UNL     1      61.759  35.320  72.525  0.00  0.00    +0.000 C 
ATOM     14  C   UNL     1      60.527  35.521  74.896  0.00  0.00    +0.000 C 
ATOM     15  C   UNL     1      62.523  32.394  72.303  0.00  0.00    +0.000 C 
ATOM     16  C   UNL     1      61.587  35.834  73.937  0.00  0.00    +0.000 C 
ATOM     17  C   UNL     1      60.087  30.771  66.438  0.00  0.00    +0.000 C 
ATOM     18  C   UNL     1      61.696  29.883  69.791  0.00  0.00    +0.000 C 
ATOM     19  C   UNL     1      59.122  30.577  67.468  0.00  0.00    +0.000 C 
ATOM     20  C   UNL     1      59.061  32.963  72.398  0.00  0.00    +0.000 C 
ATOM     21  C   UNL     1      60.233  35.271  70.537  0.00  0.00    +0.000 C 
ATOM     22  C   UNL     1      58.020  35.298  74.166  0.00  0.00    +0.000 C 
ATOM     23  C   UNL     1      59.821  36.689  75.486  0.00  0.00    +0.000 C 
ATOM     24  C   UNL     1      57.196  36.397  74.800  0.00  0.00    +0.000 C 
ATOM     25  C   UNL     1      61.416  32.777  65.930  0.00  0.00    +0.000 C 
ATOM     26  C   UNL     1      62.570  30.541  66.230  0.00  0.00    +0.000 C 
ATOM     27  C   UNL     1      58.327  37.104  75.482  0.00  0.00    +0.000 C 
ATOM     28  C   UNL     1      56.181  35.830  75.808  0.00  0.00    +0.000 C 
ATOM     29  C   UNL     1      56.531  37.281  73.729  0.00  0.00    +0.000 C 
ENDROOT
BRANCH  17  30
ATOM     30  O   UNL     1      59.756  30.299  65.170  0.00  0.00    +0.000 OA
ATOM     31  H   UNL     1      59.634  31.039  64.539  0.00  0.00    +0.000 HD
ENDBRANCH  17  30
BRANCH  19  32
ATOM     32  O   UNL     1      58.012  29.818  67.251  0.00  0.00    +0.000 OA
ATOM     33  H   UNL     1      58.254  28.896  67.037  0.00  0.00    +0.000 HD
ENDBRANCH  19  32
BRANCH  14  35
ATOM     34  O   UNL     1      61.698  33.565  75.832  0.00  0.00    +0.000 OA
ATOM     35  C   UNL     1      60.964  34.533  75.984  0.00  0.00    +0.000 C 
BRANCH  35  36
ATOM     36  O   UNL     1      60.405  34.757  77.194  0.00  0.00    +0.000 OA
ATOM     37  H   UNL     1      59.476  35.012  77.002  0.00  0.00    +0.000 HD
ENDBRANCH  35  36
ENDBRANCH  14  35
TORSDOF 4
ENDMDL
MODEL 4
REMARK VINA RESULT:      -6.7     20.164     23.455
REMARK  Name = 73659_MaslinicAcid.pdbqt.pdb
REMARK  4 active torsions:
REMARK  status: ('A' for Active; 'I' for Inactive)
REMARK    1  A    between atoms: C_14  and  C_35
REMARK    2  A    between atoms: C_17  and  O_30
REMARK    3  A    between atoms: C_19  and  O_32
REMARK    4  A    between atoms: C_35  and  O_36
REMARK                            x       y       z     vdW  Elec       q    Type
REMARK                         _______ _______ _______ _____ _____    ______ ____
ROOT
ATOM      1  C   UNL     1      43.656  24.785  84.537  0.00  0.00    +0.000 C 
ATOM      2  C   UNL     1      43.507  26.153  85.331  0.00  0.00    +0.000 C 
ATOM      3  C   UNL     1      44.659  26.819  86.088  0.00  0.00    +0.000 C 
ATOM      4  C   UNL     1      42.336  23.805  84.725  0.00  0.00    +0.000 C 
ATOM      5  C   UNL     1      45.710  25.900  86.722  0.00  0.00    +0.000 C 
ATOM      6  C   UNL     1      44.868  24.160  85.076  0.00  0.00    +0.000 C 
ATOM      7  C   UNL     1      45.855  24.636  86.090  0.00  0.00    +0.000 C 
ATOM      8  C   UNL     1      40.942  24.600  84.471  0.00  0.00    +0.000 C 
ATOM      9  C   UNL     1      46.395  26.307  88.018  0.00  0.00    +0.000 C 
ATOM     10  C   UNL     1      39.791  24.067  83.710  0.00  0.00    +0.000 C 
ATOM     11  C   UNL     1      42.162  26.641  85.319  0.00  0.00    +0.000 C 
ATOM     12  C   UNL     1      44.139  27.583  87.210  0.00  0.00    +0.000 C 
ATOM     13  C   UNL     1      42.285  22.697  83.754  0.00  0.00    +0.000 C 
ATOM     14  C   UNL     1      39.951  22.988  82.471  0.00  0.00    +0.000 C 
ATOM     15  C   UNL     1      43.879  25.168  83.018  0.00  0.00    +0.000 C 
ATOM     16  C   UNL     1      41.211  22.306  82.764  0.00  0.00    +0.000 C 
ATOM     17  C   UNL     1      45.743  27.411  88.888  0.00  0.00    +0.000 C 
ATOM     18  C   UNL     1      45.390  27.755  85.096  0.00  0.00    +0.000 C 
ATOM     19  C   UNL     1      44.481  27.951  88.507  0.00  0.00    +0.000 C 
ATOM     20  C   UNL     1      40.974  25.841  84.867  0.00  0.00    +0.000 C 
ATOM     21  C   UNL     1      42.223  23.230  86.202  0.00  0.00    +0.000 C 
ATOM     22  C   UNL     1      38.482  24.054  84.361  0.00  0.00    +0.000 C 
ATOM     23  C   UNL     1      38.724  22.152  82.560  0.00  0.00    +0.000 C 
ATOM     24  C   UNL     1      37.161  23.324  84.464  0.00  0.00    +0.000 C 
ATOM     25  C   UNL     1      46.452  25.057  88.964  0.00  0.00    +0.000 C 
ATOM     26  C   UNL     1      47.852  26.757  87.709  0.00  0.00    +0.000 C 
ATOM     27  C   UNL     1      37.445  22.282  83.425  0.00  0.00    +0.000 C 
ATOM     28  C   UNL     1      35.984  24.231  84.062  0.00  0.00    +0.000 C 
ATOM     29  C   UNL     1      36.976  22.704  85.861  0.00  0.00    +0.000 C 
ENDROOT
BRANCH  17  30
ATOM     30  O   UNL     1      46.334  27.941  90.033  0.00  0.00    +0.000 OA
ATOM     31  H   UNL     1      45.751  28.606  90.456  0.00  0.00    +0.000 HD
ENDBRANCH  17  30
BRANCH  19  32
ATOM     32  O   UNL     1      43.970  29.044  89.140  0.00  0.00    +0.000 OA
ATOM     33  H   UNL     1      43.037  29.191  88.888  0.00  0.00    +0.000 HD
ENDBRANCH  19  32
BRANCH  14  35
ATOM     34  O   UNL     1      40.361  24.941  81.025  0.00  0.00    +0.000 OA
ATOM     35  C   UNL     1      39.981  23.786  81.162  0.00  0.00    +0.000 C 
BRANCH  35  36
ATOM     36  O   UNL     1      39.466  23.128  80.099  0.00  0.00    +0.000 OA
ATOM     37  H   UNL     1      39.461  22.182  80.363  0.00  0.00    +0.000 HD
ENDBRANCH  35  36
ENDBRANCH  14  35
TORSDOF 4
ENDMDL
MODEL 5
REMARK VINA RESULT:      -6.6     60.070     64.640
REMARK  Name = 73659_MaslinicAcid.pdbqt.pdb
REMARK  4 active torsions:
REMARK  status: ('A' for Active; 'I' for Inactive)
REMARK    1  A    between atoms: C_14  and  C_35
REMARK    2  A    between atoms: C_17  and  O_30
REMARK    3  A    between atoms: C_19  and  O_32
REMARK    4  A    between atoms: C_35  and  O_36
REMARK                            x       y       z     vdW  Elec       q    Type
REMARK                         _______ _______ _______ _____ _____    ______ ____
ROOT
ATOM      1  C   UNL     1       2.827  13.350  97.552  0.00  0.00    +0.000 C 
ATOM      2  C   UNL     1       3.364  11.874  97.314  0.00  0.00    +0.000 C 
ATOM      3  C   UNL     1       2.451  10.647  97.228  0.00  0.00    +0.000 C 
ATOM      4  C   UNL     1       3.798  14.213  98.578  0.00  0.00    +0.000 C 
ATOM      5  C   UNL     1       1.171  10.662  98.071  0.00  0.00    +0.000 C 
ATOM      6  C   UNL     1       1.478  13.182  98.105  0.00  0.00    +0.000 C 
ATOM      7  C   UNL     1       0.666  11.957  98.365  0.00  0.00    +0.000 C 
ATOM      8  C   UNL     1       5.366  14.109  98.168  0.00  0.00    +0.000 C 
ATOM      9  C   UNL     1       0.623   9.365  98.647  0.00  0.00    +0.000 C 
ATOM     10  C   UNL     1       6.317  15.242  98.166  0.00  0.00    +0.000 C 
ATOM     11  C   UNL     1       4.793  11.820  97.269  0.00  0.00    +0.000 C 
ATOM     12  C   UNL     1       3.162   9.468  97.693  0.00  0.00    +0.000 C 
ATOM     13  C   UNL     1       3.529  15.662  98.559  0.00  0.00    +0.000 C 
ATOM     14  C   UNL     1       5.858  16.803  97.886  0.00  0.00    +0.000 C 
ATOM     15  C   UNL     1       2.741  14.033  96.127  0.00  0.00    +0.000 C 
ATOM     16  C   UNL     1       4.449  16.829  98.281  0.00  0.00    +0.000 C 
ATOM     17  C   UNL     1       1.563   8.136  98.734  0.00  0.00    +0.000 C 
ATOM     18  C   UNL     1       2.038  10.475  95.747  0.00  0.00    +0.000 C 
ATOM     19  C   UNL     1       2.931   8.271  98.364  0.00  0.00    +0.000 C 
ATOM     20  C   UNL     1       5.697  12.949  97.675  0.00  0.00    +0.000 C 
ATOM     21  C   UNL     1       3.721  13.671 100.070  0.00  0.00    +0.000 C 
ATOM     22  C   UNL     1       7.557  15.102  98.927  0.00  0.00    +0.000 C 
ATOM     23  C   UNL     1       6.783  17.608  98.728  0.00  0.00    +0.000 C 
ATOM     24  C   UNL     1       8.603  15.840  99.731  0.00  0.00    +0.000 C 
ATOM     25  C   UNL     1       0.191   9.624 100.132  0.00  0.00    +0.000 C 
ATOM     26  C   UNL     1      -0.633   8.934  97.837  0.00  0.00    +0.000 C 
ATOM     27  C   UNL     1       8.035  17.215  99.553  0.00  0.00    +0.000 C 
ATOM     28  C   UNL     1       9.999  15.708  99.097  0.00  0.00    +0.000 C 
ATOM     29  C   UNL     1       8.583  15.401 101.207  0.00  0.00    +0.000 C 
ENDROOT
BRANCH  17  30
ATOM     30  O   UNL     1       1.143   6.871  99.139  0.00  0.00    +0.000 OA
ATOM     31  H   UNL     1       0.328   6.926  99.680  0.00  0.00    +0.000 HD
ENDBRANCH  17  30
BRANCH  19  32
ATOM     32  O   UNL     1       3.735   7.177  98.252  0.00  0.00    +0.000 OA
ATOM     33  H   UNL     1       3.335   6.506  97.666  0.00  0.00    +0.000 HD
ENDBRANCH  19  32
BRANCH  14  35
ATOM     34  O   UNL     1       6.271  16.260  95.518  0.00  0.00    +0.000 OA
ATOM     35  C   UNL     1       6.077  17.091  96.396  0.00  0.00    +0.000 C 
BRANCH  35  36
ATOM     36  O   UNL     1       6.117  18.406  96.084  0.00  0.00    +0.000 OA
ATOM     37  H   UNL     1       5.236  18.603  95.698  0.00  0.00    +0.000 HD
ENDBRANCH  35  36
ENDBRANCH  14  35
TORSDOF 4
ENDMDL
MODEL 6
REMARK VINA RESULT:      -6.4     19.174     23.614
REMARK  Name = 73659_MaslinicAcid.pdbqt.pdb
REMARK  4 active torsions:
REMARK  status: ('A' for Active; 'I' for Inactive)
REMARK    1  A    between atoms: C_14  and  C_35
REMARK    2  A    between atoms: C_17  and  O_30
REMARK    3  A    between atoms: C_19  and  O_32
REMARK    4  A    between atoms: C_35  and  O_36
REMARK                            x       y       z     vdW  Elec       q    Type
REMARK                         _______ _______ _______ _____ _____    ______ ____
ROOT
ATOM      1  C   UNL     1      42.080  24.227  83.372  0.00  0.00    +0.000 C 
ATOM      2  C   UNL     1      41.632  22.845  84.017  0.00  0.00    +0.000 C 
ATOM      3  C   UNL     1      40.287  22.174  83.723  0.00  0.00    +0.000 C 
ATOM      4  C   UNL     1      42.871  25.196  84.455  0.00  0.00    +0.000 C 
ATOM      5  C   UNL     1      39.091  23.089  83.440  0.00  0.00    +0.000 C 
ATOM      6  C   UNL     1      40.838  24.851  82.903  0.00  0.00    +0.000 C 
ATOM      7  C   UNL     1      39.426  24.364  82.912  0.00  0.00    +0.000 C 
ATOM      8  C   UNL     1      44.040  24.397  85.251  0.00  0.00    +0.000 C 
ATOM      9  C   UNL     1      37.692  22.666  83.863  0.00  0.00    +0.000 C 
ATOM     10  C   UNL     1      45.388  24.935  85.539  0.00  0.00    +0.000 C 
ATOM     11  C   UNL     1      42.593  22.350  84.954  0.00  0.00    +0.000 C 
ATOM     12  C   UNL     1      39.865  21.390  84.872  0.00  0.00    +0.000 C 
ATOM     13  C   UNL     1      43.587  26.319  83.824  0.00  0.00    +0.000 C 
ATOM     14  C   UNL     1      46.145  26.035  84.567  0.00  0.00    +0.000 C 
ATOM     15  C   UNL     1      43.002  23.870  82.136  0.00  0.00    +0.000 C 
ATOM     16  C   UNL     1      45.043  26.720  83.892  0.00  0.00    +0.000 C 
ATOM     17  C   UNL     1      37.543  21.544  84.922  0.00  0.00    +0.000 C 
ATOM     18  C   UNL     1      40.481  21.259  82.491  0.00  0.00    +0.000 C 
ATOM     19  C   UNL     1      38.707  21.003  85.539  0.00  0.00    +0.000 C 
ATOM     20  C   UNL     1      43.746  23.150  85.489  0.00  0.00    +0.000 C 
ATOM     21  C   UNL     1      41.899  25.746  85.586  0.00  0.00    +0.000 C 
ATOM     22  C   UNL     1      45.850  24.931  86.926  0.00  0.00    +0.000 C 
ATOM     23  C   UNL     1      46.942  26.862  85.513  0.00  0.00    +0.000 C 
ATOM     24  C   UNL     1      46.704  25.650  87.946  0.00  0.00    +0.000 C 
ATOM     25  C   UNL     1      36.972  23.901  84.509  0.00  0.00    +0.000 C 
ATOM     26  C   UNL     1      36.886  22.229  82.606  0.00  0.00    +0.000 C 
ATOM     27  C   UNL     1      47.232  26.710  87.028  0.00  0.00    +0.000 C 
ATOM     28  C   UNL     1      47.826  24.743  88.482  0.00  0.00    +0.000 C 
ATOM     29  C   UNL     1      45.840  26.247  89.072  0.00  0.00    +0.000 C 
ENDROOT
BRANCH  17  30
ATOM     30  O   UNL     1      36.319  20.999  85.303  0.00  0.00    +0.000 OA
ATOM     31  H   UNL     1      36.386  20.029  85.424  0.00  0.00    +0.000 HD
ENDBRANCH  17  30
BRANCH  19  32
ATOM     32  O   UNL     1      38.627  19.897  86.330  0.00  0.00    +0.000 OA
ATOM     33  H   UNL     1      38.015  20.043  87.078  0.00  0.00    +0.000 HD
ENDBRANCH  19  32
BRANCH  14  35
ATOM     34  O   UNL     1      47.454  24.111  83.759  0.00  0.00    +0.000 OA
ATOM     35  C   UNL     1      47.057  25.259  83.610  0.00  0.00    +0.000 C 
BRANCH  35  36
ATOM     36  O   UNL     1      47.491  25.978  82.551  0.00  0.00    +0.000 OA
ATOM     37  H   UNL     1      46.941  25.675  81.795  0.00  0.00    +0.000 HD
ENDBRANCH  35  36
ENDBRANCH  14  35
TORSDOF 4
ENDMDL
MODEL 7
REMARK VINA RESULT:      -6.4      2.717      4.824
REMARK  Name = 73659_MaslinicAcid.pdbqt.pdb
REMARK  4 active torsions:
REMARK  status: ('A' for Active; 'I' for Inactive)
REMARK    1  A    between atoms: C_14  and  C_35
REMARK    2  A    between atoms: C_17  and  O_30
REMARK    3  A    between atoms: C_19  and  O_32
REMARK    4  A    between atoms: C_35  and  O_36
REMARK                            x       y       z     vdW  Elec       q    Type
REMARK                         _______ _______ _______ _____ _____    ______ ____
ROOT
ATOM      1  C   UNL     1      59.744  33.512  72.301  0.00  0.00    +0.000 C 
ATOM      2  C   UNL     1      60.665  34.463  73.179  0.00  0.00    +0.000 C 
ATOM      3  C   UNL     1      60.152  35.252  74.388  0.00  0.00    +0.000 C 
ATOM      4  C   UNL     1      60.082  33.632  70.685  0.00  0.00    +0.000 C 
ATOM      5  C   UNL     1      58.699  35.739  74.347  0.00  0.00    +0.000 C 
ATOM      6  C   UNL     1      58.369  33.934  72.592  0.00  0.00    +0.000 C 
ATOM      7  C   UNL     1      57.832  34.961  73.533  0.00  0.00    +0.000 C 
ATOM      8  C   UNL     1      61.674  33.519  70.383  0.00  0.00    +0.000 C 
ATOM      9  C   UNL     1      58.316  37.049  75.019  0.00  0.00    +0.000 C 
ATOM     10  C   UNL     1      62.272  32.742  69.275  0.00  0.00    +0.000 C 
ATOM     11  C   UNL     1      61.996  34.554  72.663  0.00  0.00    +0.000 C 
ATOM     12  C   UNL     1      60.926  36.472  74.547  0.00  0.00    +0.000 C 
ATOM     13  C   UNL     1      59.499  32.541  69.882  0.00  0.00    +0.000 C 
ATOM     14  C   UNL     1      61.576  31.382  68.650  0.00  0.00    +0.000 C 
ATOM     15  C   UNL     1      59.979  32.040  72.833  0.00  0.00    +0.000 C 
ATOM     16  C   UNL     1      60.154  31.550  68.946  0.00  0.00    +0.000 C 
ATOM     17  C   UNL     1      59.436  38.063  75.364  0.00  0.00    +0.000 C 
ATOM     18  C   UNL     1      60.311  34.350  75.635  0.00  0.00    +0.000 C 
ATOM     19  C   UNL     1      60.776  37.791  74.965  0.00  0.00    +0.000 C 
ATOM     20  C   UNL     1      62.417  34.054  71.311  0.00  0.00    +0.000 C 
ATOM     21  C   UNL     1      59.643  35.036  70.084  0.00  0.00    +0.000 C 
ATOM     22  C   UNL     1      63.183  33.432  68.363  0.00  0.00    +0.000 C 
ATOM     23  C   UNL     1      61.948  31.416  67.210  0.00  0.00    +0.000 C 
ATOM     24  C   UNL     1      63.693  33.496  66.941  0.00  0.00    +0.000 C 
ATOM     25  C   UNL     1      57.364  37.842  74.056  0.00  0.00    +0.000 C 
ATOM     26  C   UNL     1      57.543  36.745  76.334  0.00  0.00    +0.000 C 
ATOM     27  C   UNL     1      62.908  32.334  66.412  0.00  0.00    +0.000 C 
ATOM     28  C   UNL     1      65.210  33.242  66.875  0.00  0.00    +0.000 C 
ATOM     29  C   UNL     1      63.287  34.817  66.264  0.00  0.00    +0.000 C 
ENDROOT
BRANCH  17  30
ATOM     30  O   UNL     1      59.219  39.240  76.076  0.00  0.00    +0.000 OA
ATOM     31  H   UNL     1      59.620  40.008  75.618  0.00  0.00    +0.000 HD
ENDBRANCH  17  30
BRANCH  19  32
ATOM     32  O   UNL     1      61.807  38.562  75.409  0.00  0.00    +0.000 OA
ATOM     33  H   UNL     1      61.747  39.469  75.051  0.00  0.00    +0.000 HD
ENDBRANCH  19  32
BRANCH  14  35
ATOM     34  O   UNL     1      61.659  29.446  70.173  0.00  0.00    +0.000 OA
ATOM     35  C   UNL     1      62.205  30.173  69.353  0.00  0.00    +0.000 C 
BRANCH  35  36
ATOM     36  O   UNL     1      63.509  29.974  69.055  0.00  0.00    +0.000 OA
ATOM     37  H   UNL     1      63.520  29.178  68.480  0.00  0.00    +0.000 HD
ENDBRANCH  35  36
ENDBRANCH  14  35
TORSDOF 4
ENDMDL
MODEL 8
REMARK VINA RESULT:      -6.4     43.845     46.537
REMARK  Name = 73659_MaslinicAcid.pdbqt.pdb
REMARK  4 active torsions:
REMARK  status: ('A' for Active; 'I' for Inactive)
REMARK    1  A    between atoms: C_14  and  C_35
REMARK    2  A    between atoms: C_17  and  O_30
REMARK    3  A    between atoms: C_19  and  O_32
REMARK    4  A    between atoms: C_35  and  O_36
REMARK                            x       y       z     vdW  Elec       q    Type
REMARK                         _______ _______ _______ _____ _____    ______ ____
ROOT
ATOM      1  C   UNL     1      20.776  18.401  88.710  0.00  0.00    +0.000 C 
ATOM      2  C   UNL     1      19.570  17.371  88.619  0.00  0.00    +0.000 C 
ATOM      3  C   UNL     1      18.981  16.877  87.294  0.00  0.00    +0.000 C 
ATOM      4  C   UNL     1      20.567  19.504  89.926  0.00  0.00    +0.000 C 
ATOM      5  C   UNL     1      18.993  17.851  86.111  0.00  0.00    +0.000 C 
ATOM      6  C   UNL     1      20.822  19.054  87.397  0.00  0.00    +0.000 C 
ATOM      7  C   UNL     1      20.017  18.835  86.159  0.00  0.00    +0.000 C 
ATOM      8  C   UNL     1      20.158  18.797  91.330  0.00  0.00    +0.000 C 
ATOM      9  C   UNL     1      17.873  17.813  85.082  0.00  0.00    +0.000 C 
ATOM     10  C   UNL     1      20.709  19.164  92.654  0.00  0.00    +0.000 C 
ATOM     11  C   UNL     1      19.056  17.026  89.909  0.00  0.00    +0.000 C 
ATOM     12  C   UNL     1      17.574  16.554  87.468  0.00  0.00    +0.000 C 
ATOM     13  C   UNL     1      21.794  20.251  90.258  0.00  0.00    +0.000 C 
ATOM     14  C   UNL     1      22.226  19.780  92.860  0.00  0.00    +0.000 C 
ATOM     15  C   UNL     1      22.088  17.542  88.929  0.00  0.00    +0.000 C 
ATOM     16  C   UNL     1      22.527  20.405  91.572  0.00  0.00    +0.000 C 
ATOM     17  C   UNL     1      16.548  17.101  85.452  0.00  0.00    +0.000 C 
ATOM     18  C   UNL     1      19.772  15.616  86.873  0.00  0.00    +0.000 C 
ATOM     19  C   UNL     1      16.373  16.583  86.768  0.00  0.00    +0.000 C 
ATOM     20  C   UNL     1      19.403  17.745  91.180  0.00  0.00    +0.000 C 
ATOM     21  C   UNL     1      19.387  20.521  89.614  0.00  0.00    +0.000 C 
ATOM     22  C   UNL     1      19.768  19.497  93.722  0.00  0.00    +0.000 C 
ATOM     23  C   UNL     1      22.085  20.707  94.014  0.00  0.00    +0.000 C 
ATOM     24  C   UNL     1      19.553  20.337  94.961  0.00  0.00    +0.000 C 
ATOM     25  C   UNL     1      17.441  19.287  84.763  0.00  0.00    +0.000 C 
ATOM     26  C   UNL     1      18.402  17.161  83.772  0.00  0.00    +0.000 C 
ATOM     27  C   UNL     1      20.911  20.970  94.992  0.00  0.00    +0.000 C 
ATOM     28  C   UNL     1      19.301  19.458  96.200  0.00  0.00    +0.000 C 
ATOM     29  C   UNL     1      18.441  21.379  94.742  0.00  0.00    +0.000 C 
ENDROOT
BRANCH  17  30
ATOM     30  O   UNL     1      15.499  16.908  84.556  0.00  0.00    +0.000 OA
ATOM     31  H   UNL     1      15.208  17.758  84.165  0.00  0.00    +0.000 HD
ENDBRANCH  17  30
BRANCH  19  32
ATOM     32  O   UNL     1      15.305  15.795  87.071  0.00  0.00    +0.000 OA
ATOM     33  H   UNL     1      15.491  15.234  87.849  0.00  0.00    +0.000 HD
ENDBRANCH  19  32
BRANCH  14  35
ATOM     34  O   UNL     1      23.927  18.552  94.152  0.00  0.00    +0.000 OA
ATOM     35  C   UNL     1      23.159  18.612  93.202  0.00  0.00    +0.000 C 
BRANCH  35  36
ATOM     36  O   UNL     1      23.142  17.605  92.299  0.00  0.00    +0.000 OA
ATOM     37  H   UNL     1      22.534  16.933  92.679  0.00  0.00    +0.000 HD
ENDBRANCH  35  36
ENDBRANCH  14  35
TORSDOF 4
ENDMDL
MODEL 9
REMARK VINA RESULT:      -6.3     61.081     65.369
REMARK  Name = 73659_MaslinicAcid.pdbqt.pdb
REMARK  4 active torsions:
REMARK  status: ('A' for Active; 'I' for Inactive)
REMARK    1  A    between atoms: C_14  and  C_35
REMARK    2  A    between atoms: C_17  and  O_30
REMARK    3  A    between atoms: C_19  and  O_32
REMARK    4  A    between atoms: C_35  and  O_36
REMARK                            x       y       z     vdW  Elec       q    Type
REMARK                         _______ _______ _______ _____ _____    ______ ____
ROOT
ATOM      1  C   UNL     1       3.102  12.800  96.772  0.00  0.00    +0.000 C 
ATOM      2  C   UNL     1       3.872  14.001  96.073  0.00  0.00    +0.000 C 
ATOM      3  C   UNL     1       5.203  14.561  96.582  0.00  0.00    +0.000 C 
ATOM      4  C   UNL     1       1.464  13.038  96.801  0.00  0.00    +0.000 C 
ATOM      5  C   UNL     1       5.448  14.528  98.095  0.00  0.00    +0.000 C 
ATOM      6  C   UNL     1       3.656  12.729  98.129  0.00  0.00    +0.000 C 
ATOM      7  C   UNL     1       4.745  13.508  98.791  0.00  0.00    +0.000 C 
ATOM      8  C   UNL     1       0.884  13.474  95.347  0.00  0.00    +0.000 C 
ATOM      9  C   UNL     1       6.265  15.626  98.759  0.00  0.00    +0.000 C 
ATOM     10  C   UNL     1      -0.362  12.952  94.743  0.00  0.00    +0.000 C 
ATOM     11  C   UNL     1       3.140  14.541  94.968  0.00  0.00    +0.000 C 
ATOM     12  C   UNL     1       5.310  15.971  96.242  0.00  0.00    +0.000 C 
ATOM     13  C   UNL     1       0.701  11.820  97.128  0.00  0.00    +0.000 C 
ATOM     14  C   UNL     1      -0.950  11.441  95.052  0.00  0.00    +0.000 C 
ATOM     15  C   UNL     1       3.482  11.491  95.968  0.00  0.00    +0.000 C 
ATOM     16  C   UNL     1      -0.400  11.116  96.369  0.00  0.00    +0.000 C 
ATOM     17  C   UNL     1       6.481  16.957  97.994  0.00  0.00    +0.000 C 
ATOM     18  C   UNL     1       6.338  13.758  95.904  0.00  0.00    +0.000 C 
ATOM     19  C   UNL     1       5.838  17.157  96.739  0.00  0.00    +0.000 C 
ATOM     20  C   UNL     1       1.704  14.222  94.665  0.00  0.00    +0.000 C 
ATOM     21  C   UNL     1       1.048  14.214  97.784  0.00  0.00    +0.000 C 
ATOM     22  C   UNL     1      -1.367  13.916  94.299  0.00  0.00    +0.000 C 
ATOM     23  C   UNL     1      -2.426  11.609  94.989  0.00  0.00    +0.000 C 
ATOM     24  C   UNL     1      -2.848  14.159  94.114  0.00  0.00    +0.000 C 
ATOM     25  C   UNL     1       5.540  16.056 100.081  0.00  0.00    +0.000 C 
ATOM     26  C   UNL     1       7.670  15.068  99.127  0.00  0.00    +0.000 C 
ATOM     27  C   UNL     1      -3.313  12.804  94.554  0.00  0.00    +0.000 C 
ATOM     28  C   UNL     1      -3.194  14.434  92.639  0.00  0.00    +0.000 C 
ATOM     29  C   UNL     1      -3.352  15.270  95.054  0.00  0.00    +0.000 C 
ENDROOT
BRANCH  17  30
ATOM     30  O   UNL     1       7.300  17.986  98.453  0.00  0.00    +0.000 OA
ATOM     31  H   UNL     1       7.189  18.794  97.910  0.00  0.00    +0.000 HD
ENDBRANCH  17  30
BRANCH  19  32
ATOM     32  O   UNL     1       6.149  18.229  95.959  0.00  0.00    +0.000 OA
ATOM     33  H   UNL     1       6.900  18.730  96.334  0.00  0.00    +0.000 HD
ENDBRANCH  19  32
BRANCH  14  35
ATOM     34  O   UNL     1       0.038  10.858  92.872  0.00  0.00    +0.000 OA
ATOM     35  C   UNL     1      -0.452  10.512  93.939  0.00  0.00    +0.000 C 
BRANCH  35  36
ATOM     36  O   UNL     1      -0.658   9.198  94.179  0.00  0.00    +0.000 OA
ATOM     37  H   UNL     1       0.177   8.879  94.587  0.00  0.00    +0.000 HD
ENDBRANCH  35  36
ENDBRANCH  14  35
TORSDOF 4
ENDMDL
