MODEL 1
REMARK VINA RESULT:      -4.1      0.000      0.000
REMARK  Name = 76617_Cardol.pdbqt.pdb
REMARK  10 active torsions:
REMARK  status: ('A' for Active; 'I' for Inactive)
REMARK    1  A    between atoms: C_1  and  C_2
REMARK    2  A    between atoms: C_3  and  C_4
REMARK    3  A    between atoms: C_5  and  C_6
REMARK    4  A    between atoms: C_7  and  C_8
REMARK    5  A    between atoms: C_8  and  C_9
REMARK    6  A    between atoms: C_10  and  C_11
REMARK    7  A    between atoms: C_14  and  C_15
REMARK    8  A    between atoms: C_15  and  C_16
REMARK    9  A    between atoms: C_19  and  O_24
REMARK   10  A    between atoms: C_20  and  O_22
REMARK                            x       y       z     vdW  Elec       q    Type
REMARK                         _______ _______ _______ _____ _____    ______ ____
ROOT
ATOM      1  C   UNL     1      61.961  35.900  77.065  0.00  0.00    +0.000 C 
ATOM      2  C   UNL     1      60.822  35.761  77.415  0.00  0.00    +0.000 C 
ENDROOT
BRANCH   1   3
ATOM      3  C   UNL     1      63.415  36.078  76.619  0.00  0.00    +0.000 C 
ATOM      4  C   UNL     1      64.871  36.255  76.173  0.00  0.00    +0.000 C 
BRANCH   4   5
ATOM      5  C   UNL     1      66.325  36.431  75.726  0.00  0.00    +0.000 C 
ATOM      6  C   UNL     1      67.779  36.606  75.279  0.00  0.00    +0.000 C 
BRANCH   6   7
ATOM      7  C   UNL     1      69.234  36.781  74.831  0.00  0.00    +0.000 C 
ATOM      8  C   UNL     1      70.688  36.955  74.385  0.00  0.00    +0.000 C 
BRANCH   8   9
ATOM      9  C   UNL     1      72.142  37.129  73.938  0.00  0.00    +0.000 C 
BRANCH   9  10
ATOM     10  C   UNL     1      73.598  37.304  73.492  0.00  0.00    +0.000 C 
ATOM     11  C   UNL     1      75.052  37.476  73.046  0.00  0.00    +0.000 C 
BRANCH  11  12
ATOM     12  C   UNL     1      76.508  37.650  72.601  0.00  0.00    +0.000 C 
ATOM     13  C   UNL     1      77.963  37.822  72.155  0.00  0.00    +0.000 C 
ATOM     14  C   UNL     1      79.418  37.995  71.710  0.00  0.00    +0.000 C 
ENDBRANCH  11  12
ENDBRANCH   9  10
ENDBRANCH   8   9
ENDBRANCH   6   7
ENDBRANCH   4   5
ENDBRANCH   1   3
BRANCH   2  15
ATOM     15  C   UNL     1      59.367  35.582  77.862  0.00  0.00    +0.000 C 
BRANCH  15  16
ATOM     16  C   UNL     1      58.015  35.417  78.276  0.00  0.00    +0.000 A 
ATOM     17  C   UNL     1      57.047  35.030  77.351  0.00  0.00    +0.000 A 
ATOM     18  C   UNL     1      57.666  35.642  79.606  0.00  0.00    +0.000 A 
ATOM     19  C   UNL     1      56.340  35.477  80.003  0.00  0.00    +0.000 A 
ATOM     20  C   UNL     1      55.728  34.870  77.768  0.00  0.00    +0.000 A 
ATOM     21  C   UNL     1      55.363  35.092  79.091  0.00  0.00    +0.000 A 
BRANCH  20  22
ATOM     22  O   UNL     1      54.762  34.492  76.880  0.00  0.00    +0.000 OA
ATOM     23  H   UNL     1      54.694  35.174  76.190  0.00  0.00    +0.000 HD
ENDBRANCH  20  22
BRANCH  19  24
ATOM     24  O   UNL     1      55.971  35.692  81.300  0.00  0.00    +0.000 OA
ATOM     25  H   UNL     1      56.135  34.877  81.804  0.00  0.00    +0.000 HD
ENDBRANCH  19  24
ENDBRANCH  15  16
ENDBRANCH   2  15
TORSDOF 10
ENDMDL
MODEL 2
REMARK VINA RESULT:      -4.0     46.564     50.118
REMARK  Name = 76617_Cardol.pdbqt.pdb
REMARK  10 active torsions:
REMARK  status: ('A' for Active; 'I' for Inactive)
REMARK    1  A    between atoms: C_1  and  C_2
REMARK    2  A    between atoms: C_3  and  C_4
REMARK    3  A    between atoms: C_5  and  C_6
REMARK    4  A    between atoms: C_7  and  C_8
REMARK    5  A    between atoms: C_8  and  C_9
REMARK    6  A    between atoms: C_10  and  C_11
REMARK    7  A    between atoms: C_14  and  C_15
REMARK    8  A    between atoms: C_15  and  C_16
REMARK    9  A    between atoms: C_19  and  O_24
REMARK   10  A    between atoms: C_20  and  O_22
REMARK                            x       y       z     vdW  Elec       q    Type
REMARK                         _______ _______ _______ _____ _____    ______ ____
ROOT
ATOM      1  C   UNL     1      20.006  17.354  90.148  0.00  0.00    +0.000 C 
ATOM      2  C   UNL     1      19.253  17.032  89.270  0.00  0.00    +0.000 C 
ENDROOT
BRANCH   1   3
ATOM      3  C   UNL     1      20.967  17.765  91.267  0.00  0.00    +0.000 C 
ATOM      4  C   UNL     1      21.929  18.175  92.387  0.00  0.00    +0.000 C 
BRANCH   4   5
ATOM      5  C   UNL     1      22.892  18.586  93.504  0.00  0.00    +0.000 C 
ATOM      6  C   UNL     1      23.855  18.996  94.622  0.00  0.00    +0.000 C 
BRANCH   6   7
ATOM      7  C   UNL     1      24.819  19.407  95.740  0.00  0.00    +0.000 C 
ATOM      8  C   UNL     1      25.781  19.818  96.858  0.00  0.00    +0.000 C 
BRANCH   8   9
ATOM      9  C   UNL     1      26.744  20.229  97.975  0.00  0.00    +0.000 C 
BRANCH   9  10
ATOM     10  C   UNL     1      27.708  20.641  99.093  0.00  0.00    +0.000 C 
ATOM     11  C   UNL     1      28.672  21.052 100.209  0.00  0.00    +0.000 C 
BRANCH  11  12
ATOM     12  C   UNL     1      29.637  21.464 101.326  0.00  0.00    +0.000 C 
ATOM     13  C   UNL     1      30.600  21.874 102.443  0.00  0.00    +0.000 C 
ATOM     14  C   UNL     1      31.565  22.285 103.560  0.00  0.00    +0.000 C 
ENDBRANCH  11  12
ENDBRANCH   9  10
ENDBRANCH   8   9
ENDBRANCH   6   7
ENDBRANCH   4   5
ENDBRANCH   1   3
BRANCH   2  15
ATOM     15  C   UNL     1      18.291  16.620  88.151  0.00  0.00    +0.000 C 
BRANCH  15  16
ATOM     16  C   UNL     1      17.397  16.239  87.110  0.00  0.00    +0.000 A 
ATOM     17  C   UNL     1      16.977  14.914  87.007  0.00  0.00    +0.000 A 
ATOM     18  C   UNL     1      16.946  17.192  86.200  0.00  0.00    +0.000 A 
ATOM     19  C   UNL     1      16.071  16.809  85.186  0.00  0.00    +0.000 A 
ATOM     20  C   UNL     1      16.102  14.551  85.985  0.00  0.00    +0.000 A 
ATOM     21  C   UNL     1      15.643  15.491  85.069  0.00  0.00    +0.000 A 
BRANCH  20  22
ATOM     22  O   UNL     1      15.676  13.260  85.863  0.00  0.00    +0.000 OA
ATOM     23  H   UNL     1      15.093  13.056  86.614  0.00  0.00    +0.000 HD
ENDBRANCH  20  22
BRANCH  19  24
ATOM     24  O   UNL     1      15.614  17.724  84.280  0.00  0.00    +0.000 OA
ATOM     25  H   UNL     1      14.786  18.104  84.621  0.00  0.00    +0.000 HD
ENDBRANCH  19  24
ENDBRANCH  15  16
ENDBRANCH   2  15
TORSDOF 10
ENDMDL
MODEL 3
REMARK VINA RESULT:      -3.9     24.082     35.851
REMARK  Name = 76617_Cardol.pdbqt.pdb
REMARK  10 active torsions:
REMARK  status: ('A' for Active; 'I' for Inactive)
REMARK    1  A    between atoms: C_1  and  C_2
REMARK    2  A    between atoms: C_3  and  C_4
REMARK    3  A    between atoms: C_5  and  C_6
REMARK    4  A    between atoms: C_7  and  C_8
REMARK    5  A    between atoms: C_8  and  C_9
REMARK    6  A    between atoms: C_10  and  C_11
REMARK    7  A    between atoms: C_14  and  C_15
REMARK    8  A    between atoms: C_15  and  C_16
REMARK    9  A    between atoms: C_19  and  O_24
REMARK   10  A    between atoms: C_20  and  O_22
REMARK                            x       y       z     vdW  Elec       q    Type
REMARK                         _______ _______ _______ _____ _____    ______ ____
ROOT
ATOM      1  C   UNL     1      39.652  23.967  83.555  0.00  0.00    +0.000 C 
ATOM      2  C   UNL     1      40.795  24.333  83.544  0.00  0.00    +0.000 C 
ENDROOT
BRANCH   1   3
ATOM      3  C   UNL     1      38.194  23.500  83.568  0.00  0.00    +0.000 C 
ATOM      4  C   UNL     1      36.735  23.032  83.581  0.00  0.00    +0.000 C 
BRANCH   4   5
ATOM      5  C   UNL     1      35.277  22.563  83.596  0.00  0.00    +0.000 C 
ATOM      6  C   UNL     1      33.820  22.094  83.611  0.00  0.00    +0.000 C 
BRANCH   6   7
ATOM      7  C   UNL     1      32.361  21.626  83.627  0.00  0.00    +0.000 C 
ATOM      8  C   UNL     1      30.903  21.157  83.643  0.00  0.00    +0.000 C 
BRANCH   8   9
ATOM      9  C   UNL     1      29.446  20.688  83.659  0.00  0.00    +0.000 C 
BRANCH   9  10
ATOM     10  C   UNL     1      27.987  20.218  83.676  0.00  0.00    +0.000 C 
ATOM     11  C   UNL     1      26.530  19.747  83.691  0.00  0.00    +0.000 C 
BRANCH  11  12
ATOM     12  C   UNL     1      25.072  19.277  83.707  0.00  0.00    +0.000 C 
ATOM     13  C   UNL     1      23.615  18.807  83.722  0.00  0.00    +0.000 C 
ATOM     14  C   UNL     1      22.157  18.337  83.738  0.00  0.00    +0.000 C 
ENDBRANCH  11  12
ENDBRANCH   9  10
ENDBRANCH   8   9
ENDBRANCH   6   7
ENDBRANCH   4   5
ENDBRANCH   1   3
BRANCH   2  15
ATOM     15  C   UNL     1      42.254  24.800  83.531  0.00  0.00    +0.000 C 
BRANCH  15  16
ATOM     16  C   UNL     1      43.611  25.234  83.519  0.00  0.00    +0.000 A 
ATOM     17  C   UNL     1      43.919  26.559  83.821  0.00  0.00    +0.000 A 
ATOM     18  C   UNL     1      44.624  24.331  83.206  0.00  0.00    +0.000 A 
ATOM     19  C   UNL     1      45.948  24.764  83.196  0.00  0.00    +0.000 A 
ATOM     20  C   UNL     1      45.248  26.973  83.806  0.00  0.00    +0.000 A 
ATOM     21  C   UNL     1      46.272  26.084  83.495  0.00  0.00    +0.000 A 
BRANCH  20  22
ATOM     22  O   UNL     1      45.576  28.266  84.098  0.00  0.00    +0.000 OA
ATOM     23  H   UNL     1      45.498  28.393  85.060  0.00  0.00    +0.000 HD
ENDBRANCH  20  22
BRANCH  19  24
ATOM     24  O   UNL     1      46.960  23.900  82.892  0.00  0.00    +0.000 OA
ATOM     25  H   UNL     1      47.192  24.017  81.954  0.00  0.00    +0.000 HD
ENDBRANCH  19  24
ENDBRANCH  15  16
ENDBRANCH   2  15
TORSDOF 10
ENDMDL
MODEL 4
REMARK VINA RESULT:      -3.9      3.585      3.664
REMARK  Name = 76617_Cardol.pdbqt.pdb
REMARK  10 active torsions:
REMARK  status: ('A' for Active; 'I' for Inactive)
REMARK    1  A    between atoms: C_1  and  C_2
REMARK    2  A    between atoms: C_3  and  C_4
REMARK    3  A    between atoms: C_5  and  C_6
REMARK    4  A    between atoms: C_7  and  C_8
REMARK    5  A    between atoms: C_8  and  C_9
REMARK    6  A    between atoms: C_10  and  C_11
REMARK    7  A    between atoms: C_14  and  C_15
REMARK    8  A    between atoms: C_15  and  C_16
REMARK    9  A    between atoms: C_19  and  O_24
REMARK   10  A    between atoms: C_20  and  O_22
REMARK                            x       y       z     vdW  Elec       q    Type
REMARK                         _______ _______ _______ _____ _____    ______ ____
ROOT
ATOM      1  C   UNL     1      61.989  35.637  76.812  0.00  0.00    +0.000 C 
ATOM      2  C   UNL     1      60.811  35.862  76.834  0.00  0.00    +0.000 C 
ENDROOT
BRANCH   1   3
ATOM      3  C   UNL     1      63.493  35.350  76.783  0.00  0.00    +0.000 C 
ATOM      4  C   UNL     1      64.998  35.063  76.752  0.00  0.00    +0.000 C 
BRANCH   4   5
ATOM      5  C   UNL     1      66.502  34.778  76.722  0.00  0.00    +0.000 C 
ATOM      6  C   UNL     1      68.006  34.493  76.691  0.00  0.00    +0.000 C 
BRANCH   6   7
ATOM      7  C   UNL     1      69.511  34.207  76.661  0.00  0.00    +0.000 C 
ATOM      8  C   UNL     1      71.015  33.923  76.630  0.00  0.00    +0.000 C 
BRANCH   8   9
ATOM      9  C   UNL     1      72.520  33.638  76.600  0.00  0.00    +0.000 C 
BRANCH   9  10
ATOM     10  C   UNL     1      74.025  33.355  76.569  0.00  0.00    +0.000 C 
ATOM     11  C   UNL     1      75.529  33.071  76.537  0.00  0.00    +0.000 C 
BRANCH  11  12
ATOM     12  C   UNL     1      77.035  32.787  76.505  0.00  0.00    +0.000 C 
ATOM     13  C   UNL     1      78.539  32.503  76.475  0.00  0.00    +0.000 C 
ATOM     14  C   UNL     1      80.044  32.218  76.444  0.00  0.00    +0.000 C 
ENDBRANCH  11  12
ENDBRANCH   9  10
ENDBRANCH   8   9
ENDBRANCH   6   7
ENDBRANCH   4   5
ENDBRANCH   1   3
BRANCH   2  15
ATOM     15  C   UNL     1      59.305  36.148  76.864  0.00  0.00    +0.000 C 
BRANCH  15  16
ATOM     16  C   UNL     1      57.906  36.414  76.890  0.00  0.00    +0.000 A 
ATOM     17  C   UNL     1      57.218  36.630  75.698  0.00  0.00    +0.000 A 
ATOM     18  C   UNL     1      57.232  36.454  78.109  0.00  0.00    +0.000 A 
ATOM     19  C   UNL     1      55.864  36.714  78.125  0.00  0.00    +0.000 A 
ATOM     20  C   UNL     1      55.850  36.888  75.736  0.00  0.00    +0.000 A 
ATOM     21  C   UNL     1      55.162  36.933  76.944  0.00  0.00    +0.000 A 
BRANCH  20  22
ATOM     22  O   UNL     1      55.153  37.103  74.582  0.00  0.00    +0.000 OA
ATOM     23  H   UNL     1      55.789  37.272  73.865  0.00  0.00    +0.000 HD
ENDBRANCH  20  22
BRANCH  19  24
ATOM     24  O   UNL     1      55.179  36.761  79.306  0.00  0.00    +0.000 OA
ATOM     25  H   UNL     1      55.415  37.586  79.764  0.00  0.00    +0.000 HD
ENDBRANCH  19  24
ENDBRANCH  15  16
ENDBRANCH   2  15
TORSDOF 10
ENDMDL
MODEL 5
REMARK VINA RESULT:      -3.9      1.267      2.080
REMARK  Name = 76617_Cardol.pdbqt.pdb
REMARK  10 active torsions:
REMARK  status: ('A' for Active; 'I' for Inactive)
REMARK    1  A    between atoms: C_1  and  C_2
REMARK    2  A    between atoms: C_3  and  C_4
REMARK    3  A    between atoms: C_5  and  C_6
REMARK    4  A    between atoms: C_7  and  C_8
REMARK    5  A    between atoms: C_8  and  C_9
REMARK    6  A    between atoms: C_10  and  C_11
REMARK    7  A    between atoms: C_14  and  C_15
REMARK    8  A    between atoms: C_15  and  C_16
REMARK    9  A    between atoms: C_19  and  O_24
REMARK   10  A    between atoms: C_20  and  O_22
REMARK                            x       y       z     vdW  Elec       q    Type
REMARK                         _______ _______ _______ _____ _____    ______ ____
ROOT
ATOM      1  C   UNL     1      62.119  35.780  77.020  0.00  0.00    +0.000 C 
ATOM      2  C   UNL     1      60.949  35.774  77.288  0.00  0.00    +0.000 C 
ENDROOT
BRANCH   1   3
ATOM      3  C   UNL     1      63.612  35.790  76.679  0.00  0.00    +0.000 C 
ATOM      4  C   UNL     1      65.105  35.798  76.338  0.00  0.00    +0.000 C 
BRANCH   4   5
ATOM      5  C   UNL     1      66.598  35.806  75.995  0.00  0.00    +0.000 C 
ATOM      6  C   UNL     1      68.091  35.814  75.654  0.00  0.00    +0.000 C 
BRANCH   6   7
ATOM      7  C   UNL     1      69.584  35.823  75.312  0.00  0.00    +0.000 C 
ATOM      8  C   UNL     1      71.077  35.831  74.972  0.00  0.00    +0.000 C 
BRANCH   8   9
ATOM      9  C   UNL     1      72.570  35.840  74.631  0.00  0.00    +0.000 C 
BRANCH   9  10
ATOM     10  C   UNL     1      74.064  35.849  74.291  0.00  0.00    +0.000 C 
ATOM     11  C   UNL     1      75.557  35.858  73.952  0.00  0.00    +0.000 C 
BRANCH  11  12
ATOM     12  C   UNL     1      77.051  35.868  73.612  0.00  0.00    +0.000 C 
ATOM     13  C   UNL     1      78.544  35.878  73.274  0.00  0.00    +0.000 C 
ATOM     14  C   UNL     1      80.038  35.888  72.934  0.00  0.00    +0.000 C 
ENDBRANCH  11  12
ENDBRANCH   9  10
ENDBRANCH   8   9
ENDBRANCH   6   7
ENDBRANCH   4   5
ENDBRANCH   1   3
BRANCH   2  15
ATOM     15  C   UNL     1      59.456  35.763  77.630  0.00  0.00    +0.000 C 
BRANCH  15  16
ATOM     16  C   UNL     1      58.067  35.754  77.948  0.00  0.00    +0.000 A 
ATOM     17  C   UNL     1      57.658  35.576  79.268  0.00  0.00    +0.000 A 
ATOM     18  C   UNL     1      57.124  35.925  76.936  0.00  0.00    +0.000 A 
ATOM     19  C   UNL     1      55.769  35.915  77.256  0.00  0.00    +0.000 A 
ATOM     20  C   UNL     1      56.298  35.570  79.567  0.00  0.00    +0.000 A 
ATOM     21  C   UNL     1      55.344  35.738  78.569  0.00  0.00    +0.000 A 
BRANCH  20  22
ATOM     22  O   UNL     1      55.872  35.397  80.852  0.00  0.00    +0.000 OA
ATOM     23  H   UNL     1      55.279  36.134  81.081  0.00  0.00    +0.000 HD
ENDBRANCH  20  22
BRANCH  19  24
ATOM     24  O   UNL     1      54.824  36.079  76.284  0.00  0.00    +0.000 OA
ATOM     25  H   UNL     1      54.697  37.032  76.138  0.00  0.00    +0.000 HD
ENDBRANCH  19  24
ENDBRANCH  15  16
ENDBRANCH   2  15
TORSDOF 10
ENDMDL
MODEL 6
REMARK VINA RESULT:      -3.7     12.365     19.300
REMARK  Name = 76617_Cardol.pdbqt.pdb
REMARK  10 active torsions:
REMARK  status: ('A' for Active; 'I' for Inactive)
REMARK    1  A    between atoms: C_1  and  C_2
REMARK    2  A    between atoms: C_3  and  C_4
REMARK    3  A    between atoms: C_5  and  C_6
REMARK    4  A    between atoms: C_7  and  C_8
REMARK    5  A    between atoms: C_8  and  C_9
REMARK    6  A    between atoms: C_10  and  C_11
REMARK    7  A    between atoms: C_14  and  C_15
REMARK    8  A    between atoms: C_15  and  C_16
REMARK    9  A    between atoms: C_19  and  O_24
REMARK   10  A    between atoms: C_20  and  O_22
REMARK                            x       y       z     vdW  Elec       q    Type
REMARK                         _______ _______ _______ _____ _____    ______ ____
ROOT
ATOM      1  C   UNL     1      57.237  38.243  85.386  0.00  0.00    +0.000 C 
ATOM      2  C   UNL     1      57.252  37.533  84.420  0.00  0.00    +0.000 C 
ENDROOT
BRANCH   1   3
ATOM      3  C   UNL     1      57.216  39.151  86.620  0.00  0.00    +0.000 C 
ATOM      4  C   UNL     1      57.196  40.059  87.853  0.00  0.00    +0.000 C 
BRANCH   4   5
ATOM      5  C   UNL     1      57.176  40.968  89.086  0.00  0.00    +0.000 C 
ATOM      6  C   UNL     1      57.156  41.876  90.318  0.00  0.00    +0.000 C 
BRANCH   6   7
ATOM      7  C   UNL     1      57.137  42.785  91.551  0.00  0.00    +0.000 C 
ATOM      8  C   UNL     1      57.118  43.694  92.784  0.00  0.00    +0.000 C 
BRANCH   8   9
ATOM      9  C   UNL     1      57.100  44.602  94.017  0.00  0.00    +0.000 C 
BRANCH   9  10
ATOM     10  C   UNL     1      57.081  45.510  95.251  0.00  0.00    +0.000 C 
ATOM     11  C   UNL     1      57.062  46.418  96.484  0.00  0.00    +0.000 C 
BRANCH  11  12
ATOM     12  C   UNL     1      57.044  47.326  97.717  0.00  0.00    +0.000 C 
ATOM     13  C   UNL     1      57.025  48.234  98.950  0.00  0.00    +0.000 C 
ATOM     14  C   UNL     1      57.007  49.142 100.184  0.00  0.00    +0.000 C 
ENDBRANCH  11  12
ENDBRANCH   9  10
ENDBRANCH   8   9
ENDBRANCH   6   7
ENDBRANCH   4   5
ENDBRANCH   1   3
BRANCH   2  15
ATOM     15  C   UNL     1      57.274  36.624  83.185  0.00  0.00    +0.000 C 
BRANCH  15  16
ATOM     16  C   UNL     1      57.294  35.781  82.038  0.00  0.00    +0.000 A 
ATOM     17  C   UNL     1      56.244  35.830  81.122  0.00  0.00    +0.000 A 
ATOM     18  C   UNL     1      58.364  34.911  81.836  0.00  0.00    +0.000 A 
ATOM     19  C   UNL     1      58.374  34.091  80.710  0.00  0.00    +0.000 A 
ATOM     20  C   UNL     1      56.274  35.001  80.003  0.00  0.00    +0.000 A 
ATOM     21  C   UNL     1      57.334  34.127  79.787  0.00  0.00    +0.000 A 
BRANCH  20  22
ATOM     22  O   UNL     1      55.258  35.031  79.092  0.00  0.00    +0.000 OA
ATOM     23  H   UNL     1      55.408  35.779  78.488  0.00  0.00    +0.000 HD
ENDBRANCH  20  22
BRANCH  19  24
ATOM     24  O   UNL     1      59.410  33.229  80.489  0.00  0.00    +0.000 OA
ATOM     25  H   UNL     1      60.088  33.383  81.169  0.00  0.00    +0.000 HD
ENDBRANCH  19  24
ENDBRANCH  15  16
ENDBRANCH   2  15
TORSDOF 10
ENDMDL
MODEL 7
REMARK VINA RESULT:      -3.6     49.792     51.532
REMARK  Name = 76617_Cardol.pdbqt.pdb
REMARK  10 active torsions:
REMARK  status: ('A' for Active; 'I' for Inactive)
REMARK    1  A    between atoms: C_1  and  C_2
REMARK    2  A    between atoms: C_3  and  C_4
REMARK    3  A    between atoms: C_5  and  C_6
REMARK    4  A    between atoms: C_7  and  C_8
REMARK    5  A    between atoms: C_8  and  C_9
REMARK    6  A    between atoms: C_10  and  C_11
REMARK    7  A    between atoms: C_14  and  C_15
REMARK    8  A    between atoms: C_15  and  C_16
REMARK    9  A    between atoms: C_19  and  O_24
REMARK   10  A    between atoms: C_20  and  O_22
REMARK                            x       y       z     vdW  Elec       q    Type
REMARK                         _______ _______ _______ _____ _____    ______ ____
ROOT
ATOM      1  C   UNL     1      19.261  17.394  90.552  0.00  0.00    +0.000 C 
ATOM      2  C   UNL     1      18.683  17.043  89.561  0.00  0.00    +0.000 C 
ENDROOT
BRANCH   1   3
ATOM      3  C   UNL     1      19.999  17.843  91.816  0.00  0.00    +0.000 C 
ATOM      4  C   UNL     1      20.738  18.291  93.082  0.00  0.00    +0.000 C 
BRANCH   4   5
ATOM      5  C   UNL     1      21.478  18.740  94.345  0.00  0.00    +0.000 C 
ATOM      6  C   UNL     1      22.218  19.189  95.608  0.00  0.00    +0.000 C 
BRANCH   6   7
ATOM      7  C   UNL     1      22.959  19.639  96.872  0.00  0.00    +0.000 C 
ATOM      8  C   UNL     1      23.699  20.089  98.134  0.00  0.00    +0.000 C 
BRANCH   8   9
ATOM      9  C   UNL     1      24.439  20.539  99.397  0.00  0.00    +0.000 C 
BRANCH   9  10
ATOM     10  C   UNL     1      25.180  20.988 100.661  0.00  0.00    +0.000 C 
ATOM     11  C   UNL     1      25.921  21.436 101.924  0.00  0.00    +0.000 C 
BRANCH  11  12
ATOM     12  C   UNL     1      26.661  21.884 103.188  0.00  0.00    +0.000 C 
ATOM     13  C   UNL     1      27.402  22.331 104.452  0.00  0.00    +0.000 C 
ATOM     14  C   UNL     1      28.142  22.779 105.716  0.00  0.00    +0.000 C 
ENDBRANCH  11  12
ENDBRANCH   9  10
ENDBRANCH   8   9
ENDBRANCH   6   7
ENDBRANCH   4   5
ENDBRANCH   1   3
BRANCH   2  15
ATOM     15  C   UNL     1      17.944  16.593  88.296  0.00  0.00    +0.000 C 
BRANCH  15  16
ATOM     16  C   UNL     1      17.256  16.175  87.121  0.00  0.00    +0.000 A 
ATOM     17  C   UNL     1      17.102  17.060  86.056  0.00  0.00    +0.000 A 
ATOM     18  C   UNL     1      16.741  14.883  87.042  0.00  0.00    +0.000 A 
ATOM     19  C   UNL     1      16.070  14.484  85.888  0.00  0.00    +0.000 A 
ATOM     20  C   UNL     1      16.428  16.642  84.911  0.00  0.00    +0.000 A 
ATOM     21  C   UNL     1      15.907  15.356  84.816  0.00  0.00    +0.000 A 
BRANCH  20  22
ATOM     22  O   UNL     1      16.264  17.490  83.854  0.00  0.00    +0.000 OA
ATOM     23  H   UNL     1      16.813  18.279  84.004  0.00  0.00    +0.000 HD
ENDBRANCH  20  22
BRANCH  19  24
ATOM     24  O   UNL     1      15.555  13.223  85.785  0.00  0.00    +0.000 OA
ATOM     25  H   UNL     1      16.238  12.644  85.404  0.00  0.00    +0.000 HD
ENDBRANCH  19  24
ENDBRANCH  15  16
ENDBRANCH   2  15
TORSDOF 10
ENDMDL
MODEL 8
REMARK VINA RESULT:      -3.6     24.812     36.035
REMARK  Name = 76617_Cardol.pdbqt.pdb
REMARK  10 active torsions:
REMARK  status: ('A' for Active; 'I' for Inactive)
REMARK    1  A    between atoms: C_1  and  C_2
REMARK    2  A    between atoms: C_3  and  C_4
REMARK    3  A    between atoms: C_5  and  C_6
REMARK    4  A    between atoms: C_7  and  C_8
REMARK    5  A    between atoms: C_8  and  C_9
REMARK    6  A    between atoms: C_10  and  C_11
REMARK    7  A    between atoms: C_14  and  C_15
REMARK    8  A    between atoms: C_15  and  C_16
REMARK    9  A    between atoms: C_19  and  O_24
REMARK   10  A    between atoms: C_20  and  O_22
REMARK                            x       y       z     vdW  Elec       q    Type
REMARK                         _______ _______ _______ _____ _____    ______ ____
ROOT
ATOM      1  C   UNL     1      39.728  23.272  84.761  0.00  0.00    +0.000 C 
ATOM      2  C   UNL     1      40.593  24.090  84.616  0.00  0.00    +0.000 C 
ENDROOT
BRANCH   1   3
ATOM      3  C   UNL     1      38.624  22.227  84.947  0.00  0.00    +0.000 C 
ATOM      4  C   UNL     1      37.519  21.182  85.132  0.00  0.00    +0.000 C 
BRANCH   4   5
ATOM      5  C   UNL     1      36.416  20.136  85.319  0.00  0.00    +0.000 C 
ATOM      6  C   UNL     1      35.313  19.091  85.504  0.00  0.00    +0.000 C 
BRANCH   6   7
ATOM      7  C   UNL     1      34.208  18.045  85.689  0.00  0.00    +0.000 C 
ATOM      8  C   UNL     1      33.106  16.998  85.874  0.00  0.00    +0.000 C 
BRANCH   8   9
ATOM      9  C   UNL     1      32.003  15.952  86.059  0.00  0.00    +0.000 C 
BRANCH   9  10
ATOM     10  C   UNL     1      30.899  14.906  86.245  0.00  0.00    +0.000 C 
ATOM     11  C   UNL     1      29.796  13.861  86.432  0.00  0.00    +0.000 C 
BRANCH  11  12
ATOM     12  C   UNL     1      28.693  12.814  86.618  0.00  0.00    +0.000 C 
ATOM     13  C   UNL     1      27.590  11.768  86.803  0.00  0.00    +0.000 C 
ATOM     14  C   UNL     1      26.486  10.721  86.989  0.00  0.00    +0.000 C 
ENDBRANCH  11  12
ENDBRANCH   9  10
ENDBRANCH   8   9
ENDBRANCH   6   7
ENDBRANCH   4   5
ENDBRANCH   1   3
BRANCH   2  15
ATOM     15  C   UNL     1      41.699  25.135  84.430  0.00  0.00    +0.000 C 
BRANCH  15  16
ATOM     16  C   UNL     1      42.727  26.105  84.256  0.00  0.00    +0.000 A 
ATOM     17  C   UNL     1      42.403  27.459  84.205  0.00  0.00    +0.000 A 
ATOM     18  C   UNL     1      44.054  25.695  84.139  0.00  0.00    +0.000 A 
ATOM     19  C   UNL     1      45.053  26.651  83.969  0.00  0.00    +0.000 A 
ATOM     20  C   UNL     1      43.416  28.399  84.036  0.00  0.00    +0.000 A 
ATOM     21  C   UNL     1      44.745  28.007  83.916  0.00  0.00    +0.000 A 
BRANCH  20  22
ATOM     22  O   UNL     1      43.124  29.732  83.983  0.00  0.00    +0.000 OA
ATOM     23  H   UNL     1      42.287  29.882  84.456  0.00  0.00    +0.000 HD
ENDBRANCH  20  22
BRANCH  19  24
ATOM     24  O   UNL     1      46.360  26.276  83.851  0.00  0.00    +0.000 OA
ATOM     25  H   UNL     1      46.614  25.790  84.655  0.00  0.00    +0.000 HD
ENDBRANCH  19  24
ENDBRANCH  15  16
ENDBRANCH   2  15
TORSDOF 10
ENDMDL
MODEL 9
REMARK VINA RESULT:      -3.6     48.034     56.534
REMARK  Name = 76617_Cardol.pdbqt.pdb
REMARK  10 active torsions:
REMARK  status: ('A' for Active; 'I' for Inactive)
REMARK    1  A    between atoms: C_1  and  C_2
REMARK    2  A    between atoms: C_3  and  C_4
REMARK    3  A    between atoms: C_5  and  C_6
REMARK    4  A    between atoms: C_7  and  C_8
REMARK    5  A    between atoms: C_8  and  C_9
REMARK    6  A    between atoms: C_10  and  C_11
REMARK    7  A    between atoms: C_14  and  C_15
REMARK    8  A    between atoms: C_15  and  C_16
REMARK    9  A    between atoms: C_19  and  O_24
REMARK   10  A    between atoms: C_20  and  O_22
REMARK                            x       y       z     vdW  Elec       q    Type
REMARK                         _______ _______ _______ _____ _____    ______ ____
ROOT
ATOM      1  C   UNL     1      16.630  11.235  99.987  0.00  0.00    +0.000 C 
ATOM      2  C   UNL     1      15.542  10.741 100.093  0.00  0.00    +0.000 C 
ENDROOT
BRANCH   1   3
ATOM      3  C   UNL     1      18.019  11.865  99.850  0.00  0.00    +0.000 C 
ATOM      4  C   UNL     1      19.410  12.494  99.714  0.00  0.00    +0.000 C 
BRANCH   4   5
ATOM      5  C   UNL     1      20.799  13.122  99.576  0.00  0.00    +0.000 C 
ATOM      6  C   UNL     1      22.189  13.751  99.437  0.00  0.00    +0.000 C 
BRANCH   6   7
ATOM      7  C   UNL     1      23.579  14.381  99.298  0.00  0.00    +0.000 C 
ATOM      8  C   UNL     1      24.968  15.010  99.159  0.00  0.00    +0.000 C 
BRANCH   8   9
ATOM      9  C   UNL     1      26.356  15.640  99.020  0.00  0.00    +0.000 C 
BRANCH   9  10
ATOM     10  C   UNL     1      27.746  16.271  98.881  0.00  0.00    +0.000 C 
ATOM     11  C   UNL     1      29.133  16.903  98.743  0.00  0.00    +0.000 C 
BRANCH  11  12
ATOM     12  C   UNL     1      30.522  17.536  98.604  0.00  0.00    +0.000 C 
ATOM     13  C   UNL     1      31.910  18.166  98.464  0.00  0.00    +0.000 C 
ATOM     14  C   UNL     1      33.299  18.798  98.325  0.00  0.00    +0.000 C 
ENDBRANCH  11  12
ENDBRANCH   9  10
ENDBRANCH   8   9
ENDBRANCH   6   7
ENDBRANCH   4   5
ENDBRANCH   1   3
BRANCH   2  15
ATOM     15  C   UNL     1      14.151  10.112 100.229  0.00  0.00    +0.000 C 
BRANCH  15  16
ATOM     16  C   UNL     1      12.859   9.527 100.355  0.00  0.00    +0.000 A 
ATOM     17  C   UNL     1      11.772  10.317 100.723  0.00  0.00    +0.000 A 
ATOM     18  C   UNL     1      12.687   8.166 100.108  0.00  0.00    +0.000 A 
ATOM     19  C   UNL     1      11.420   7.603 100.233  0.00  0.00    +0.000 A 
ATOM     20  C   UNL     1      10.512   9.735 100.842  0.00  0.00    +0.000 A 
ATOM     21  C   UNL     1      10.324   8.378 100.600  0.00  0.00    +0.000 A 
BRANCH  20  22
ATOM     22  O   UNL     1       9.432  10.488 101.201  0.00  0.00    +0.000 OA
ATOM     23  H   UNL     1       9.121  10.973 100.417  0.00  0.00    +0.000 HD
ENDBRANCH  20  22
BRANCH  19  24
ATOM     24  O   UNL     1      11.224   6.272  99.998  0.00  0.00    +0.000 OA
ATOM     25  H   UNL     1      11.053   5.833 100.850  0.00  0.00    +0.000 HD
ENDBRANCH  19  24
ENDBRANCH  15  16
ENDBRANCH   2  15
TORSDOF 10
ENDMDL
