MODEL 1
REMARK VINA RESULT:      -5.0      0.000      0.000
REMARK  Name = 85668777_Hyaluronidase.pdbqt.pdb
REMARK  5 active torsions:
REMARK  status: ('A' for Active; 'I' for Inactive)
REMARK    1  A    between atoms: N_1  and  C_13
REMARK    2  A    between atoms: C_14  and  C_15
REMARK    3  A    between atoms: C_15  and  C_16
REMARK    4  A    between atoms: C_17  and  C_19
REMARK    5  A    between atoms: C_19  and  O_20
REMARK                            x       y       z     vdW  Elec       q    Type
REMARK                         _______ _______ _______ _____ _____    ______ ____
ROOT
ATOM      1  N   UNL     1      58.066  36.675  85.680  0.00  0.00    +0.000 N 
ATOM      2  C   UNL     1      58.310  37.578  87.912  0.00  0.00    +0.000 C 
ATOM      3  C   UNL     1      59.114  36.293  87.709  0.00  0.00    +0.000 A 
ATOM      4  C   UNL     1      57.652  37.736  86.487  0.00  0.00    +0.000 C 
ATOM      5  C   UNL     1      58.926  35.823  86.393  0.00  0.00    +0.000 A 
ATOM      6  C   UNL     1      57.250  37.347  89.035  0.00  0.00    +0.000 C 
ATOM      7  C   UNL     1      59.292  38.747  88.246  0.00  0.00    +0.000 C 
ATOM      8  C   UNL     1      59.926  35.610  88.603  0.00  0.00    +0.000 A 
ATOM      9  C   UNL     1      59.549  34.668  85.955  0.00  0.00    +0.000 A 
ATOM     10  C   UNL     1      56.819  38.689  86.020  0.00  0.00    +0.000 C 
ATOM     11  C   UNL     1      60.553  34.446  88.161  0.00  0.00    +0.000 A 
ATOM     12  C   UNL     1      60.367  33.981  86.852  0.00  0.00    +0.000 A 
ENDROOT
BRANCH   1  13
ATOM     13  C   UNL     1      57.686  36.457  84.305  0.00  0.00    +0.000 C 
ATOM     14  C   UNL     1      57.282  36.231  82.845  0.00  0.00    +0.000 C 
BRANCH  14  15
ATOM     15  C   UNL     1      56.877  36.005  81.385  0.00  0.00    +0.000 C 
BRANCH  15  16
ATOM     16  C   UNL     1      56.474  35.780  79.925  0.00  0.00    +0.000 C 
ATOM     17  C   UNL     1      56.071  35.555  78.465  0.00  0.00    +0.000 C 
BRANCH  17  19
ATOM     18  O   UNL     1      56.082  36.045  76.180  0.00  0.00    +0.000 OA
ATOM     19  C   UNL     1      55.695  35.344  77.099  0.00  0.00    +0.000 C 
BRANCH  19  20
ATOM     20  O   UNL     1      54.872  34.298  76.913  0.00  0.00    +0.000 OA
ATOM     21  H   UNL     1      55.216  33.620  77.529  0.00  0.00    +0.000 HD
ENDBRANCH  19  20
ENDBRANCH  17  19
ENDBRANCH  15  16
ENDBRANCH  14  15
ENDBRANCH   1  13
TORSDOF 5
ENDMDL
MODEL 2
REMARK VINA RESULT:      -4.9     56.342     57.282
REMARK  Name = 85668777_Hyaluronidase.pdbqt.pdb
REMARK  5 active torsions:
REMARK  status: ('A' for Active; 'I' for Inactive)
REMARK    1  A    between atoms: N_1  and  C_13
REMARK    2  A    between atoms: C_14  and  C_15
REMARK    3  A    between atoms: C_15  and  C_16
REMARK    4  A    between atoms: C_17  and  C_19
REMARK    5  A    between atoms: C_19  and  O_20
REMARK                            x       y       z     vdW  Elec       q    Type
REMARK                         _______ _______ _______ _____ _____    ______ ____
ROOT
ATOM      1  N   UNL     1      13.134   1.933  95.405  0.00  0.00    +0.000 N 
ATOM      2  C   UNL     1      12.786   0.171  93.783  0.00  0.00    +0.000 C 
ATOM      3  C   UNL     1      12.727  -0.340  95.222  0.00  0.00    +0.000 A 
ATOM      4  C   UNL     1      13.061   1.705  94.030  0.00  0.00    +0.000 C 
ATOM      5  C   UNL     1      12.938   0.734  96.112  0.00  0.00    +0.000 A 
ATOM      6  C   UNL     1      13.963  -0.532  93.036  0.00  0.00    +0.000 C 
ATOM      7  C   UNL     1      11.405  -0.081  93.095  0.00  0.00    +0.000 C 
ATOM      8  C   UNL     1      12.512  -1.627  95.694  0.00  0.00    +0.000 A 
ATOM      9  C   UNL     1      12.934   0.534  97.481  0.00  0.00    +0.000 A 
ATOM     10  C   UNL     1      13.218   2.710  93.144  0.00  0.00    +0.000 C 
ATOM     11  C   UNL     1      12.508  -1.827  97.074  0.00  0.00    +0.000 A 
ATOM     12  C   UNL     1      12.716  -0.759  97.957  0.00  0.00    +0.000 A 
ENDROOT
BRANCH   1  13
ATOM     13  C   UNL     1      13.371   3.205  96.043  0.00  0.00    +0.000 C 
ATOM     14  C   UNL     1      13.625   4.554  96.724  0.00  0.00    +0.000 C 
BRANCH  14  15
ATOM     15  C   UNL     1      13.879   5.901  97.406  0.00  0.00    +0.000 C 
BRANCH  15  16
ATOM     16  C   UNL     1      14.133   7.248  98.088  0.00  0.00    +0.000 C 
ATOM     17  C   UNL     1      14.387   8.596  98.770  0.00  0.00    +0.000 C 
BRANCH  17  19
ATOM     18  O   UNL     1      15.733  10.342  99.545  0.00  0.00    +0.000 OA
ATOM     19  C   UNL     1      14.623   9.856  99.407  0.00  0.00    +0.000 C 
BRANCH  19  20
ATOM     20  O   UNL     1      13.508  10.465  99.847  0.00  0.00    +0.000 OA
ATOM     21  H   UNL     1      13.245  11.037  99.097  0.00  0.00    +0.000 HD
ENDBRANCH  19  20
ENDBRANCH  17  19
ENDBRANCH  15  16
ENDBRANCH  14  15
ENDBRANCH   1  13
TORSDOF 5
ENDMDL
MODEL 3
REMARK VINA RESULT:      -4.7     56.869     58.064
REMARK  Name = 85668777_Hyaluronidase.pdbqt.pdb
REMARK  5 active torsions:
REMARK  status: ('A' for Active; 'I' for Inactive)
REMARK    1  A    between atoms: N_1  and  C_13
REMARK    2  A    between atoms: C_14  and  C_15
REMARK    3  A    between atoms: C_15  and  C_16
REMARK    4  A    between atoms: C_17  and  C_19
REMARK    5  A    between atoms: C_19  and  O_20
REMARK                            x       y       z     vdW  Elec       q    Type
REMARK                         _______ _______ _______ _____ _____    ______ ____
ROOT
ATOM      1  N   UNL     1       4.613  14.638  96.424  0.00  0.00    +0.000 N 
ATOM      2  C   UNL     1       2.372  14.797  95.523  0.00  0.00    +0.000 C 
ATOM      3  C   UNL     1       2.799  13.351  95.778  0.00  0.00    +0.000 A 
ATOM      4  C   UNL     1       3.665  15.569  95.993  0.00  0.00    +0.000 C 
ATOM      5  C   UNL     1       4.109  13.332  96.300  0.00  0.00    +0.000 A 
ATOM      6  C   UNL     1       2.087  14.985  93.999  0.00  0.00    +0.000 C 
ATOM      7  C   UNL     1       1.129  15.126  96.411  0.00  0.00    +0.000 C 
ATOM      8  C   UNL     1       2.096  12.173  95.567  0.00  0.00    +0.000 A 
ATOM      9  C   UNL     1       4.730  12.137  96.617  0.00  0.00    +0.000 A 
ATOM     10  C   UNL     1       3.922  16.892  96.018  0.00  0.00    +0.000 C 
ATOM     11  C   UNL     1       2.724  10.970  95.887  0.00  0.00    +0.000 A 
ATOM     12  C   UNL     1       4.025  10.952  96.406  0.00  0.00    +0.000 A 
ENDROOT
BRANCH   1  13
ATOM     13  C   UNL     1       5.929  14.941  96.931  0.00  0.00    +0.000 C 
ATOM     14  C   UNL     1       7.329  15.263  97.464  0.00  0.00    +0.000 C 
BRANCH  14  15
ATOM     15  C   UNL     1       8.728  15.585  97.996  0.00  0.00    +0.000 C 
BRANCH  15  16
ATOM     16  C   UNL     1      10.128  15.907  98.528  0.00  0.00    +0.000 C 
ATOM     17  C   UNL     1      11.527  16.229  99.060  0.00  0.00    +0.000 C 
BRANCH  17  19
ATOM     18  O   UNL     1      13.035  17.228 100.538  0.00  0.00    +0.000 OA
ATOM     19  C   UNL     1      12.835  16.531  99.559  0.00  0.00    +0.000 C 
BRANCH  19  20
ATOM     20  O   UNL     1      13.834  15.975  98.850  0.00  0.00    +0.000 OA
ATOM     21  H   UNL     1      14.582  16.592  98.983  0.00  0.00    +0.000 HD
ENDBRANCH  19  20
ENDBRANCH  17  19
ENDBRANCH  15  16
ENDBRANCH  14  15
ENDBRANCH   1  13
TORSDOF 5
ENDMDL
MODEL 4
REMARK VINA RESULT:      -4.6     56.514     57.478
REMARK  Name = 85668777_Hyaluronidase.pdbqt.pdb
REMARK  5 active torsions:
REMARK  status: ('A' for Active; 'I' for Inactive)
REMARK    1  A    between atoms: N_1  and  C_13
REMARK    2  A    between atoms: C_14  and  C_15
REMARK    3  A    between atoms: C_15  and  C_16
REMARK    4  A    between atoms: C_17  and  C_19
REMARK    5  A    between atoms: C_19  and  O_20
REMARK                            x       y       z     vdW  Elec       q    Type
REMARK                         _______ _______ _______ _____ _____    ______ ____
ROOT
ATOM      1  N   UNL     1      13.144   1.419  96.551  0.00  0.00    +0.000 N 
ATOM      2  C   UNL     1      12.850  -0.980  96.426  0.00  0.00    +0.000 C 
ATOM      3  C   UNL     1      12.742  -0.305  95.059  0.00  0.00    +0.000 A 
ATOM      4  C   UNL     1      13.121   0.273  97.347  0.00  0.00    +0.000 C 
ATOM      5  C   UNL     1      12.922   1.086  95.205  0.00  0.00    +0.000 A 
ATOM      6  C   UNL     1      11.495  -1.681  96.760  0.00  0.00    +0.000 C 
ATOM      7  C   UNL     1      14.053  -1.977  96.411  0.00  0.00    +0.000 C 
ATOM      8  C   UNL     1      12.506  -0.869  93.813  0.00  0.00    +0.000 A 
ATOM      9  C   UNL     1      12.870   1.928  94.108  0.00  0.00    +0.000 A 
ATOM     10  C   UNL     1      13.311   0.341  98.681  0.00  0.00    +0.000 C 
ATOM     11  C   UNL     1      12.454  -0.019  92.709  0.00  0.00    +0.000 A 
ATOM     12  C   UNL     1      12.634   1.363  92.855  0.00  0.00    +0.000 A 
ENDROOT
BRANCH   1  13
ATOM     13  C   UNL     1      13.365   2.768  97.014  0.00  0.00    +0.000 C 
ATOM     14  C   UNL     1      13.602   4.198  97.509  0.00  0.00    +0.000 C 
BRANCH  14  15
ATOM     15  C   UNL     1      13.839   5.628  98.005  0.00  0.00    +0.000 C 
BRANCH  15  16
ATOM     16  C   UNL     1      14.076   7.057  98.500  0.00  0.00    +0.000 C 
ATOM     17  C   UNL     1      14.312   8.488  98.994  0.00  0.00    +0.000 C 
BRANCH  17  19
ATOM     18  O   UNL     1      15.633  10.343  99.515  0.00  0.00    +0.000 OA
ATOM     19  C   UNL     1      14.531   9.825  99.456  0.00  0.00    +0.000 C 
BRANCH  19  20
ATOM     20  O   UNL     1      13.409  10.469  99.824  0.00  0.00    +0.000 OA
ATOM     21  H   UNL     1      13.068   9.932 100.567  0.00  0.00    +0.000 HD
ENDBRANCH  19  20
ENDBRANCH  17  19
ENDBRANCH  15  16
ENDBRANCH  14  15
ENDBRANCH   1  13
TORSDOF 5
ENDMDL
MODEL 5
REMARK VINA RESULT:      -4.5     55.783     56.638
REMARK  Name = 85668777_Hyaluronidase.pdbqt.pdb
REMARK  5 active torsions:
REMARK  status: ('A' for Active; 'I' for Inactive)
REMARK    1  A    between atoms: N_1  and  C_13
REMARK    2  A    between atoms: C_14  and  C_15
REMARK    3  A    between atoms: C_15  and  C_16
REMARK    4  A    between atoms: C_17  and  C_19
REMARK    5  A    between atoms: C_19  and  O_20
REMARK                            x       y       z     vdW  Elec       q    Type
REMARK                         _______ _______ _______ _____ _____    ______ ____
ROOT
ATOM      1  N   UNL     1      13.083   4.937  98.583  0.00  0.00    +0.000 N 
ATOM      2  C   UNL     1      12.780   6.164 100.647  0.00  0.00    +0.000 C 
ATOM      3  C   UNL     1      13.380   7.026  99.537  0.00  0.00    +0.000 A 
ATOM      4  C   UNL     1      12.623   4.787  99.892  0.00  0.00    +0.000 C 
ATOM      5  C   UNL     1      13.530   6.252  98.368  0.00  0.00    +0.000 A 
ATOM      6  C   UNL     1      13.791   6.080 101.834  0.00  0.00    +0.000 C 
ATOM      7  C   UNL     1      11.403   6.766 101.074  0.00  0.00    +0.000 C 
ATOM      8  C   UNL     1      13.756   8.362  99.563  0.00  0.00    +0.000 A 
ATOM      9  C   UNL     1      14.055   6.804  97.213  0.00  0.00    +0.000 A 
ATOM     10  C   UNL     1      12.143   3.607 100.335  0.00  0.00    +0.000 C 
ATOM     11  C   UNL     1      14.286   8.916  98.398  0.00  0.00    +0.000 A 
ATOM     12  C   UNL     1      14.433   8.146  97.237  0.00  0.00    +0.000 A 
ENDROOT
BRANCH   1  13
ATOM     13  C   UNL     1      13.109   3.910  97.570  0.00  0.00    +0.000 C 
ATOM     14  C   UNL     1      13.139   2.817  96.497  0.00  0.00    +0.000 C 
BRANCH  14  15
ATOM     15  C   UNL     1      13.171   1.724  95.424  0.00  0.00    +0.000 C 
BRANCH  15  16
ATOM     16  C   UNL     1      13.201   0.631  94.353  0.00  0.00    +0.000 C 
ATOM     17  C   UNL     1      13.233  -0.463  93.281  0.00  0.00    +0.000 C 
BRANCH  17  19
ATOM     18  O   UNL     1      12.281  -1.840  91.651  0.00  0.00    +0.000 OA
ATOM     19  C   UNL     1      13.264  -1.486  92.280  0.00  0.00    +0.000 C 
BRANCH  19  20
ATOM     20  O   UNL     1      14.479  -2.030  92.089  0.00  0.00    +0.000 OA
ATOM     21  H   UNL     1      14.372  -2.950  92.404  0.00  0.00    +0.000 HD
ENDBRANCH  19  20
ENDBRANCH  17  19
ENDBRANCH  15  16
ENDBRANCH  14  15
ENDBRANCH   1  13
TORSDOF 5
ENDMDL
MODEL 6
REMARK VINA RESULT:      -4.3     41.640     42.513
REMARK  Name = 85668777_Hyaluronidase.pdbqt.pdb
REMARK  5 active torsions:
REMARK  status: ('A' for Active; 'I' for Inactive)
REMARK    1  A    between atoms: N_1  and  C_13
REMARK    2  A    between atoms: C_14  and  C_15
REMARK    3  A    between atoms: C_15  and  C_16
REMARK    4  A    between atoms: C_17  and  C_19
REMARK    5  A    between atoms: C_19  and  O_20
REMARK                            x       y       z     vdW  Elec       q    Type
REMARK                         _______ _______ _______ _____ _____    ______ ____
ROOT
ATOM      1  N   UNL     1      20.177  19.820  90.995  0.00  0.00    +0.000 N 
ATOM      2  C   UNL     1      20.818  21.823  92.192  0.00  0.00    +0.000 C 
ATOM      3  C   UNL     1      21.626  20.600  92.624  0.00  0.00    +0.000 A 
ATOM      4  C   UNL     1      19.881  21.181  91.097  0.00  0.00    +0.000 C 
ATOM      5  C   UNL     1      21.202  19.472  91.890  0.00  0.00    +0.000 A 
ATOM      6  C   UNL     1      20.016  22.366  93.417  0.00  0.00    +0.000 C 
ATOM      7  C   UNL     1      21.789  22.890  91.591  0.00  0.00    +0.000 C 
ATOM      8  C   UNL     1      22.633  20.497  93.573  0.00  0.00    +0.000 A 
ATOM      9  C   UNL     1      21.780  18.232  92.095  0.00  0.00    +0.000 A 
ATOM     10  C   UNL     1      18.927  21.750  90.333  0.00  0.00    +0.000 C 
ATOM     11  C   UNL     1      23.215  19.246  93.779  0.00  0.00    +0.000 A 
ATOM     12  C   UNL     1      22.793  18.127  93.048  0.00  0.00    +0.000 A 
ENDROOT
BRANCH   1  13
ATOM     13  C   UNL     1      19.541  18.879  90.105  0.00  0.00    +0.000 C 
ATOM     14  C   UNL     1      18.870  17.879  89.158  0.00  0.00    +0.000 C 
BRANCH  14  15
ATOM     15  C   UNL     1      18.200  16.879  88.211  0.00  0.00    +0.000 C 
BRANCH  15  16
ATOM     16  C   UNL     1      17.531  15.880  87.263  0.00  0.00    +0.000 C 
ATOM     17  C   UNL     1      16.861  14.880  86.316  0.00  0.00    +0.000 C 
BRANCH  17  19
ATOM     18  O   UNL     1      15.388  13.144  85.791  0.00  0.00    +0.000 OA
ATOM     19  C   UNL     1      16.234  13.944  85.432  0.00  0.00    +0.000 C 
BRANCH  19  20
ATOM     20  O   UNL     1      16.663  14.021  84.159  0.00  0.00    +0.000 OA
ATOM     21  H   UNL     1      17.041  13.135  83.988  0.00  0.00    +0.000 HD
ENDBRANCH  19  20
ENDBRANCH  17  19
ENDBRANCH  15  16
ENDBRANCH  14  15
ENDBRANCH   1  13
TORSDOF 5
ENDMDL
MODEL 7
REMARK VINA RESULT:      -4.3     61.357     62.379
REMARK  Name = 85668777_Hyaluronidase.pdbqt.pdb
REMARK  5 active torsions:
REMARK  status: ('A' for Active; 'I' for Inactive)
REMARK    1  A    between atoms: N_1  and  C_13
REMARK    2  A    between atoms: C_14  and  C_15
REMARK    3  A    between atoms: C_15  and  C_16
REMARK    4  A    between atoms: C_17  and  C_19
REMARK    5  A    between atoms: C_19  and  O_20
REMARK                            x       y       z     vdW  Elec       q    Type
REMARK                         _______ _______ _______ _____ _____    ______ ____
ROOT
ATOM      1  N   UNL     1       2.587  12.118  96.252  0.00  0.00    +0.000 N 
ATOM      2  C   UNL     1       2.197  14.384  95.496  0.00  0.00    +0.000 C 
ATOM      3  C   UNL     1       3.683  14.076  95.677  0.00  0.00    +0.000 A 
ATOM      4  C   UNL     1       1.561  13.000  95.909  0.00  0.00    +0.000 C 
ATOM      5  C   UNL     1       3.838  12.745  96.118  0.00  0.00    +0.000 A 
ATOM      6  C   UNL     1       1.792  15.538  96.466  0.00  0.00    +0.000 C 
ATOM      7  C   UNL     1       1.928  14.738  93.998  0.00  0.00    +0.000 C 
ATOM      8  C   UNL     1       4.786  14.894  95.474  0.00  0.00    +0.000 A 
ATOM      9  C   UNL     1       5.094  12.217  96.358  0.00  0.00    +0.000 A 
ATOM     10  C   UNL     1       0.267  12.624  95.960  0.00  0.00    +0.000 C 
ATOM     11  C   UNL     1       6.051  14.360  95.716  0.00  0.00    +0.000 A 
ATOM     12  C   UNL     1       6.203  13.037  96.153  0.00  0.00    +0.000 A 
ENDROOT
BRANCH   1  13
ATOM     13  C   UNL     1       2.422  10.752  96.685  0.00  0.00    +0.000 C 
ATOM     14  C   UNL     1       2.243   9.300  97.140  0.00  0.00    +0.000 C 
BRANCH  14  15
ATOM     15  C   UNL     1       2.064   7.848  97.594  0.00  0.00    +0.000 C 
BRANCH  15  16
ATOM     16  C   UNL     1       1.884   6.397  98.047  0.00  0.00    +0.000 C 
ATOM     17  C   UNL     1       1.703   4.945  98.501  0.00  0.00    +0.000 C 
BRANCH  17  19
ATOM     18  O   UNL     1       0.450   3.030  98.973  0.00  0.00    +0.000 OA
ATOM     19  C   UNL     1       1.533   3.587  98.923  0.00  0.00    +0.000 C 
BRANCH  19  20
ATOM     20  O   UNL     1       2.679   2.972  99.262  0.00  0.00    +0.000 OA
ATOM     21  H   UNL     1       2.416   2.381  99.996  0.00  0.00    +0.000 HD
ENDBRANCH  19  20
ENDBRANCH  17  19
ENDBRANCH  15  16
ENDBRANCH  14  15
ENDBRANCH   1  13
TORSDOF 5
ENDMDL
MODEL 8
REMARK VINA RESULT:      -4.2     46.003     47.473
REMARK  Name = 85668777_Hyaluronidase.pdbqt.pdb
REMARK  5 active torsions:
REMARK  status: ('A' for Active; 'I' for Inactive)
REMARK    1  A    between atoms: N_1  and  C_13
REMARK    2  A    between atoms: C_14  and  C_15
REMARK    3  A    between atoms: C_15  and  C_16
REMARK    4  A    between atoms: C_17  and  C_19
REMARK    5  A    between atoms: C_19  and  O_20
REMARK                            x       y       z     vdW  Elec       q    Type
REMARK                         _______ _______ _______ _____ _____    ______ ____
ROOT
ATOM      1  N   UNL     1      19.656   7.997  83.037  0.00  0.00    +0.000 N 
ATOM      2  C   UNL     1      20.314   5.831  82.182  0.00  0.00    +0.000 C 
ATOM      3  C   UNL     1      20.576   5.972  83.681  0.00  0.00    +0.000 A 
ATOM      4  C   UNL     1      19.697   7.247  81.860  0.00  0.00    +0.000 C 
ATOM      5  C   UNL     1      20.172   7.253  84.111  0.00  0.00    +0.000 A 
ATOM      6  C   UNL     1      21.670   5.592  81.445  0.00  0.00    +0.000 C 
ATOM      7  C   UNL     1      19.292   4.672  81.949  0.00  0.00    +0.000 C 
ATOM      8  C   UNL     1      21.119   5.057  84.572  0.00  0.00    +0.000 A 
ATOM      9  C   UNL     1      20.305   7.633  85.435  0.00  0.00    +0.000 A 
ATOM     10  C   UNL     1      19.253   7.753  80.691  0.00  0.00    +0.000 C 
ATOM     11  C   UNL     1      21.253   5.442  85.905  0.00  0.00    +0.000 A 
ATOM     12  C   UNL     1      20.850   6.714  86.332  0.00  0.00    +0.000 A 
ENDROOT
BRANCH   1  13
ATOM     13  C   UNL     1      19.160   9.346  83.166  0.00  0.00    +0.000 C 
ATOM     14  C   UNL     1      18.636  10.779  83.298  0.00  0.00    +0.000 C 
BRANCH  14  15
ATOM     15  C   UNL     1      18.112  12.213  83.429  0.00  0.00    +0.000 C 
BRANCH  15  16
ATOM     16  C   UNL     1      17.589  13.646  83.560  0.00  0.00    +0.000 C 
ATOM     17  C   UNL     1      17.065  15.080  83.689  0.00  0.00    +0.000 C 
BRANCH  17  19
ATOM     18  O   UNL     1      16.970  17.344  83.122  0.00  0.00    +0.000 OA
ATOM     19  C   UNL     1      16.574  16.419  83.810  0.00  0.00    +0.000 C 
BRANCH  19  20
ATOM     20  O   UNL     1      15.631  16.573  84.756  0.00  0.00    +0.000 OA
ATOM     21  H   UNL     1      15.848  17.438  85.161  0.00  0.00    +0.000 HD
ENDBRANCH  19  20
ENDBRANCH  17  19
ENDBRANCH  15  16
ENDBRANCH  14  15
ENDBRANCH   1  13
TORSDOF 5
ENDMDL
MODEL 9
REMARK VINA RESULT:      -4.2     20.674     22.858
REMARK  Name = 85668777_Hyaluronidase.pdbqt.pdb
REMARK  5 active torsions:
REMARK  status: ('A' for Active; 'I' for Inactive)
REMARK    1  A    between atoms: N_1  and  C_13
REMARK    2  A    between atoms: C_14  and  C_15
REMARK    3  A    between atoms: C_15  and  C_16
REMARK    4  A    between atoms: C_17  and  C_19
REMARK    5  A    between atoms: C_19  and  O_20
REMARK                            x       y       z     vdW  Elec       q    Type
REMARK                         _______ _______ _______ _____ _____    ______ ____
ROOT
ATOM      1  N   UNL     1      46.047  24.249  69.624  0.00  0.00    +0.000 N 
ATOM      2  C   UNL     1      43.706  24.583  70.140  0.00  0.00    +0.000 C 
ATOM      3  C   UNL     1      44.525  25.866  70.281  0.00  0.00    +0.000 A 
ATOM      4  C   UNL     1      44.830  23.569  69.694  0.00  0.00    +0.000 C 
ATOM      5  C   UNL     1      45.875  25.600  69.968  0.00  0.00    +0.000 A 
ATOM      6  C   UNL     1      43.088  24.215  71.525  0.00  0.00    +0.000 C 
ATOM      7  C   UNL     1      42.621  24.790  69.035  0.00  0.00    +0.000 C 
ATOM      8  C   UNL     1      44.115  27.139  70.652  0.00  0.00    +0.000 A 
ATOM      9  C   UNL     1      46.827  26.603  70.020  0.00  0.00    +0.000 A 
ATOM     10  C   UNL     1      44.744  22.254  69.407  0.00  0.00    +0.000 C 
ATOM     11  C   UNL     1      45.076  28.148  70.705  0.00  0.00    +0.000 A 
ATOM     12  C   UNL     1      46.416  27.883  70.392  0.00  0.00    +0.000 A 
ENDROOT
BRANCH   1  13
ATOM     13  C   UNL     1      47.318  23.676  69.252  0.00  0.00    +0.000 C 
ATOM     14  C   UNL     1      48.670  23.073  68.858  0.00  0.00    +0.000 C 
BRANCH  14  15
ATOM     15  C   UNL     1      50.022  22.470  68.464  0.00  0.00    +0.000 C 
BRANCH  15  16
ATOM     16  C   UNL     1      51.374  21.869  68.070  0.00  0.00    +0.000 C 
ATOM     17  C   UNL     1      52.726  21.268  67.675  0.00  0.00    +0.000 C 
BRANCH  17  19
ATOM     18  O   UNL     1      54.157  20.018  66.315  0.00  0.00    +0.000 OA
ATOM     19  C   UNL     1      53.991  20.707  67.307  0.00  0.00    +0.000 C 
BRANCH  19  20
ATOM     20  O   UNL     1      54.991  21.007  68.155  0.00  0.00    +0.000 OA
ATOM     21  H   UNL     1      54.715  21.861  68.546  0.00  0.00    +0.000 HD
ENDBRANCH  19  20
ENDBRANCH  17  19
ENDBRANCH  15  16
ENDBRANCH  14  15
ENDBRANCH   1  13
TORSDOF 5
ENDMDL
