MODEL 1
REMARK VINA RESULT:      -4.6      0.000      0.000
REMARK  Name = 86311066_OplopantriolA.pdbqt.pdb
REMARK  12 active torsions:
REMARK  status: ('A' for Active; 'I' for Inactive)
REMARK    1  A    between atoms: C_1  and  C_3
REMARK    2  A    between atoms: C_2  and  C_13
REMARK    3  A    between atoms: C_4  and  C_5
REMARK    4  A    between atoms: C_6  and  C_7
REMARK    5  A    between atoms: C_8  and  C_9
REMARK    6  A    between atoms: C_10  and  O_11
REMARK    7  A    between atoms: C_13  and  O_14
REMARK    8  A    between atoms: C_13  and  C_16
REMARK    9  A    between atoms: C_17  and  C_18
REMARK   10  A    between atoms: C_19  and  C_20
REMARK   11  A    between atoms: C_20  and  C_21
REMARK   12  A    between atoms: C_20  and  O_23
REMARK                            x       y       z     vdW  Elec       q    Type
REMARK                         _______ _______ _______ _____ _____    ______ ____
ROOT
ATOM      1  C   UNL     1      60.407  34.218  72.016  0.00  0.00    +0.000 C 
ATOM      2  C   UNL     1      60.744  34.964  72.895  0.00  0.00    +0.000 C 
ENDROOT
BRANCH   1   3
ATOM      3  C   UNL     1      59.977  33.268  70.896  0.00  0.00    +0.000 C 
ATOM      4  C   UNL     1      59.546  32.316  69.775  0.00  0.00    +0.000 C 
BRANCH   4   5
ATOM      5  C   UNL     1      59.115  31.364  68.656  0.00  0.00    +0.000 C 
ATOM      6  C   UNL     1      58.685  30.411  67.536  0.00  0.00    +0.000 C 
BRANCH   6   7
ATOM      7  C   UNL     1      58.256  29.459  66.416  0.00  0.00    +0.000 C 
ATOM      8  C   UNL     1      57.826  28.506  65.296  0.00  0.00    +0.000 C 
BRANCH   8   9
ATOM      9  C   UNL     1      57.396  27.553  64.177  0.00  0.00    +0.000 C 
ATOM     10  C   UNL     1      56.965  26.599  63.059  0.00  0.00    +0.000 C 
BRANCH  10  11
ATOM     11  O   UNL     1      56.592  25.773  62.089  0.00  0.00    +0.000 OA
ATOM     12  H   UNL     1      56.058  26.246  61.429  0.00  0.00    +0.000 HD
ENDBRANCH  10  11
ENDBRANCH   8   9
ENDBRANCH   6   7
ENDBRANCH   4   5
ENDBRANCH   1   3
BRANCH   2  13
ATOM     13  C   UNL     1      61.141  35.843  73.933  0.00  0.00    +0.000 C 
BRANCH  13  14
ATOM     14  O   UNL     1      61.981  36.881  73.600  0.00  0.00    +0.000 OA
ATOM     15  H   UNL     1      62.365  37.298  74.390  0.00  0.00    +0.000 HD
ENDBRANCH  13  14
BRANCH  13  16
ATOM     16  C   UNL     1      60.721  35.709  75.281  0.00  0.00    +0.000 C 
ATOM     17  C   UNL     1      60.365  35.596  76.422  0.00  0.00    +0.000 C 
BRANCH  17  18
ATOM     18  C   UNL     1      59.908  35.451  77.876  0.00  0.00    +0.000 C 
ATOM     19  C   UNL     1      59.551  35.338  79.017  0.00  0.00    +0.000 C 
BRANCH  19  20
ATOM     20  C   UNL     1      59.128  35.205  80.366  0.00  0.00    +0.000 C 
BRANCH  20  21
ATOM     21  C   UNL     1      58.746  33.963  80.946  0.00  0.00    +0.000 C 
ATOM     22  C   UNL     1      58.401  32.798  81.498  0.00  0.00    +0.000 C 
ENDBRANCH  20  21
BRANCH  20  23
ATOM     23  O   UNL     1      59.086  36.337  81.154  0.00  0.00    +0.000 OA
ATOM     24  H   UNL     1      58.427  36.259  81.865  0.00  0.00    +0.000 HD
ENDBRANCH  20  23
ENDBRANCH  19  20
ENDBRANCH  17  18
ENDBRANCH  13  16
ENDBRANCH   2  13
TORSDOF 12
ENDMDL
MODEL 2
REMARK VINA RESULT:      -4.2      1.508      1.954
REMARK  Name = 86311066_OplopantriolA.pdbqt.pdb
REMARK  12 active torsions:
REMARK  status: ('A' for Active; 'I' for Inactive)
REMARK    1  A    between atoms: C_1  and  C_3
REMARK    2  A    between atoms: C_2  and  C_13
REMARK    3  A    between atoms: C_4  and  C_5
REMARK    4  A    between atoms: C_6  and  C_7
REMARK    5  A    between atoms: C_8  and  C_9
REMARK    6  A    between atoms: C_10  and  O_11
REMARK    7  A    between atoms: C_13  and  O_14
REMARK    8  A    between atoms: C_13  and  C_16
REMARK    9  A    between atoms: C_17  and  C_18
REMARK   10  A    between atoms: C_19  and  C_20
REMARK   11  A    between atoms: C_20  and  C_21
REMARK   12  A    between atoms: C_20  and  O_23
REMARK                            x       y       z     vdW  Elec       q    Type
REMARK                         _______ _______ _______ _____ _____    ______ ____
ROOT
ATOM      1  C   UNL     1      60.502  33.340  70.708  0.00  0.00    +0.000 C 
ATOM      2  C   UNL     1      60.953  34.115  71.508  0.00  0.00    +0.000 C 
ENDROOT
BRANCH   1   3
ATOM      3  C   UNL     1      59.926  32.353  69.690  0.00  0.00    +0.000 C 
ATOM      4  C   UNL     1      59.349  31.366  68.671  0.00  0.00    +0.000 C 
BRANCH   4   5
ATOM      5  C   UNL     1      58.772  30.378  67.652  0.00  0.00    +0.000 C 
ATOM      6  C   UNL     1      58.197  29.390  66.633  0.00  0.00    +0.000 C 
BRANCH   6   7
ATOM      7  C   UNL     1      57.622  28.402  65.614  0.00  0.00    +0.000 C 
ATOM      8  C   UNL     1      57.046  27.414  64.594  0.00  0.00    +0.000 C 
BRANCH   8   9
ATOM      9  C   UNL     1      56.469  26.427  63.576  0.00  0.00    +0.000 C 
ATOM     10  C   UNL     1      55.892  25.440  62.556  0.00  0.00    +0.000 C 
BRANCH  10  11
ATOM     11  O   UNL     1      55.392  24.584  61.673  0.00  0.00    +0.000 OA
ATOM     12  H   UNL     1      54.552  24.919  61.315  0.00  0.00    +0.000 HD
ENDBRANCH  10  11
ENDBRANCH   8   9
ENDBRANCH   6   7
ENDBRANCH   4   5
ENDBRANCH   1   3
BRANCH   2  13
ATOM     13  C   UNL     1      61.485  35.028  72.451  0.00  0.00    +0.000 C 
BRANCH  13  14
ATOM     14  O   UNL     1      62.671  35.650  72.136  0.00  0.00    +0.000 OA
ATOM     15  H   UNL     1      62.733  35.842  71.185  0.00  0.00    +0.000 HD
ENDBRANCH  13  14
BRANCH  13  16
ATOM     16  C   UNL     1      60.863  35.331  73.690  0.00  0.00    +0.000 C 
ATOM     17  C   UNL     1      60.336  35.587  74.738  0.00  0.00    +0.000 C 
BRANCH  17  18
ATOM     18  C   UNL     1      59.662  35.912  76.073  0.00  0.00    +0.000 C 
ATOM     19  C   UNL     1      59.133  36.168  77.121  0.00  0.00    +0.000 C 
BRANCH  19  20
ATOM     20  C   UNL     1      58.509  36.472  78.359  0.00  0.00    +0.000 C 
BRANCH  20  21
ATOM     21  C   UNL     1      57.477  35.675  78.930  0.00  0.00    +0.000 C 
ATOM     22  C   UNL     1      56.503  34.927  79.452  0.00  0.00    +0.000 C 
ENDBRANCH  20  21
BRANCH  20  23
ATOM     23  O   UNL     1      58.922  37.598  79.042  0.00  0.00    +0.000 OA
ATOM     24  H   UNL     1      59.618  37.392  79.690  0.00  0.00    +0.000 HD
ENDBRANCH  20  23
ENDBRANCH  19  20
ENDBRANCH  17  18
ENDBRANCH  13  16
ENDBRANCH   2  13
TORSDOF 12
ENDMDL
MODEL 3
REMARK VINA RESULT:      -4.2      8.633     12.653
REMARK  Name = 86311066_OplopantriolA.pdbqt.pdb
REMARK  12 active torsions:
REMARK  status: ('A' for Active; 'I' for Inactive)
REMARK    1  A    between atoms: C_1  and  C_3
REMARK    2  A    between atoms: C_2  and  C_13
REMARK    3  A    between atoms: C_4  and  C_5
REMARK    4  A    between atoms: C_6  and  C_7
REMARK    5  A    between atoms: C_8  and  C_9
REMARK    6  A    between atoms: C_10  and  O_11
REMARK    7  A    between atoms: C_13  and  O_14
REMARK    8  A    between atoms: C_13  and  C_16
REMARK    9  A    between atoms: C_17  and  C_18
REMARK   10  A    between atoms: C_19  and  C_20
REMARK   11  A    between atoms: C_20  and  C_21
REMARK   12  A    between atoms: C_20  and  O_23
REMARK                            x       y       z     vdW  Elec       q    Type
REMARK                         _______ _______ _______ _____ _____    ______ ____
ROOT
ATOM      1  C   UNL     1      56.081  38.820  74.683  0.00  0.00    +0.000 C 
ATOM      2  C   UNL     1      56.242  37.715  75.127  0.00  0.00    +0.000 C 
ENDROOT
BRANCH   1   3
ATOM      3  C   UNL     1      55.874  40.227  74.117  0.00  0.00    +0.000 C 
ATOM      4  C   UNL     1      55.667  41.635  73.550  0.00  0.00    +0.000 C 
BRANCH   4   5
ATOM      5  C   UNL     1      55.460  43.042  72.982  0.00  0.00    +0.000 C 
ATOM      6  C   UNL     1      55.252  44.451  72.417  0.00  0.00    +0.000 C 
BRANCH   6   7
ATOM      7  C   UNL     1      55.044  45.859  71.850  0.00  0.00    +0.000 C 
ATOM      8  C   UNL     1      54.837  47.266  71.284  0.00  0.00    +0.000 C 
BRANCH   8   9
ATOM      9  C   UNL     1      54.630  48.675  70.718  0.00  0.00    +0.000 C 
ATOM     10  C   UNL     1      54.424  50.083  70.153  0.00  0.00    +0.000 C 
BRANCH  10  11
ATOM     11  O   UNL     1      54.244  51.304  69.663  0.00  0.00    +0.000 OA
ATOM     12  H   UNL     1      54.192  51.954  70.384  0.00  0.00    +0.000 HD
ENDBRANCH  10  11
ENDBRANCH   8   9
ENDBRANCH   6   7
ENDBRANCH   4   5
ENDBRANCH   1   3
BRANCH   2  13
ATOM     13  C   UNL     1      56.433  36.413  75.649  0.00  0.00    +0.000 C 
BRANCH  13  14
ATOM     14  O   UNL     1      56.354  35.357  74.770  0.00  0.00    +0.000 OA
ATOM     15  H   UNL     1      55.986  35.632  73.913  0.00  0.00    +0.000 HD
ENDBRANCH  13  14
BRANCH  13  16
ATOM     16  C   UNL     1      56.698  36.144  77.017  0.00  0.00    +0.000 C 
ATOM     17  C   UNL     1      56.923  35.917  78.174  0.00  0.00    +0.000 C 
BRANCH  17  18
ATOM     18  C   UNL     1      57.213  35.627  79.649  0.00  0.00    +0.000 C 
ATOM     19  C   UNL     1      57.440  35.399  80.806  0.00  0.00    +0.000 C 
BRANCH  19  20
ATOM     20  C   UNL     1      57.708  35.128  82.174  0.00  0.00    +0.000 C 
BRANCH  20  21
ATOM     21  C   UNL     1      57.609  36.110  83.199  0.00  0.00    +0.000 C 
ATOM     22  C   UNL     1      57.518  37.020  84.171  0.00  0.00    +0.000 C 
ENDBRANCH  20  21
BRANCH  20  23
ATOM     23  O   UNL     1      58.084  33.848  82.527  0.00  0.00    +0.000 OA
ATOM     24  H   UNL     1      58.178  33.751  83.490  0.00  0.00    +0.000 HD
ENDBRANCH  20  23
ENDBRANCH  19  20
ENDBRANCH  17  18
ENDBRANCH  13  16
ENDBRANCH   2  13
TORSDOF 12
ENDMDL
MODEL 4
REMARK VINA RESULT:      -3.9     43.490     45.545
REMARK  Name = 86311066_OplopantriolA.pdbqt.pdb
REMARK  12 active torsions:
REMARK  status: ('A' for Active; 'I' for Inactive)
REMARK    1  A    between atoms: C_1  and  C_3
REMARK    2  A    between atoms: C_2  and  C_13
REMARK    3  A    between atoms: C_4  and  C_5
REMARK    4  A    between atoms: C_6  and  C_7
REMARK    5  A    between atoms: C_8  and  C_9
REMARK    6  A    between atoms: C_10  and  O_11
REMARK    7  A    between atoms: C_13  and  O_14
REMARK    8  A    between atoms: C_13  and  C_16
REMARK    9  A    between atoms: C_17  and  C_18
REMARK   10  A    between atoms: C_19  and  C_20
REMARK   11  A    between atoms: C_20  and  C_21
REMARK   12  A    between atoms: C_20  and  O_23
REMARK                            x       y       z     vdW  Elec       q    Type
REMARK                         _______ _______ _______ _____ _____    ______ ____
ROOT
ATOM      1  C   UNL     1      19.270  17.819  91.163  0.00  0.00    +0.000 C 
ATOM      2  C   UNL     1      19.512  18.403  92.185  0.00  0.00    +0.000 C 
ENDROOT
BRANCH   1   3
ATOM      3  C   UNL     1      18.962  17.076  89.860  0.00  0.00    +0.000 C 
ATOM      4  C   UNL     1      18.652  16.333  88.557  0.00  0.00    +0.000 C 
BRANCH   4   5
ATOM      5  C   UNL     1      18.343  15.589  87.254  0.00  0.00    +0.000 C 
ATOM      6  C   UNL     1      18.035  14.846  85.951  0.00  0.00    +0.000 C 
BRANCH   6   7
ATOM      7  C   UNL     1      17.727  14.103  84.648  0.00  0.00    +0.000 C 
ATOM      8  C   UNL     1      17.418  13.360  83.344  0.00  0.00    +0.000 C 
BRANCH   8   9
ATOM      9  C   UNL     1      17.109  12.616  82.042  0.00  0.00    +0.000 C 
ATOM     10  C   UNL     1      16.800  11.871  80.740  0.00  0.00    +0.000 C 
BRANCH  10  11
ATOM     11  O   UNL     1      16.532  11.227  79.610  0.00  0.00    +0.000 OA
ATOM     12  H   UNL     1      15.774  10.630  79.733  0.00  0.00    +0.000 HD
ENDBRANCH  10  11
ENDBRANCH   8   9
ENDBRANCH   6   7
ENDBRANCH   4   5
ENDBRANCH   1   3
BRANCH   2  13
ATOM     13  C   UNL     1      19.796  19.090  93.390  0.00  0.00    +0.000 C 
BRANCH  13  14
ATOM     14  O   UNL     1      18.763  19.772  93.992  0.00  0.00    +0.000 OA
ATOM     15  H   UNL     1      18.960  19.973  94.922  0.00  0.00    +0.000 HD
ENDBRANCH  13  14
BRANCH  13  16
ATOM     16  C   UNL     1      21.076  19.111  94.001  0.00  0.00    +0.000 C 
ATOM     17  C   UNL     1      22.160  19.129  94.518  0.00  0.00    +0.000 C 
BRANCH  17  18
ATOM     18  C   UNL     1      23.542  19.153  95.175  0.00  0.00    +0.000 C 
ATOM     19  C   UNL     1      24.627  19.172  95.690  0.00  0.00    +0.000 C 
BRANCH  19  20
ATOM     20  C   UNL     1      25.910  19.194  96.298  0.00  0.00    +0.000 C 
BRANCH  20  21
ATOM     21  C   UNL     1      26.291  20.146  97.284  0.00  0.00    +0.000 C 
ATOM     22  C   UNL     1      26.655  21.048  98.199  0.00  0.00    +0.000 C 
ENDBRANCH  20  21
BRANCH  20  23
ATOM     23  O   UNL     1      26.834  18.244  95.912  0.00  0.00    +0.000 OA
ATOM     24  H   UNL     1      27.746  18.545  96.062  0.00  0.00    +0.000 HD
ENDBRANCH  20  23
ENDBRANCH  19  20
ENDBRANCH  17  18
ENDBRANCH  13  16
ENDBRANCH   2  13
TORSDOF 12
ENDMDL
MODEL 5
REMARK VINA RESULT:      -3.9      2.747      3.899
REMARK  Name = 86311066_OplopantriolA.pdbqt.pdb
REMARK  12 active torsions:
REMARK  status: ('A' for Active; 'I' for Inactive)
REMARK    1  A    between atoms: C_1  and  C_3
REMARK    2  A    between atoms: C_2  and  C_13
REMARK    3  A    between atoms: C_4  and  C_5
REMARK    4  A    between atoms: C_6  and  C_7
REMARK    5  A    between atoms: C_8  and  C_9
REMARK    6  A    between atoms: C_10  and  O_11
REMARK    7  A    between atoms: C_13  and  O_14
REMARK    8  A    between atoms: C_13  and  C_16
REMARK    9  A    between atoms: C_17  and  C_18
REMARK   10  A    between atoms: C_19  and  C_20
REMARK   11  A    between atoms: C_20  and  C_21
REMARK   12  A    between atoms: C_20  and  O_23
REMARK                            x       y       z     vdW  Elec       q    Type
REMARK                         _______ _______ _______ _____ _____    ______ ____
ROOT
ATOM      1  C   UNL     1      60.727  30.568  70.342  0.00  0.00    +0.000 C 
ATOM      2  C   UNL     1      61.346  30.817  71.341  0.00  0.00    +0.000 C 
ENDROOT
BRANCH   1   3
ATOM      3  C   UNL     1      59.940  30.251  69.068  0.00  0.00    +0.000 C 
ATOM      4  C   UNL     1      59.152  29.934  67.793  0.00  0.00    +0.000 C 
BRANCH   4   5
ATOM      5  C   UNL     1      58.363  29.616  66.519  0.00  0.00    +0.000 C 
ATOM      6  C   UNL     1      57.574  29.297  65.246  0.00  0.00    +0.000 C 
BRANCH   6   7
ATOM      7  C   UNL     1      56.786  28.978  63.971  0.00  0.00    +0.000 C 
ATOM      8  C   UNL     1      55.998  28.659  62.697  0.00  0.00    +0.000 C 
BRANCH   8   9
ATOM      9  C   UNL     1      55.210  28.339  61.424  0.00  0.00    +0.000 C 
ATOM     10  C   UNL     1      54.423  28.019  60.149  0.00  0.00    +0.000 C 
BRANCH  10  11
ATOM     11  O   UNL     1      53.740  27.741  59.045  0.00  0.00    +0.000 OA
ATOM     12  H   UNL     1      52.785  27.805  59.213  0.00  0.00    +0.000 HD
ENDBRANCH  10  11
ENDBRANCH   8   9
ENDBRANCH   6   7
ENDBRANCH   4   5
ENDBRANCH   1   3
BRANCH   2  13
ATOM     13  C   UNL     1      62.074  31.112  72.519  0.00  0.00    +0.000 C 
BRANCH  13  14
ATOM     14  O   UNL     1      63.227  30.398  72.750  0.00  0.00    +0.000 OA
ATOM     15  H   UNL     1      64.013  30.875  72.436  0.00  0.00    +0.000 HD
ENDBRANCH  13  14
BRANCH  13  16
ATOM     16  C   UNL     1      61.680  32.096  73.462  0.00  0.00    +0.000 C 
ATOM     17  C   UNL     1      61.347  32.929  74.260  0.00  0.00    +0.000 C 
BRANCH  17  18
ATOM     18  C   UNL     1      60.924  33.992  75.277  0.00  0.00    +0.000 C 
ATOM     19  C   UNL     1      60.593  34.826  76.075  0.00  0.00    +0.000 C 
BRANCH  19  20
ATOM     20  C   UNL     1      60.202  35.813  77.019  0.00  0.00    +0.000 C 
BRANCH  20  21
ATOM     21  C   UNL     1      59.773  35.504  78.340  0.00  0.00    +0.000 C 
ATOM     22  C   UNL     1      59.387  35.210  79.583  0.00  0.00    +0.000 C 
ENDBRANCH  20  21
BRANCH  20  23
ATOM     23  O   UNL     1      60.238  37.138  76.634  0.00  0.00    +0.000 OA
ATOM     24  H   UNL     1      61.035  37.588  76.961  0.00  0.00    +0.000 HD
ENDBRANCH  20  23
ENDBRANCH  19  20
ENDBRANCH  17  18
ENDBRANCH  13  16
ENDBRANCH   2  13
TORSDOF 12
ENDMDL
MODEL 6
REMARK VINA RESULT:      -3.7     15.955     22.233
REMARK  Name = 86311066_OplopantriolA.pdbqt.pdb
REMARK  12 active torsions:
REMARK  status: ('A' for Active; 'I' for Inactive)
REMARK    1  A    between atoms: C_1  and  C_3
REMARK    2  A    between atoms: C_2  and  C_13
REMARK    3  A    between atoms: C_4  and  C_5
REMARK    4  A    between atoms: C_6  and  C_7
REMARK    5  A    between atoms: C_8  and  C_9
REMARK    6  A    between atoms: C_10  and  O_11
REMARK    7  A    between atoms: C_13  and  O_14
REMARK    8  A    between atoms: C_13  and  C_16
REMARK    9  A    between atoms: C_17  and  C_18
REMARK   10  A    between atoms: C_19  and  C_20
REMARK   11  A    between atoms: C_20  and  C_21
REMARK   12  A    between atoms: C_20  and  O_23
REMARK                            x       y       z     vdW  Elec       q    Type
REMARK                         _______ _______ _______ _____ _____    ______ ____
ROOT
ATOM      1  C   UNL     1      49.357  21.503  83.838  0.00  0.00    +0.000 C 
ATOM      2  C   UNL     1      50.110  20.743  83.291  0.00  0.00    +0.000 C 
ENDROOT
BRANCH   1   3
ATOM      3  C   UNL     1      48.399  22.473  84.534  0.00  0.00    +0.000 C 
ATOM      4  C   UNL     1      47.440  23.443  85.232  0.00  0.00    +0.000 C 
BRANCH   4   5
ATOM      5  C   UNL     1      46.481  24.413  85.929  0.00  0.00    +0.000 C 
ATOM      6  C   UNL     1      45.524  25.383  86.628  0.00  0.00    +0.000 C 
BRANCH   6   7
ATOM      7  C   UNL     1      44.566  26.353  87.327  0.00  0.00    +0.000 C 
ATOM      8  C   UNL     1      43.609  27.323  88.025  0.00  0.00    +0.000 C 
BRANCH   8   9
ATOM      9  C   UNL     1      42.651  28.293  88.723  0.00  0.00    +0.000 C 
ATOM     10  C   UNL     1      41.694  29.264  89.420  0.00  0.00    +0.000 C 
BRANCH  10  11
ATOM     11  O   UNL     1      40.863  30.106  90.025  0.00  0.00    +0.000 OA
ATOM     12  H   UNL     1      41.006  30.090  90.986  0.00  0.00    +0.000 HD
ENDBRANCH  10  11
ENDBRANCH   8   9
ENDBRANCH   6   7
ENDBRANCH   4   5
ENDBRANCH   1   3
BRANCH   2  13
ATOM     13  C   UNL     1      50.998  19.847  82.648  0.00  0.00    +0.000 C 
BRANCH  13  14
ATOM     14  O   UNL     1      51.537  18.833  83.405  0.00  0.00    +0.000 OA
ATOM     15  H   UNL     1      51.582  17.999  82.908  0.00  0.00    +0.000 HD
ENDBRANCH  13  14
BRANCH  13  16
ATOM     16  C   UNL     1      51.355  19.941  81.278  0.00  0.00    +0.000 C 
ATOM     17  C   UNL     1      51.658  20.020  80.119  0.00  0.00    +0.000 C 
BRANCH  17  18
ATOM     18  C   UNL     1      52.047  20.122  78.642  0.00  0.00    +0.000 C 
ATOM     19  C   UNL     1      52.352  20.201  77.483  0.00  0.00    +0.000 C 
BRANCH  19  20
ATOM     20  C   UNL     1      52.713  20.294  76.113  0.00  0.00    +0.000 C 
BRANCH  20  21
ATOM     21  C   UNL     1      52.297  19.354  75.130  0.00  0.00    +0.000 C 
ATOM     22  C   UNL     1      51.907  18.460  74.218  0.00  0.00    +0.000 C 
ENDBRANCH  20  21
BRANCH  20  23
ATOM     23  O   UNL     1      53.510  21.349  75.716  0.00  0.00    +0.000 OA
ATOM     24  H   UNL     1      54.442  21.209  75.956  0.00  0.00    +0.000 HD
ENDBRANCH  20  23
ENDBRANCH  19  20
ENDBRANCH  17  18
ENDBRANCH  13  16
ENDBRANCH   2  13
TORSDOF 12
ENDMDL
MODEL 7
REMARK VINA RESULT:      -3.6     16.874     19.099
REMARK  Name = 86311066_OplopantriolA.pdbqt.pdb
REMARK  12 active torsions:
REMARK  status: ('A' for Active; 'I' for Inactive)
REMARK    1  A    between atoms: C_1  and  C_3
REMARK    2  A    between atoms: C_2  and  C_13
REMARK    3  A    between atoms: C_4  and  C_5
REMARK    4  A    between atoms: C_6  and  C_7
REMARK    5  A    between atoms: C_8  and  C_9
REMARK    6  A    between atoms: C_10  and  O_11
REMARK    7  A    between atoms: C_13  and  O_14
REMARK    8  A    between atoms: C_13  and  C_16
REMARK    9  A    between atoms: C_17  and  C_18
REMARK   10  A    between atoms: C_19  and  C_20
REMARK   11  A    between atoms: C_20  and  C_21
REMARK   12  A    between atoms: C_20  and  O_23
REMARK                            x       y       z     vdW  Elec       q    Type
REMARK                         _______ _______ _______ _____ _____    ______ ____
ROOT
ATOM      1  C   UNL     1      43.473  23.372  71.565  0.00  0.00    +0.000 C 
ATOM      2  C   UNL     1      42.364  23.588  71.975  0.00  0.00    +0.000 C 
ENDROOT
BRANCH   1   3
ATOM      3  C   UNL     1      44.885  23.097  71.043  0.00  0.00    +0.000 C 
ATOM      4  C   UNL     1      46.297  22.820  70.519  0.00  0.00    +0.000 C 
BRANCH   4   5
ATOM      5  C   UNL     1      47.710  22.543  69.995  0.00  0.00    +0.000 C 
ATOM      6  C   UNL     1      49.122  22.264  69.470  0.00  0.00    +0.000 C 
BRANCH   6   7
ATOM      7  C   UNL     1      50.534  21.986  68.946  0.00  0.00    +0.000 C 
ATOM      8  C   UNL     1      51.946  21.707  68.422  0.00  0.00    +0.000 C 
BRANCH   8   9
ATOM      9  C   UNL     1      53.357  21.427  67.898  0.00  0.00    +0.000 C 
ATOM     10  C   UNL     1      54.769  21.148  67.374  0.00  0.00    +0.000 C 
BRANCH  10  11
ATOM     11  O   UNL     1      55.993  20.906  66.920  0.00  0.00    +0.000 OA
ATOM     12  H   UNL     1      56.638  21.486  67.359  0.00  0.00    +0.000 HD
ENDBRANCH  10  11
ENDBRANCH   8   9
ENDBRANCH   6   7
ENDBRANCH   4   5
ENDBRANCH   1   3
BRANCH   2  13
ATOM     13  C   UNL     1      41.057  23.842  72.458  0.00  0.00    +0.000 C 
BRANCH  13  14
ATOM     14  O   UNL     1      40.075  24.101  71.530  0.00  0.00    +0.000 OA
ATOM     15  H   UNL     1      39.283  23.558  71.686  0.00  0.00    +0.000 HD
ENDBRANCH  13  14
BRANCH  13  16
ATOM     16  C   UNL     1      40.714  23.843  73.835  0.00  0.00    +0.000 C 
ATOM     17  C   UNL     1      40.423  23.844  74.999  0.00  0.00    +0.000 C 
BRANCH  17  18
ATOM     18  C   UNL     1      40.049  23.845  76.484  0.00  0.00    +0.000 C 
ATOM     19  C   UNL     1      39.756  23.846  77.648  0.00  0.00    +0.000 C 
BRANCH  19  20
ATOM     20  C   UNL     1      39.409  23.848  79.025  0.00  0.00    +0.000 C 
BRANCH  20  21
ATOM     21  C   UNL     1      38.447  22.965  79.590  0.00  0.00    +0.000 C 
ATOM     22  C   UNL     1      37.551  22.138  80.134  0.00  0.00    +0.000 C 
ENDBRANCH  20  21
BRANCH  20  23
ATOM     23  O   UNL     1      40.035  24.754  79.857  0.00  0.00    +0.000 OA
ATOM     24  H   UNL     1      40.999  24.621  79.877  0.00  0.00    +0.000 HD
ENDBRANCH  20  23
ENDBRANCH  19  20
ENDBRANCH  17  18
ENDBRANCH  13  16
ENDBRANCH   2  13
TORSDOF 12
ENDMDL
MODEL 8
REMARK VINA RESULT:      -3.6     14.957     15.822
REMARK  Name = 86311066_OplopantriolA.pdbqt.pdb
REMARK  12 active torsions:
REMARK  status: ('A' for Active; 'I' for Inactive)
REMARK    1  A    between atoms: C_1  and  C_3
REMARK    2  A    between atoms: C_2  and  C_13
REMARK    3  A    between atoms: C_4  and  C_5
REMARK    4  A    between atoms: C_6  and  C_7
REMARK    5  A    between atoms: C_8  and  C_9
REMARK    6  A    between atoms: C_10  and  O_11
REMARK    7  A    between atoms: C_13  and  O_14
REMARK    8  A    between atoms: C_13  and  C_16
REMARK    9  A    between atoms: C_17  and  C_18
REMARK   10  A    between atoms: C_19  and  C_20
REMARK   11  A    between atoms: C_20  and  C_21
REMARK   12  A    between atoms: C_20  and  O_23
REMARK                            x       y       z     vdW  Elec       q    Type
REMARK                         _______ _______ _______ _____ _____    ______ ____
ROOT
ATOM      1  C   UNL     1      48.930  22.419  69.252  0.00  0.00    +0.000 C 
ATOM      2  C   UNL     1      47.843  22.666  69.700  0.00  0.00    +0.000 C 
ENDROOT
BRANCH   1   3
ATOM      3  C   UNL     1      50.315  22.106  68.682  0.00  0.00    +0.000 C 
ATOM      4  C   UNL     1      51.702  21.791  68.112  0.00  0.00    +0.000 C 
BRANCH   4   5
ATOM      5  C   UNL     1      53.089  21.478  67.543  0.00  0.00    +0.000 C 
ATOM      6  C   UNL     1      54.476  21.162  66.976  0.00  0.00    +0.000 C 
BRANCH   6   7
ATOM      7  C   UNL     1      55.864  20.848  66.408  0.00  0.00    +0.000 C 
ATOM      8  C   UNL     1      57.251  20.534  65.840  0.00  0.00    +0.000 C 
BRANCH   8   9
ATOM      9  C   UNL     1      58.638  20.218  65.271  0.00  0.00    +0.000 C 
ATOM     10  C   UNL     1      60.024  19.902  64.702  0.00  0.00    +0.000 C 
BRANCH  10  11
ATOM     11  O   UNL     1      61.226  19.629  64.209  0.00  0.00    +0.000 OA
ATOM     12  H   UNL     1      61.850  20.343  64.422  0.00  0.00    +0.000 HD
ENDBRANCH  10  11
ENDBRANCH   8   9
ENDBRANCH   6   7
ENDBRANCH   4   5
ENDBRANCH   1   3
BRANCH   2  13
ATOM     13  C   UNL     1      46.560  22.957  70.227  0.00  0.00    +0.000 C 
BRANCH  13  14
ATOM     14  O   UNL     1      45.785  21.896  70.635  0.00  0.00    +0.000 OA
ATOM     15  H   UNL     1      46.183  21.045  70.387  0.00  0.00    +0.000 HD
ENDBRANCH  13  14
BRANCH  13  16
ATOM     16  C   UNL     1      46.041  24.272  70.353  0.00  0.00    +0.000 C 
ATOM     17  C   UNL     1      45.601  25.383  70.459  0.00  0.00    +0.000 C 
BRANCH  17  18
ATOM     18  C   UNL     1      45.039  26.801  70.593  0.00  0.00    +0.000 C 
ATOM     19  C   UNL     1      44.597  27.913  70.698  0.00  0.00    +0.000 C 
BRANCH  19  20
ATOM     20  C   UNL     1      44.074  29.227  70.822  0.00  0.00    +0.000 C 
BRANCH  20  21
ATOM     21  C   UNL     1      43.700  29.804  72.068  0.00  0.00    +0.000 C 
ATOM     22  C   UNL     1      43.335  30.339  73.235  0.00  0.00    +0.000 C 
ENDBRANCH  20  21
BRANCH  20  23
ATOM     23  O   UNL     1      43.920  29.981  69.677  0.00  0.00    +0.000 OA
ATOM     24  H   UNL     1      43.149  30.572  69.733  0.00  0.00    +0.000 HD
ENDBRANCH  20  23
ENDBRANCH  19  20
ENDBRANCH  17  18
ENDBRANCH  13  16
ENDBRANCH   2  13
TORSDOF 12
ENDMDL
MODEL 9
REMARK VINA RESULT:      -3.6     19.630     22.408
REMARK  Name = 86311066_OplopantriolA.pdbqt.pdb
REMARK  12 active torsions:
REMARK  status: ('A' for Active; 'I' for Inactive)
REMARK    1  A    between atoms: C_1  and  C_3
REMARK    2  A    between atoms: C_2  and  C_13
REMARK    3  A    between atoms: C_4  and  C_5
REMARK    4  A    between atoms: C_6  and  C_7
REMARK    5  A    between atoms: C_8  and  C_9
REMARK    6  A    between atoms: C_10  and  O_11
REMARK    7  A    between atoms: C_13  and  O_14
REMARK    8  A    between atoms: C_13  and  C_16
REMARK    9  A    between atoms: C_17  and  C_18
REMARK   10  A    between atoms: C_19  and  C_20
REMARK   11  A    between atoms: C_20  and  C_21
REMARK   12  A    between atoms: C_20  and  O_23
REMARK                            x       y       z     vdW  Elec       q    Type
REMARK                         _______ _______ _______ _____ _____    ______ ____
ROOT
ATOM      1  C   UNL     1      47.570  25.532  84.854  0.00  0.00    +0.000 C 
ATOM      2  C   UNL     1      46.587  26.131  84.510  0.00  0.00    +0.000 C 
ENDROOT
BRANCH   1   3
ATOM      3  C   UNL     1      48.821  24.767  85.292  0.00  0.00    +0.000 C 
ATOM      4  C   UNL     1      50.074  24.001  85.729  0.00  0.00    +0.000 C 
BRANCH   4   5
ATOM      5  C   UNL     1      51.325  23.234  86.167  0.00  0.00    +0.000 C 
ATOM      6  C   UNL     1      52.577  22.466  86.603  0.00  0.00    +0.000 C 
BRANCH   6   7
ATOM      7  C   UNL     1      53.828  21.699  87.040  0.00  0.00    +0.000 C 
ATOM      8  C   UNL     1      55.080  20.931  87.477  0.00  0.00    +0.000 C 
BRANCH   8   9
ATOM      9  C   UNL     1      56.331  20.165  87.915  0.00  0.00    +0.000 C 
ATOM     10  C   UNL     1      57.584  19.399  88.353  0.00  0.00    +0.000 C 
BRANCH  10  11
ATOM     11  O   UNL     1      58.669  18.735  88.733  0.00  0.00    +0.000 OA
ATOM     12  H   UNL     1      59.470  19.225  88.482  0.00  0.00    +0.000 HD
ENDBRANCH  10  11
ENDBRANCH   8   9
ENDBRANCH   6   7
ENDBRANCH   4   5
ENDBRANCH   1   3
BRANCH   2  13
ATOM     13  C   UNL     1      45.428  26.838  84.106  0.00  0.00    +0.000 C 
BRANCH  13  14
ATOM     14  O   UNL     1      45.541  28.199  83.936  0.00  0.00    +0.000 OA
ATOM     15  H   UNL     1      45.321  28.682  84.750  0.00  0.00    +0.000 HD
ENDBRANCH  13  14
BRANCH  13  16
ATOM     16  C   UNL     1      44.172  26.222  83.872  0.00  0.00    +0.000 C 
ATOM     17  C   UNL     1      43.110  25.699  83.674  0.00  0.00    +0.000 C 
BRANCH  17  18
ATOM     18  C   UNL     1      41.755  25.032  83.424  0.00  0.00    +0.000 C 
ATOM     19  C   UNL     1      40.692  24.509  83.228  0.00  0.00    +0.000 C 
BRANCH  19  20
ATOM     20  C   UNL     1      39.435  23.891  82.995  0.00  0.00    +0.000 C 
BRANCH  20  21
ATOM     21  C   UNL     1      38.292  24.112  83.814  0.00  0.00    +0.000 C 
ATOM     22  C   UNL     1      37.223  24.334  84.581  0.00  0.00    +0.000 C 
ENDBRANCH  20  21
BRANCH  20  23
ATOM     23  O   UNL     1      39.315  23.033  81.921  0.00  0.00    +0.000 OA
ATOM     24  H   UNL     1      39.448  23.493  81.074  0.00  0.00    +0.000 HD
ENDBRANCH  20  23
ENDBRANCH  19  20
ENDBRANCH  17  18
ENDBRANCH  13  16
ENDBRANCH   2  13
TORSDOF 12
ENDMDL
