MODEL 1
REMARK VINA RESULT:      -7.5      0.000      0.000
REMARK  Name = 91746246_sitosterol.pdbqt.pdb
REMARK  10 active torsions:
REMARK  status: ('A' for Active; 'I' for Inactive)
REMARK    1  A    between atoms: C_5  and  C_20
REMARK    2  A    between atoms: C_19  and  O_30
REMARK    3  A    between atoms: C_20  and  C_22
REMARK    4  A    between atoms: C_23  and  C_24
REMARK    5  A    between atoms: C_24  and  C_28
REMARK    6  A    between atoms: O_30  and  C_32
REMARK    7  A    between atoms: C_32  and  C_33
REMARK    8  A    between atoms: C_34  and  C_35
REMARK    9  A    between atoms: C_38  and  O_41
REMARK   10  A    between atoms: C_40  and  O_43
REMARK                            x       y       z     vdW  Elec       q    Type
REMARK                         _______ _______ _______ _____ _____    ______ ____
ROOT
ATOM      1  C   UNL     1       5.120  15.089  97.956  0.00  0.00    +0.000 C 
ATOM      2  C   UNL     1       6.688  15.491  98.024  0.00  0.00    +0.000 C 
ATOM      3  C   UNL     1       7.578  15.017  99.103  0.00  0.00    +0.000 C 
ATOM      4  C   UNL     1       7.258  13.933 100.103  0.00  0.00    +0.000 C 
ATOM      5  C   UNL     1       4.911  14.768  96.481  0.00  0.00    +0.000 C 
ATOM      6  C   UNL     1       4.993  13.947  98.861  0.00  0.00    +0.000 C 
ATOM      7  C   UNL     1       8.212  13.513 101.250  0.00  0.00    +0.000 C 
ATOM      8  C   UNL     1       7.166  15.568  96.678  0.00  0.00    +0.000 C 
ATOM      9  C   UNL     1       5.958  13.405  99.886  0.00  0.00    +0.000 C 
ATOM     10  C   UNL     1       6.085  15.098  95.743  0.00  0.00    +0.000 C 
ATOM     11  C   UNL     1       8.921  15.459  99.190  0.00  0.00    +0.000 C 
ATOM     12  C   UNL     1       4.311  16.345  98.378  0.00  0.00    +0.000 C 
ATOM     13  C   UNL     1       9.774  14.001 101.038  0.00  0.00    +0.000 C 
ATOM     14  C   UNL     1       8.315  12.025 101.324  0.00  0.00    +0.000 C 
ATOM     15  C   UNL     1       9.946  14.930 100.148  0.00  0.00    +0.000 C 
ATOM     16  C   UNL     1       7.713  14.133 102.588  0.00  0.00    +0.000 C 
ATOM     17  C   UNL     1      10.767  12.952 101.112  0.00  0.00    +0.000 C 
ATOM     18  C   UNL     1       9.493  11.037 101.333  0.00  0.00    +0.000 C 
ATOM     19  C   UNL     1      10.842  11.520 101.231  0.00  0.00    +0.000 C 
ENDROOT
BRANCH   5  20
ATOM     20  C   UNL     1       3.648  14.440  95.901  0.00  0.00    +0.000 C 
ATOM     21  C   UNL     1       3.121  13.031  95.865  0.00  0.00    +0.000 C 
BRANCH  20  22
ATOM     22  C   UNL     1       2.939  15.384  95.107  0.00  0.00    +0.000 C 
ATOM     23  C   UNL     1       2.171  16.403  94.252  0.00  0.00    +0.000 C 
BRANCH  23  24
ATOM     24  C   UNL     1       1.446  17.337  93.452  0.00  0.00    +0.000 C 
ATOM     25  C   UNL     1       0.992  18.599  93.999  0.00  0.00    +0.000 C 
ATOM     26  C   UNL     1       0.185  19.605  93.209  0.00  0.00    +0.000 C 
ATOM     27  C   UNL     1       1.290  19.029  95.420  0.00  0.00    +0.000 C 
BRANCH  24  28
ATOM     28  C   UNL     1       1.162  17.024  92.096  0.00  0.00    +0.000 C 
ATOM     29  C   UNL     1       0.788  16.692  90.647  0.00  0.00    +0.000 C 
ENDBRANCH  24  28
ENDBRANCH  23  24
ENDBRANCH  20  22
ENDBRANCH   5  20
BRANCH  19  30
ATOM     30  O   UNL     1      11.854  10.974 102.014  0.00  0.00    +0.000 OA
BRANCH  30  32
ATOM     31  O   UNL     1      13.931  11.911 101.548  0.00  0.00    +0.000 OA
ATOM     32  C   UNL     1      13.069  11.058 101.397  0.00  0.00    +0.000 C 
BRANCH  32  33
ATOM     33  C   UNL     1      13.284   9.950 100.500  0.00  0.00    +0.000 C 
ATOM     34  C   UNL     1      13.453   9.035  99.739  0.00  0.00    +0.000 C 
BRANCH  34  35
ATOM     35  C   UNL     1      13.641   7.958  98.824  0.00  0.00    +0.000 A 
ATOM     36  C   UNL     1      13.234   6.672  99.175  0.00  0.00    +0.000 A 
ATOM     37  C   UNL     1      14.236   8.190  97.586  0.00  0.00    +0.000 A 
ATOM     38  C   UNL     1      13.415   5.602  98.295  0.00  0.00    +0.000 A 
ATOM     39  C   UNL     1      14.422   7.133  96.699  0.00  0.00    +0.000 A 
ATOM     40  C   UNL     1      14.014   5.849  97.056  0.00  0.00    +0.000 A 
BRANCH  38  41
ATOM     41  O   UNL     1      13.045   4.307  98.563  0.00  0.00    +0.000 OA
ATOM     42  C   UNL     1      12.318   4.119  99.750  0.00  0.00    +0.000 C 
ENDBRANCH  38  41
BRANCH  40  43
ATOM     43  O   UNL     1      14.202   4.814  96.181  0.00  0.00    +0.000 OA
ATOM     44  H   UNL     1      13.547   4.891  95.461  0.00  0.00    +0.000 HD
ENDBRANCH  40  43
ENDBRANCH  34  35
ENDBRANCH  32  33
ENDBRANCH  30  32
ENDBRANCH  19  30
TORSDOF 10
ENDMDL
MODEL 2
REMARK VINA RESULT:      -7.5      1.676      3.855
REMARK  Name = 91746246_sitosterol.pdbqt.pdb
REMARK  10 active torsions:
REMARK  status: ('A' for Active; 'I' for Inactive)
REMARK    1  A    between atoms: C_5  and  C_20
REMARK    2  A    between atoms: C_19  and  O_30
REMARK    3  A    between atoms: C_20  and  C_22
REMARK    4  A    between atoms: C_23  and  C_24
REMARK    5  A    between atoms: C_24  and  C_28
REMARK    6  A    between atoms: O_30  and  C_32
REMARK    7  A    between atoms: C_32  and  C_33
REMARK    8  A    between atoms: C_34  and  C_35
REMARK    9  A    between atoms: C_38  and  O_41
REMARK   10  A    between atoms: C_40  and  O_43
REMARK                            x       y       z     vdW  Elec       q    Type
REMARK                         _______ _______ _______ _____ _____    ______ ____
ROOT
ATOM      1  C   UNL     1       5.221  15.072  97.950  0.00  0.00    +0.000 C 
ATOM      2  C   UNL     1       6.779  15.500  98.081  0.00  0.00    +0.000 C 
ATOM      3  C   UNL     1       7.659  14.960  99.137  0.00  0.00    +0.000 C 
ATOM      4  C   UNL     1       7.346  13.794 100.041  0.00  0.00    +0.000 C 
ATOM      5  C   UNL     1       5.047  14.865  96.451  0.00  0.00    +0.000 C 
ATOM      6  C   UNL     1       5.104  13.859  98.759  0.00  0.00    +0.000 C 
ATOM      7  C   UNL     1       8.288  13.304 101.171  0.00  0.00    +0.000 C 
ATOM      8  C   UNL     1       7.280  15.694  96.756  0.00  0.00    +0.000 C 
ATOM      9  C   UNL     1       6.061  13.258  99.758  0.00  0.00    +0.000 C 
ATOM     10  C   UNL     1       6.227  15.277  95.764  0.00  0.00    +0.000 C 
ATOM     11  C   UNL     1       8.990  15.423  99.286  0.00  0.00    +0.000 C 
ATOM     12  C   UNL     1       4.377  16.273  98.454  0.00  0.00    +0.000 C 
ATOM     13  C   UNL     1       9.842  13.841 101.030  0.00  0.00    +0.000 C 
ATOM     14  C   UNL     1       8.423  11.818 101.128  0.00  0.00    +0.000 C 
ATOM     15  C   UNL     1      10.009  14.841 100.219  0.00  0.00    +0.000 C 
ATOM     16  C   UNL     1       7.750  13.805 102.544  0.00  0.00    +0.000 C 
ATOM     17  C   UNL     1      10.856  12.810 101.040  0.00  0.00    +0.000 C 
ATOM     18  C   UNL     1       9.622  10.857 101.083  0.00  0.00    +0.000 C 
ATOM     19  C   UNL     1      10.962  11.375 101.047  0.00  0.00    +0.000 C 
ENDROOT
BRANCH   5  20
ATOM     20  C   UNL     1       3.803  14.558  95.821  0.00  0.00    +0.000 C 
ATOM     21  C   UNL     1       2.940  15.614  95.186  0.00  0.00    +0.000 C 
BRANCH  20  22
ATOM     22  C   UNL     1       3.197  13.280  95.982  0.00  0.00    +0.000 C 
ATOM     23  C   UNL     1       2.541  11.902  96.153  0.00  0.00    +0.000 C 
BRANCH  23  24
ATOM     24  C   UNL     1       1.915  10.628  96.312  0.00  0.00    +0.000 C 
ATOM     25  C   UNL     1       0.702  10.295  95.596  0.00  0.00    +0.000 C 
ATOM     26  C   UNL     1      -0.024   8.977  95.759  0.00  0.00    +0.000 C 
ATOM     27  C   UNL     1       0.048  11.240  94.610  0.00  0.00    +0.000 C 
BRANCH  24  28
ATOM     28  C   UNL     1       2.492   9.671  97.189  0.00  0.00    +0.000 C 
ATOM     29  C   UNL     1       3.176   8.670  98.128  0.00  0.00    +0.000 C 
ENDBRANCH  24  28
ENDBRANCH  23  24
ENDBRANCH  20  22
ENDBRANCH   5  20
BRANCH  19  30
ATOM     30  O   UNL     1      11.971  10.789 101.805  0.00  0.00    +0.000 OA
BRANCH  30  32
ATOM     31  O   UNL     1      14.058  11.598 101.174  0.00  0.00    +0.000 OA
ATOM     32  C   UNL     1      13.159  10.772 101.132  0.00  0.00    +0.000 C 
BRANCH  32  33
ATOM     33  C   UNL     1      13.292   9.585 100.324  0.00  0.00    +0.000 C 
ATOM     34  C   UNL     1      13.415   8.589  99.663  0.00  0.00    +0.000 C 
BRANCH  34  35
ATOM     35  C   UNL     1      13.575   7.401  98.891  0.00  0.00    +0.000 A 
ATOM     36  C   UNL     1      14.308   7.440  97.706  0.00  0.00    +0.000 A 
ATOM     37  C   UNL     1      12.994   6.209  99.316  0.00  0.00    +0.000 A 
ATOM     38  C   UNL     1      14.471   6.287  96.932  0.00  0.00    +0.000 A 
ATOM     39  C   UNL     1      13.149   5.053  98.555  0.00  0.00    +0.000 A 
ATOM     40  C   UNL     1      13.883   5.098  97.370  0.00  0.00    +0.000 A 
BRANCH  38  41
ATOM     41  O   UNL     1      15.175   6.239  95.754  0.00  0.00    +0.000 OA
ATOM     42  C   UNL     1      15.875   7.409  95.419  0.00  0.00    +0.000 C 
ENDBRANCH  38  41
BRANCH  40  43
ATOM     43  O   UNL     1      14.029   3.959  96.626  0.00  0.00    +0.000 OA
ATOM     44  H   UNL     1      13.988   4.197  95.680  0.00  0.00    +0.000 HD
ENDBRANCH  40  43
ENDBRANCH  34  35
ENDBRANCH  32  33
ENDBRANCH  30  32
ENDBRANCH  19  30
TORSDOF 10
ENDMDL
MODEL 3
REMARK VINA RESULT:      -7.1     59.495     63.980
REMARK  Name = 91746246_sitosterol.pdbqt.pdb
REMARK  10 active torsions:
REMARK  status: ('A' for Active; 'I' for Inactive)
REMARK    1  A    between atoms: C_5  and  C_20
REMARK    2  A    between atoms: C_19  and  O_30
REMARK    3  A    between atoms: C_20  and  C_22
REMARK    4  A    between atoms: C_23  and  C_24
REMARK    5  A    between atoms: C_24  and  C_28
REMARK    6  A    between atoms: O_30  and  C_32
REMARK    7  A    between atoms: C_32  and  C_33
REMARK    8  A    between atoms: C_34  and  C_35
REMARK    9  A    between atoms: C_38  and  O_41
REMARK   10  A    between atoms: C_40  and  O_43
REMARK                            x       y       z     vdW  Elec       q    Type
REMARK                         _______ _______ _______ _____ _____    ______ ____
ROOT
ATOM      1  C   UNL     1      65.142  29.814  70.622  0.00  0.00    +0.000 C 
ATOM      2  C   UNL     1      63.670  29.804  69.946  0.00  0.00    +0.000 C 
ATOM      3  C   UNL     1      62.469  30.277  70.663  0.00  0.00    +0.000 C 
ATOM      4  C   UNL     1      62.457  31.047  71.960  0.00  0.00    +0.000 C 
ATOM      5  C   UNL     1      66.032  30.338  69.502  0.00  0.00    +0.000 C 
ATOM      6  C   UNL     1      65.011  30.705  71.775  0.00  0.00    +0.000 C 
ATOM      7  C   UNL     1      61.161  31.472  72.697  0.00  0.00    +0.000 C 
ATOM      8  C   UNL     1      63.839  30.094  68.555  0.00  0.00    +0.000 C 
ATOM      9  C   UNL     1      63.777  31.270  72.434  0.00  0.00    +0.000 C 
ATOM     10  C   UNL     1      65.279  30.447  68.296  0.00  0.00    +0.000 C 
ATOM     11  C   UNL     1      61.181  30.169  70.081  0.00  0.00    +0.000 C 
ATOM     12  C   UNL     1      65.489  28.343  70.975  0.00  0.00    +0.000 C 
ATOM     13  C   UNL     1      59.807  31.429  71.753  0.00  0.00    +0.000 C 
ATOM     14  C   UNL     1      61.248  32.900  73.123  0.00  0.00    +0.000 C 
ATOM     15  C   UNL     1      59.922  30.750  70.653  0.00  0.00    +0.000 C 
ATOM     16  C   UNL     1      60.915  30.515  73.900  0.00  0.00    +0.000 C 
ATOM     17  C   UNL     1      59.047  32.658  71.705  0.00  0.00    +0.000 C 
ATOM     18  C   UNL     1      60.344  34.128  72.928  0.00  0.00    +0.000 C 
ATOM     19  C   UNL     1      59.130  34.018  72.168  0.00  0.00    +0.000 C 
ENDROOT
BRANCH   5  20
ATOM     20  C   UNL     1      67.453  30.446  69.589  0.00  0.00    +0.000 C 
ATOM     21  C   UNL     1      68.377  29.498  68.873  0.00  0.00    +0.000 C 
BRANCH  20  22
ATOM     22  C   UNL     1      68.065  31.296  70.551  0.00  0.00    +0.000 C 
ATOM     23  C   UNL     1      68.727  32.215  71.589  0.00  0.00    +0.000 C 
BRANCH  23  24
ATOM     24  C   UNL     1      69.358  33.069  72.544  0.00  0.00    +0.000 C 
ATOM     25  C   UNL     1      68.708  33.406  73.793  0.00  0.00    +0.000 C 
ATOM     26  C   UNL     1      69.312  34.338  74.820  0.00  0.00    +0.000 C 
ATOM     27  C   UNL     1      67.356  32.848  74.188  0.00  0.00    +0.000 C 
BRANCH  24  28
ATOM     28  C   UNL     1      70.645  33.600  72.264  0.00  0.00    +0.000 C 
ATOM     29  C   UNL     1      72.038  34.132  71.906  0.00  0.00    +0.000 C 
ENDBRANCH  24  28
ENDBRANCH  23  24
ENDBRANCH  20  22
ENDBRANCH   5  20
BRANCH  19  30
ATOM     30  O   UNL     1      57.963  34.644  72.597  0.00  0.00    +0.000 OA
BRANCH  30  32
ATOM     31  O   UNL     1      58.686  36.854  72.611  0.00  0.00    +0.000 OA
ATOM     32  C   UNL     1      58.222  35.863  73.154  0.00  0.00    +0.000 C 
BRANCH  32  33
ATOM     33  C   UNL     1      57.843  35.899  74.545  0.00  0.00    +0.000 C 
ATOM     34  C   UNL     1      57.516  35.914  75.701  0.00  0.00    +0.000 C 
BRANCH  34  35
ATOM     35  C   UNL     1      57.117  35.917  77.070  0.00  0.00    +0.000 A 
ATOM     36  C   UNL     1      58.021  35.522  78.055  0.00  0.00    +0.000 A 
ATOM     37  C   UNL     1      55.827  36.307  77.420  0.00  0.00    +0.000 A 
ATOM     38  C   UNL     1      57.647  35.513  79.402  0.00  0.00    +0.000 A 
ATOM     39  C   UNL     1      55.441  36.302  78.758  0.00  0.00    +0.000 A 
ATOM     40  C   UNL     1      56.349  35.905  79.739  0.00  0.00    +0.000 A 
BRANCH  38  41
ATOM     41  O   UNL     1      58.474  35.137  80.432  0.00  0.00    +0.000 OA
ATOM     42  C   UNL     1      58.638  33.753  80.602  0.00  0.00    +0.000 C 
ENDBRANCH  38  41
BRANCH  40  43
ATOM     43  O   UNL     1      55.963  35.901  81.051  0.00  0.00    +0.000 OA
ATOM     44  H   UNL     1      56.416  36.631  81.513  0.00  0.00    +0.000 HD
ENDBRANCH  40  43
ENDBRANCH  34  35
ENDBRANCH  32  33
ENDBRANCH  30  32
ENDBRANCH  19  30
TORSDOF 10
ENDMDL
MODEL 4
REMARK VINA RESULT:      -7.0     61.118     64.678
REMARK  Name = 91746246_sitosterol.pdbqt.pdb
REMARK  10 active torsions:
REMARK  status: ('A' for Active; 'I' for Inactive)
REMARK    1  A    between atoms: C_5  and  C_20
REMARK    2  A    between atoms: C_19  and  O_30
REMARK    3  A    between atoms: C_20  and  C_22
REMARK    4  A    between atoms: C_23  and  C_24
REMARK    5  A    between atoms: C_24  and  C_28
REMARK    6  A    between atoms: O_30  and  C_32
REMARK    7  A    between atoms: C_32  and  C_33
REMARK    8  A    between atoms: C_34  and  C_35
REMARK    9  A    between atoms: C_38  and  O_41
REMARK   10  A    between atoms: C_40  and  O_43
REMARK                            x       y       z     vdW  Elec       q    Type
REMARK                         _______ _______ _______ _____ _____    ______ ____
ROOT
ATOM      1  C   UNL     1      66.241  42.554  76.993  0.00  0.00    +0.000 C 
ATOM      2  C   UNL     1      65.493  42.182  75.604  0.00  0.00    +0.000 C 
ATOM      3  C   UNL     1      65.212  40.787  75.208  0.00  0.00    +0.000 C 
ATOM      4  C   UNL     1      65.326  39.574  76.098  0.00  0.00    +0.000 C 
ATOM      5  C   UNL     1      65.430  43.734  77.514  0.00  0.00    +0.000 C 
ATOM      6  C   UNL     1      66.149  41.338  77.798  0.00  0.00    +0.000 C 
ATOM      7  C   UNL     1      65.070  38.124  75.612  0.00  0.00    +0.000 C 
ATOM      8  C   UNL     1      64.530  43.210  75.351  0.00  0.00    +0.000 C 
ATOM      9  C   UNL     1      65.754  39.935  77.403  0.00  0.00    +0.000 C 
ATOM     10  C   UNL     1      64.477  44.138  76.533  0.00  0.00    +0.000 C 
ATOM     11  C   UNL     1      64.641  40.486  73.947  0.00  0.00    +0.000 C 
ATOM     12  C   UNL     1      67.687  42.983  76.627  0.00  0.00    +0.000 C 
ATOM     13  C   UNL     1      64.229  38.029  74.195  0.00  0.00    +0.000 C 
ATOM     14  C   UNL     1      64.204  37.394  76.586  0.00  0.00    +0.000 C 
ATOM     15  C   UNL     1      64.180  39.129  73.508  0.00  0.00    +0.000 C 
ATOM     16  C   UNL     1      66.434  37.408  75.389  0.00  0.00    +0.000 C 
ATOM     17  C   UNL     1      63.038  37.210  74.236  0.00  0.00    +0.000 C 
ATOM     18  C   UNL     1      62.894  36.599  76.460  0.00  0.00    +0.000 C 
ATOM     19  C   UNL     1      62.245  36.474  75.184  0.00  0.00    +0.000 C 
ENDROOT
BRANCH   5  20
ATOM     20  C   UNL     1      65.758  44.478  78.688  0.00  0.00    +0.000 C 
ATOM     21  C   UNL     1      66.833  45.531  78.699  0.00  0.00    +0.000 C 
BRANCH  20  22
ATOM     22  C   UNL     1      65.261  44.090  79.963  0.00  0.00    +0.000 C 
ATOM     23  C   UNL     1      64.724  43.673  81.341  0.00  0.00    +0.000 C 
BRANCH  23  24
ATOM     24  C   UNL     1      64.238  43.296  82.630  0.00  0.00    +0.000 C 
ATOM     25  C   UNL     1      62.825  43.346  82.941  0.00  0.00    +0.000 C 
ATOM     26  C   UNL     1      62.261  42.998  84.301  0.00  0.00    +0.000 C 
ATOM     27  C   UNL     1      61.777  43.751  81.925  0.00  0.00    +0.000 C 
BRANCH  24  28
ATOM     28  C   UNL     1      65.156  42.866  83.625  0.00  0.00    +0.000 C 
ATOM     29  C   UNL     1      66.161  42.468  84.712  0.00  0.00    +0.000 C 
ENDBRANCH  24  28
ENDBRANCH  23  24
ENDBRANCH  20  22
ENDBRANCH   5  20
BRANCH  19  30
ATOM     30  O   UNL     1      61.692  35.261  74.784  0.00  0.00    +0.000 OA
BRANCH  30  32
ATOM     31  O   UNL     1      59.790  35.385  73.451  0.00  0.00    +0.000 OA
ATOM     32  C   UNL     1      60.354  35.377  74.535  0.00  0.00    +0.000 C 
BRANCH  32  33
ATOM     33  C   UNL     1      59.594  35.464  75.757  0.00  0.00    +0.000 C 
ATOM     34  C   UNL     1      58.952  35.520  76.771  0.00  0.00    +0.000 C 
BRANCH  34  35
ATOM     35  C   UNL     1      58.180  35.571  77.969  0.00  0.00    +0.000 A 
ATOM     36  C   UNL     1      58.188  34.485  78.843  0.00  0.00    +0.000 A 
ATOM     37  C   UNL     1      57.417  36.698  78.260  0.00  0.00    +0.000 A 
ATOM     38  C   UNL     1      57.434  34.513  80.020  0.00  0.00    +0.000 A 
ATOM     39  C   UNL     1      56.660  36.740  79.429  0.00  0.00    +0.000 A 
ATOM     40  C   UNL     1      56.672  35.650  80.299  0.00  0.00    +0.000 A 
BRANCH  38  41
ATOM     41  O   UNL     1      57.384  33.488  80.932  0.00  0.00    +0.000 OA
ATOM     42  C   UNL     1      58.560  33.278  81.671  0.00  0.00    +0.000 C 
ENDBRANCH  38  41
BRANCH  40  43
ATOM     43  O   UNL     1      55.925  35.696  81.445  0.00  0.00    +0.000 OA
ATOM     44  H   UNL     1      56.318  36.355  82.048  0.00  0.00    +0.000 HD
ENDBRANCH  40  43
ENDBRANCH  34  35
ENDBRANCH  32  33
ENDBRANCH  30  32
ENDBRANCH  19  30
TORSDOF 10
ENDMDL
MODEL 5
REMARK VINA RESULT:      -6.8     15.557     20.492
REMARK  Name = 91746246_sitosterol.pdbqt.pdb
REMARK  10 active torsions:
REMARK  status: ('A' for Active; 'I' for Inactive)
REMARK    1  A    between atoms: C_5  and  C_20
REMARK    2  A    between atoms: C_19  and  O_30
REMARK    3  A    between atoms: C_20  and  C_22
REMARK    4  A    between atoms: C_23  and  C_24
REMARK    5  A    between atoms: C_24  and  C_28
REMARK    6  A    between atoms: O_30  and  C_32
REMARK    7  A    between atoms: C_32  and  C_33
REMARK    8  A    between atoms: C_34  and  C_35
REMARK    9  A    between atoms: C_38  and  O_41
REMARK   10  A    between atoms: C_40  and  O_43
REMARK                            x       y       z     vdW  Elec       q    Type
REMARK                         _______ _______ _______ _____ _____    ______ ____
ROOT
ATOM      1  C   UNL     1      21.733   7.813  84.690  0.00  0.00    +0.000 C 
ATOM      2  C   UNL     1      22.113   9.267  85.295  0.00  0.00    +0.000 C 
ATOM      3  C   UNL     1      21.538  10.519  84.763  0.00  0.00    +0.000 C 
ATOM      4  C   UNL     1      20.374  10.622  83.809  0.00  0.00    +0.000 C 
ATOM      5  C   UNL     1      21.545   6.959  85.938  0.00  0.00    +0.000 C 
ATOM      6  C   UNL     1      20.518   8.045  83.911  0.00  0.00    +0.000 C 
ATOM      7  C   UNL     1      19.845  11.965  83.239  0.00  0.00    +0.000 C 
ATOM      8  C   UNL     1      22.303   9.105  86.704  0.00  0.00    +0.000 C 
ATOM      9  C   UNL     1      19.879   9.337  83.464  0.00  0.00    +0.000 C 
ATOM     10  C   UNL     1      21.927   7.701  87.094  0.00  0.00    +0.000 C 
ATOM     11  C   UNL     1      21.959  11.781  85.248  0.00  0.00    +0.000 C 
ATOM     12  C   UNL     1      22.954   7.334  83.860  0.00  0.00    +0.000 C 
ATOM     13  C   UNL     1      20.337  13.293  84.086  0.00  0.00    +0.000 C 
ATOM     14  C   UNL     1      18.356  12.019  83.330  0.00  0.00    +0.000 C 
ATOM     15  C   UNL     1      21.338  13.097  84.888  0.00  0.00    +0.000 C 
ATOM     16  C   UNL     1      20.350  12.137  81.776  0.00  0.00    +0.000 C 
ATOM     17  C   UNL     1      19.276  14.166  84.539  0.00  0.00    +0.000 C 
ATOM     18  C   UNL     1      17.361  13.032  83.919  0.00  0.00    +0.000 C 
ATOM     19  C   UNL     1      17.838  14.218  84.573  0.00  0.00    +0.000 C 
ENDROOT
BRANCH   5  20
ATOM     20  C   UNL     1      21.280   5.557  85.919  0.00  0.00    +0.000 C 
ATOM     21  C   UNL     1      21.953   4.598  86.865  0.00  0.00    +0.000 C 
BRANCH  20  22
ATOM     22  C   UNL     1      20.560   4.961  84.846  0.00  0.00    +0.000 C 
ATOM     23  C   UNL     1      19.781   4.317  83.689  0.00  0.00    +0.000 C 
BRANCH  23  24
ATOM     24  C   UNL     1      19.060   3.702  82.621  0.00  0.00    +0.000 C 
ATOM     25  C   UNL     1      18.811   4.407  81.382  0.00  0.00    +0.000 C 
ATOM     26  C   UNL     1      18.019   3.818  80.235  0.00  0.00    +0.000 C 
ATOM     27  C   UNL     1      19.328   5.806  81.118  0.00  0.00    +0.000 C 
BRANCH  24  28
ATOM     28  C   UNL     1      18.578   2.375  82.776  0.00  0.00    +0.000 C 
ATOM     29  C   UNL     1      18.111   0.930  82.986  0.00  0.00    +0.000 C 
ENDBRANCH  24  28
ENDBRANCH  23  24
ENDBRANCH  20  22
ENDBRANCH   5  20
BRANCH  19  30
ATOM     30  O   UNL     1      17.216  15.445  84.364  0.00  0.00    +0.000 OA
BRANCH  30  32
ATOM     31  O   UNL     1      15.203  15.528  85.525  0.00  0.00    +0.000 OA
ATOM     32  C   UNL     1      16.393  15.775  85.402  0.00  0.00    +0.000 C 
BRANCH  32  33
ATOM     33  C   UNL     1      17.109  16.469  86.443  0.00  0.00    +0.000 C 
ATOM     34  C   UNL     1      17.689  17.055  87.318  0.00  0.00    +0.000 C 
BRANCH  34  35
ATOM     35  C   UNL     1      18.361  17.758  88.361  0.00  0.00    +0.000 A 
ATOM     36  C   UNL     1      19.470  17.183  88.980  0.00  0.00    +0.000 A 
ATOM     37  C   UNL     1      17.906  19.010  88.765  0.00  0.00    +0.000 A 
ATOM     38  C   UNL     1      20.138  17.853  90.008  0.00  0.00    +0.000 A 
ATOM     39  C   UNL     1      18.563  19.689  89.788  0.00  0.00    +0.000 A 
ATOM     40  C   UNL     1      19.671  19.109  90.404  0.00  0.00    +0.000 A 
BRANCH  38  41
ATOM     41  O   UNL     1      21.235  17.357  90.670  0.00  0.00    +0.000 OA
ATOM     42  C   UNL     1      20.973  16.333  91.594  0.00  0.00    +0.000 C 
ENDBRANCH  38  41
BRANCH  40  43
ATOM     43  O   UNL     1      20.310  19.780  91.410  0.00  0.00    +0.000 OA
ATOM     44  H   UNL     1      20.001  20.705  91.414  0.00  0.00    +0.000 HD
ENDBRANCH  40  43
ENDBRANCH  34  35
ENDBRANCH  32  33
ENDBRANCH  30  32
ENDBRANCH  19  30
TORSDOF 10
ENDMDL
MODEL 6
REMARK VINA RESULT:      -6.8     12.819     17.646
REMARK  Name = 91746246_sitosterol.pdbqt.pdb
REMARK  10 active torsions:
REMARK  status: ('A' for Active; 'I' for Inactive)
REMARK    1  A    between atoms: C_5  and  C_20
REMARK    2  A    between atoms: C_19  and  O_30
REMARK    3  A    between atoms: C_20  and  C_22
REMARK    4  A    between atoms: C_23  and  C_24
REMARK    5  A    between atoms: C_24  and  C_28
REMARK    6  A    between atoms: O_30  and  C_32
REMARK    7  A    between atoms: C_32  and  C_33
REMARK    8  A    between atoms: C_34  and  C_35
REMARK    9  A    between atoms: C_38  and  O_41
REMARK   10  A    between atoms: C_40  and  O_43
REMARK                            x       y       z     vdW  Elec       q    Type
REMARK                         _______ _______ _______ _____ _____    ______ ____
ROOT
ATOM      1  C   UNL     1      22.693  12.825 100.183  0.00  0.00    +0.000 C 
ATOM      2  C   UNL     1      21.143  13.180  99.868  0.00  0.00    +0.000 C 
ATOM      3  C   UNL     1      20.587  14.534 100.069  0.00  0.00    +0.000 C 
ATOM      4  C   UNL     1      21.383  15.789 100.325  0.00  0.00    +0.000 C 
ATOM      5  C   UNL     1      23.097  11.968  98.990  0.00  0.00    +0.000 C 
ATOM      6  C   UNL     1      23.358  14.125 100.264  0.00  0.00    +0.000 C 
ATOM      7  C   UNL     1      20.742  17.178 100.582  0.00  0.00    +0.000 C 
ATOM      8  C   UNL     1      20.749  12.401  98.735  0.00  0.00    +0.000 C 
ATOM      9  C   UNL     1      22.776  15.514 100.359  0.00  0.00    +0.000 C 
ATOM     10  C   UNL     1      21.954  11.685  98.186  0.00  0.00    +0.000 C 
ATOM     11  C   UNL     1      19.208  14.793  99.876  0.00  0.00    +0.000 C 
ATOM     12  C   UNL     1      22.711  12.003 101.499  0.00  0.00    +0.000 C 
ATOM     13  C   UNL     1      19.164  17.286 100.111  0.00  0.00    +0.000 C 
ATOM     14  C   UNL     1      21.426  18.226  99.768  0.00  0.00    +0.000 C 
ATOM     15  C   UNL     1      18.570  16.150  99.905  0.00  0.00    +0.000 C 
ATOM     16  C   UNL     1      20.791  17.493 102.106  0.00  0.00    +0.000 C 
ATOM     17  C   UNL     1      18.861  18.374  99.208  0.00  0.00    +0.000 C 
ATOM     18  C   UNL     1      20.935  19.298  98.782  0.00  0.00    +0.000 C 
ATOM     19  C   UNL     1      19.537  19.407  98.470  0.00  0.00    +0.000 C 
ENDROOT
BRANCH   5  20
ATOM     20  C   UNL     1      24.368  11.333  98.852  0.00  0.00    +0.000 C 
ATOM     21  C   UNL     1      25.639  12.113  98.645  0.00  0.00    +0.000 C 
BRANCH  20  22
ATOM     22  C   UNL     1      24.467   9.928  98.652  0.00  0.00    +0.000 C 
ATOM     23  C   UNL     1      24.576   8.410  98.437  0.00  0.00    +0.000 C 
BRANCH  23  24
ATOM     24  C   UNL     1      24.695   7.002  98.235  0.00  0.00    +0.000 C 
ATOM     25  C   UNL     1      25.741   6.450  97.400  0.00  0.00    +0.000 C 
ATOM     26  C   UNL     1      25.887   4.971  97.119  0.00  0.00    +0.000 C 
ATOM     27  C   UNL     1      26.793   7.310  96.731  0.00  0.00    +0.000 C 
BRANCH  24  28
ATOM     28  C   UNL     1      23.770   6.125  98.863  0.00  0.00    +0.000 C 
ATOM     29  C   UNL     1      22.732   5.235  99.555  0.00  0.00    +0.000 C 
ENDBRANCH  24  28
ENDBRANCH  23  24
ENDBRANCH  20  22
ENDBRANCH   5  20
BRANCH  19  30
ATOM     30  O   UNL     1      18.927  20.653  98.365  0.00  0.00    +0.000 OA
BRANCH  30  32
ATOM     31  O   UNL     1      17.516  21.579  96.764  0.00  0.00    +0.000 OA
ATOM     32  C   UNL     1      18.460  20.880  97.102  0.00  0.00    +0.000 C 
BRANCH  32  33
ATOM     33  C   UNL     1      19.255  20.195  96.114  0.00  0.00    +0.000 C 
ATOM     34  C   UNL     1      19.933  19.626  95.301  0.00  0.00    +0.000 C 
BRANCH  34  35
ATOM     35  C   UNL     1      20.753  18.953  94.348  0.00  0.00    +0.000 A 
ATOM     36  C   UNL     1      20.172  18.081  93.429  0.00  0.00    +0.000 A 
ATOM     37  C   UNL     1      22.130  19.161  94.341  0.00  0.00    +0.000 A 
ATOM     38  C   UNL     1      20.959  17.407  92.491  0.00  0.00    +0.000 A 
ATOM     39  C   UNL     1      22.926  18.496  93.412  0.00  0.00    +0.000 A 
ATOM     40  C   UNL     1      22.339  17.625  92.495  0.00  0.00    +0.000 A 
BRANCH  38  41
ATOM     41  O   UNL     1      20.467  16.531  91.554  0.00  0.00    +0.000 OA
ATOM     42  C   UNL     1      19.464  17.043  90.715  0.00  0.00    +0.000 C 
ENDBRANCH  38  41
BRANCH  40  43
ATOM     43  O   UNL     1      23.127  16.973  91.587  0.00  0.00    +0.000 OA
ATOM     44  H   UNL     1      22.875  17.263  90.690  0.00  0.00    +0.000 HD
ENDBRANCH  40  43
ENDBRANCH  34  35
ENDBRANCH  32  33
ENDBRANCH  30  32
ENDBRANCH  19  30
TORSDOF 10
ENDMDL
MODEL 7
REMARK VINA RESULT:      -6.7     15.010     20.047
REMARK  Name = 91746246_sitosterol.pdbqt.pdb
REMARK  10 active torsions:
REMARK  status: ('A' for Active; 'I' for Inactive)
REMARK    1  A    between atoms: C_5  and  C_20
REMARK    2  A    between atoms: C_19  and  O_30
REMARK    3  A    between atoms: C_20  and  C_22
REMARK    4  A    between atoms: C_23  and  C_24
REMARK    5  A    between atoms: C_24  and  C_28
REMARK    6  A    between atoms: O_30  and  C_32
REMARK    7  A    between atoms: C_32  and  C_33
REMARK    8  A    between atoms: C_34  and  C_35
REMARK    9  A    between atoms: C_38  and  O_41
REMARK   10  A    between atoms: C_40  and  O_43
REMARK                            x       y       z     vdW  Elec       q    Type
REMARK                         _______ _______ _______ _____ _____    ______ ____
ROOT
ATOM      1  C   UNL     1      25.545  18.893  98.454  0.00  0.00    +0.000 C 
ATOM      2  C   UNL     1      23.928  18.996  98.425  0.00  0.00    +0.000 C 
ATOM      3  C   UNL     1      23.179  19.310  97.192  0.00  0.00    +0.000 C 
ATOM      4  C   UNL     1      23.742  19.319  95.792  0.00  0.00    +0.000 C 
ATOM      5  C   UNL     1      25.795  17.653  99.304  0.00  0.00    +0.000 C 
ATOM      6  C   UNL     1      25.931  18.768  97.049  0.00  0.00    +0.000 C 
ATOM      7  C   UNL     1      22.920  19.710  94.537  0.00  0.00    +0.000 C 
ATOM      8  C   UNL     1      23.423  18.024  99.346  0.00  0.00    +0.000 C 
ATOM      9  C   UNL     1      25.123  18.986  95.794  0.00  0.00    +0.000 C 
ATOM     10  C   UNL     1      24.566  17.189  99.857  0.00  0.00    +0.000 C 
ATOM     11  C   UNL     1      21.774  19.486  97.215  0.00  0.00    +0.000 C 
ATOM     12  C   UNL     1      26.068  20.173  99.159  0.00  0.00    +0.000 C 
ATOM     13  C   UNL     1      21.286  19.675  94.766  0.00  0.00    +0.000 C 
ATOM     14  C   UNL     1      23.144  18.723  93.440  0.00  0.00    +0.000 C 
ATOM     15  C   UNL     1      20.903  19.657  96.006  0.00  0.00    +0.000 C 
ATOM     16  C   UNL     1      23.294  21.159  94.107  0.00  0.00    +0.000 C 
ATOM     17  C   UNL     1      20.546  18.864  93.825  0.00  0.00    +0.000 C 
ATOM     18  C   UNL     1      22.209  17.882  92.555  0.00  0.00    +0.000 C 
ATOM     19  C   UNL     1      20.786  17.951  92.738  0.00  0.00    +0.000 C 
ENDROOT
BRANCH   5  20
ATOM     20  C   UNL     1      27.090  17.194  99.693  0.00  0.00    +0.000 C 
ATOM     21  C   UNL     1      27.654  17.446 101.065  0.00  0.00    +0.000 C 
BRANCH  20  22
ATOM     22  C   UNL     1      28.011  16.696  98.729  0.00  0.00    +0.000 C 
ATOM     23  C   UNL     1      29.006  16.161  97.688  0.00  0.00    +0.000 C 
BRANCH  23  24
ATOM     24  C   UNL     1      29.924  15.675  96.709  0.00  0.00    +0.000 C 
ATOM     25  C   UNL     1      30.159  16.398  95.477  0.00  0.00    +0.000 C 
ATOM     26  C   UNL     1      31.088  15.907  94.389  0.00  0.00    +0.000 C 
ATOM     27  C   UNL     1      29.492  17.722  95.167  0.00  0.00    +0.000 C 
BRANCH  24  28
ATOM     28  C   UNL     1      30.620  14.459  96.946  0.00  0.00    +0.000 C 
ATOM     29  C   UNL     1      31.336  13.118  97.148  0.00  0.00    +0.000 C 
ENDBRANCH  24  28
ENDBRANCH  23  24
ENDBRANCH  20  22
ENDBRANCH   5  20
BRANCH  19  30
ATOM     30  O   UNL     1      19.929  17.987  91.643  0.00  0.00    +0.000 OA
BRANCH  30  32
ATOM     31  O   UNL     1      20.260  15.694  91.443  0.00  0.00    +0.000 OA
ATOM     32  C   UNL     1      19.822  16.764  91.046  0.00  0.00    +0.000 C 
BRANCH  32  33
ATOM     33  C   UNL     1      19.060  16.836  89.825  0.00  0.00    +0.000 C 
ATOM     34  C   UNL     1      18.409  16.890  88.815  0.00  0.00    +0.000 C 
BRANCH  34  35
ATOM     35  C   UNL     1      17.622  16.946  87.628  0.00  0.00    +0.000 A 
ATOM     36  C   UNL     1      16.986  15.795  87.164  0.00  0.00    +0.000 A 
ATOM     37  C   UNL     1      17.496  18.144  86.930  0.00  0.00    +0.000 A 
ATOM     38  C   UNL     1      16.215  15.828  85.999  0.00  0.00    +0.000 A 
ATOM     39  C   UNL     1      16.731  18.191  85.767  0.00  0.00    +0.000 A 
ATOM     40  C   UNL     1      16.097  17.037  85.308  0.00  0.00    +0.000 A 
BRANCH  38  41
ATOM     41  O   UNL     1      15.558  14.742  85.475  0.00  0.00    +0.000 OA
ATOM     42  C   UNL     1      16.379  13.757  84.902  0.00  0.00    +0.000 C 
ENDBRANCH  38  41
BRANCH  40  43
ATOM     43  O   UNL     1      15.349  17.089  84.165  0.00  0.00    +0.000 OA
ATOM     44  H   UNL     1      14.817  17.908  84.176  0.00  0.00    +0.000 HD
ENDBRANCH  40  43
ENDBRANCH  34  35
ENDBRANCH  32  33
ENDBRANCH  30  32
ENDBRANCH  19  30
TORSDOF 10
ENDMDL
MODEL 8
REMARK VINA RESULT:      -6.4     19.600     22.902
REMARK  Name = 91746246_sitosterol.pdbqt.pdb
REMARK  10 active torsions:
REMARK  status: ('A' for Active; 'I' for Inactive)
REMARK    1  A    between atoms: C_5  and  C_20
REMARK    2  A    between atoms: C_19  and  O_30
REMARK    3  A    between atoms: C_20  and  C_22
REMARK    4  A    between atoms: C_23  and  C_24
REMARK    5  A    between atoms: C_24  and  C_28
REMARK    6  A    between atoms: O_30  and  C_32
REMARK    7  A    between atoms: C_32  and  C_33
REMARK    8  A    between atoms: C_34  and  C_35
REMARK    9  A    between atoms: C_38  and  O_41
REMARK   10  A    between atoms: C_40  and  O_43
REMARK                            x       y       z     vdW  Elec       q    Type
REMARK                         _______ _______ _______ _____ _____    ______ ____
ROOT
ATOM      1  C   UNL     1      26.599   9.312  88.459  0.00  0.00    +0.000 C 
ATOM      2  C   UNL     1      26.980   9.698  89.986  0.00  0.00    +0.000 C 
ATOM      3  C   UNL     1      28.296  10.259  90.354  0.00  0.00    +0.000 C 
ATOM      4  C   UNL     1      29.335  10.781  89.394  0.00  0.00    +0.000 C 
ATOM      5  C   UNL     1      25.179   9.844  88.314  0.00  0.00    +0.000 C 
ATOM      6  C   UNL     1      27.602   9.998  87.645  0.00  0.00    +0.000 C 
ATOM      7  C   UNL     1      30.725  11.310  89.834  0.00  0.00    +0.000 C 
ATOM      8  C   UNL     1      25.789  10.187  90.610  0.00  0.00    +0.000 C 
ATOM      9  C   UNL     1      28.894  10.665  88.049  0.00  0.00    +0.000 C 
ATOM     10  C   UNL     1      24.701  10.301  89.577  0.00  0.00    +0.000 C 
ATOM     11  C   UNL     1      28.635  10.499  91.708  0.00  0.00    +0.000 C 
ATOM     12  C   UNL     1      26.633   7.764  88.361  0.00  0.00    +0.000 C 
ATOM     13  C   UNL     1      30.822  11.687  91.438  0.00  0.00    +0.000 C 
ATOM     14  C   UNL     1      31.033  12.599  89.149  0.00  0.00    +0.000 C 
ATOM     15  C   UNL     1      29.874  11.199  92.178  0.00  0.00    +0.000 C 
ATOM     16  C   UNL     1      31.803  10.223  89.550  0.00  0.00    +0.000 C 
ATOM     17  C   UNL     1      31.279  13.027  91.732  0.00  0.00    +0.000 C 
ATOM     18  C   UNL     1      31.463  13.992  89.640  0.00  0.00    +0.000 C 
ATOM     19  C   UNL     1      31.617  14.246  91.045  0.00  0.00    +0.000 C 
ENDROOT
BRANCH   5  20
ATOM     20  C   UNL     1      24.369   9.665  87.152  0.00  0.00    +0.000 C 
ATOM     21  C   UNL     1      23.879  10.824  86.326  0.00  0.00    +0.000 C 
BRANCH  20  22
ATOM     22  C   UNL     1      23.776   8.405  86.859  0.00  0.00    +0.000 C 
ATOM     23  C   UNL     1      23.135   7.045  86.541  0.00  0.00    +0.000 C 
BRANCH  23  24
ATOM     24  C   UNL     1      22.523   5.788  86.252  0.00  0.00    +0.000 C 
ATOM     25  C   UNL     1      21.214   5.715  85.637  0.00  0.00    +0.000 C 
ATOM     26  C   UNL     1      20.503   4.412  85.347  0.00  0.00    +0.000 C 
ATOM     27  C   UNL     1      20.435   6.947  85.223  0.00  0.00    +0.000 C 
BRANCH  24  28
ATOM     28  C   UNL     1      23.209   4.587  86.573  0.00  0.00    +0.000 C 
ATOM     29  C   UNL     1      23.946   3.272  86.852  0.00  0.00    +0.000 C 
ENDBRANCH  24  28
ENDBRANCH  23  24
ENDBRANCH  20  22
ENDBRANCH   5  20
BRANCH  19  30
ATOM     30  O   UNL     1      32.688  14.998  91.519  0.00  0.00    +0.000 OA
BRANCH  30  32
ATOM     31  O   UNL     1      32.637  17.266  91.008  0.00  0.00    +0.000 OA
ATOM     32  C   UNL     1      32.343  16.305  91.704  0.00  0.00    +0.000 C 
BRANCH  32  33
ATOM     33  C   UNL     1      31.506  16.472  92.866  0.00  0.00    +0.000 C 
ATOM     34  C   UNL     1      30.809  16.629  93.832  0.00  0.00    +0.000 C 
BRANCH  34  35
ATOM     35  C   UNL     1      29.982  16.835  94.976  0.00  0.00    +0.000 A 
ATOM     36  C   UNL     1      29.828  15.814  95.911  0.00  0.00    +0.000 A 
ATOM     37  C   UNL     1      29.325  18.050  95.152  0.00  0.00    +0.000 A 
ATOM     38  C   UNL     1      29.018  15.994  97.036  0.00  0.00    +0.000 A 
ATOM     39  C   UNL     1      28.514  18.243  96.268  0.00  0.00    +0.000 A 
ATOM     40  C   UNL     1      28.364  17.217  97.200  0.00  0.00    +0.000 A 
BRANCH  38  41
ATOM     41  O   UNL     1      28.812  15.040  98.002  0.00  0.00    +0.000 OA
ATOM     42  C   UNL     1      29.915  14.765  98.826  0.00  0.00    +0.000 C 
ENDBRANCH  38  41
BRANCH  40  43
ATOM     43  O   UNL     1      27.564  17.413  98.293  0.00  0.00    +0.000 OA
ATOM     44  H   UNL     1      27.199  16.552  98.571  0.00  0.00    +0.000 HD
ENDBRANCH  40  43
ENDBRANCH  34  35
ENDBRANCH  32  33
ENDBRANCH  30  32
ENDBRANCH  19  30
TORSDOF 10
ENDMDL
MODEL 9
REMARK VINA RESULT:      -6.2     13.176     18.093
REMARK  Name = 91746246_sitosterol.pdbqt.pdb
REMARK  10 active torsions:
REMARK  status: ('A' for Active; 'I' for Inactive)
REMARK    1  A    between atoms: C_5  and  C_20
REMARK    2  A    between atoms: C_19  and  O_30
REMARK    3  A    between atoms: C_20  and  C_22
REMARK    4  A    between atoms: C_23  and  C_24
REMARK    5  A    between atoms: C_24  and  C_28
REMARK    6  A    between atoms: O_30  and  C_32
REMARK    7  A    between atoms: C_32  and  C_33
REMARK    8  A    between atoms: C_34  and  C_35
REMARK    9  A    between atoms: C_38  and  O_41
REMARK   10  A    between atoms: C_40  and  O_43
REMARK                            x       y       z     vdW  Elec       q    Type
REMARK                         _______ _______ _______ _____ _____    ______ ____
ROOT
ATOM      1  C   UNL     1      23.138  12.956 100.167  0.00  0.00    +0.000 C 
ATOM      2  C   UNL     1      21.566  13.299  99.971  0.00  0.00    +0.000 C 
ATOM      3  C   UNL     1      21.030  14.665 100.140  0.00  0.00    +0.000 C 
ATOM      4  C   UNL     1      21.846  15.929 100.250  0.00  0.00    +0.000 C 
ATOM      5  C   UNL     1      23.435  12.027  98.996  0.00  0.00    +0.000 C 
ATOM      6  C   UNL     1      23.808  14.254 100.112  0.00  0.00    +0.000 C 
ATOM      7  C   UNL     1      21.230  17.334 100.481  0.00  0.00    +0.000 C 
ATOM      8  C   UNL     1      21.073  12.458  98.925  0.00  0.00    +0.000 C 
ATOM      9  C   UNL     1      23.237  15.649 100.176  0.00  0.00    +0.000 C 
ATOM     10  C   UNL     1      22.224  11.704  98.314  0.00  0.00    +0.000 C 
ATOM     11  C   UNL     1      19.639  14.920 100.055  0.00  0.00    +0.000 C 
ATOM     12  C   UNL     1      23.273  12.212 101.522  0.00  0.00    +0.000 C 
ATOM     13  C   UNL     1      19.617  17.423 100.146  0.00  0.00    +0.000 C 
ATOM     14  C   UNL     1      21.839  18.329  99.550  0.00  0.00    +0.000 C 
ATOM     15  C   UNL     1      19.007  16.280 100.061  0.00  0.00    +0.000 C 
ATOM     16  C   UNL     1      21.415  17.738 101.973  0.00  0.00    +0.000 C 
ATOM     17  C   UNL     1      19.234  18.457  99.211  0.00  0.00    +0.000 C 
ATOM     18  C   UNL     1      21.263  19.345  98.549  0.00  0.00    +0.000 C 
ATOM     19  C   UNL     1      19.843  19.442  98.356  0.00  0.00    +0.000 C 
ENDROOT
BRANCH   5  20
ATOM     20  C   UNL     1      24.688  11.379  98.783  0.00  0.00    +0.000 C 
ATOM     21  C   UNL     1      24.952   9.968  99.236  0.00  0.00    +0.000 C 
BRANCH  20  22
ATOM     22  C   UNL     1      25.831  12.113  98.358  0.00  0.00    +0.000 C 
ATOM     23  C   UNL     1      27.062  12.908  97.897  0.00  0.00    +0.000 C 
BRANCH  23  24
ATOM     24  C   UNL     1      28.205  13.638  97.453  0.00  0.00    +0.000 C 
ATOM     25  C   UNL     1      28.405  15.021  97.832  0.00  0.00    +0.000 C 
ATOM     26  C   UNL     1      29.576  15.853  97.357  0.00  0.00    +0.000 C 
ATOM     27  C   UNL     1      27.455  15.763  98.749  0.00  0.00    +0.000 C 
BRANCH  24  28
ATOM     28  C   UNL     1      29.164  12.999  96.623  0.00  0.00    +0.000 C 
ATOM     29  C   UNL     1      30.168  12.247  95.741  0.00  0.00    +0.000 C 
ENDBRANCH  24  28
ENDBRANCH  23  24
ENDBRANCH  20  22
ENDBRANCH   5  20
BRANCH  19  30
ATOM     30  O   UNL     1      19.225  20.683  98.233  0.00  0.00    +0.000 OA
BRANCH  30  32
ATOM     31  O   UNL     1      17.734  21.547  96.672  0.00  0.00    +0.000 OA
ATOM     32  C   UNL     1      18.692  20.858  96.989  0.00  0.00    +0.000 C 
BRANCH  32  33
ATOM     33  C   UNL     1      19.431  20.128  95.989  0.00  0.00    +0.000 C 
ATOM     34  C   UNL     1      20.063  19.527  95.162  0.00  0.00    +0.000 C 
BRANCH  34  35
ATOM     35  C   UNL     1      20.829  18.824  94.186  0.00  0.00    +0.000 A 
ATOM     36  C   UNL     1      20.203  17.904  93.347  0.00  0.00    +0.000 A 
ATOM     37  C   UNL     1      22.198  19.052  94.077  0.00  0.00    +0.000 A 
ATOM     38  C   UNL     1      20.937  17.200  92.388  0.00  0.00    +0.000 A 
ATOM     39  C   UNL     1      22.942  18.358  93.125  0.00  0.00    +0.000 A 
ATOM     40  C   UNL     1      22.311  17.438  92.290  0.00  0.00    +0.000 A 
BRANCH  38  41
ATOM     41  O   UNL     1      20.399  16.277  91.526  0.00  0.00    +0.000 OA
ATOM     42  C   UNL     1      19.646  16.806  90.465  0.00  0.00    +0.000 C 
ENDBRANCH  38  41
BRANCH  40  43
ATOM     43  O   UNL     1      23.047  16.758  91.359  0.00  0.00    +0.000 OA
ATOM     44  H   UNL     1      23.055  17.273  90.530  0.00  0.00    +0.000 HD
ENDBRANCH  40  43
ENDBRANCH  34  35
ENDBRANCH  32  33
ENDBRANCH  30  32
ENDBRANCH  19  30
TORSDOF 10
ENDMDL
