MODEL 1
REMARK VINA RESULT:      -4.9      0.000      0.000
REMARK  Name = 92041_2Ethoxy5fluorouracil.pdbqt.pdb
REMARK  2 active torsions:
REMARK  status: ('A' for Active; 'I' for Inactive)
REMARK    1  A    between atoms: C_5  and  O_10
REMARK    2  A    between atoms: O_10  and  C_11
REMARK                            x       y       z     vdW  Elec       q    Type
REMARK                         _______ _______ _______ _____ _____    ______ ____
ROOT
ATOM      1  F   UNL     1      56.703  35.719  75.577  0.00  0.00    +0.000 F 
ATOM      2  O   UNL     1      54.761  34.211  77.022  0.00  0.00    +0.000 OA
ATOM      3  N   UNL     1      55.774  34.892  78.969  0.00  0.00    +0.000 N 
ATOM      4  N   UNL     1      57.561  36.440  79.027  0.00  0.00    +0.000 NA
ATOM      5  C   UNL     1      56.754  35.620  79.639  0.00  0.00    +0.000 C 
ATOM      6  C   UNL     1      55.572  34.932  77.588  0.00  0.00    +0.000 C 
ATOM      7  C   UNL     1      56.451  35.917  76.881  0.00  0.00    +0.000 C 
ATOM      8  C   UNL     1      57.279  36.449  77.718  0.00  0.00    +0.000 C 
ATOM      9  H   UNL     1      55.201  34.241  79.486  0.00  0.00    +0.000 HD
ENDROOT
BRANCH   5  10
ATOM     10  O   UNL     1      56.763  35.376  80.970  0.00  0.00    +0.000 OA
BRANCH  10  11
ATOM     11  C   UNL     1      57.470  34.322  81.366  0.00  0.00    +0.000 C 
ATOM     12  C   UNL     1      58.252  33.072  81.783  0.00  0.00    +0.000 C 
ENDBRANCH  10  11
ENDBRANCH   5  10
TORSDOF 2
ENDMDL
MODEL 2
REMARK VINA RESULT:      -4.8      3.405      4.990
REMARK  Name = 92041_2Ethoxy5fluorouracil.pdbqt.pdb
REMARK  2 active torsions:
REMARK  status: ('A' for Active; 'I' for Inactive)
REMARK    1  A    between atoms: C_5  and  O_10
REMARK    2  A    between atoms: O_10  and  C_11
REMARK                            x       y       z     vdW  Elec       q    Type
REMARK                         _______ _______ _______ _____ _____    ______ ____
ROOT
ATOM      1  F   UNL     1      57.970  34.547  83.849  0.00  0.00    +0.000 F 
ATOM      2  O   UNL     1      56.475  36.086  81.971  0.00  0.00    +0.000 OA
ATOM      3  N   UNL     1      57.695  35.103  80.289  0.00  0.00    +0.000 N 
ATOM      4  N   UNL     1      59.270  33.380  80.670  0.00  0.00    +0.000 NA
ATOM      5  C   UNL     1      58.674  34.210  79.861  0.00  0.00    +0.000 C 
ATOM      6  C   UNL     1      57.273  35.229  81.615  0.00  0.00    +0.000 C 
ATOM      7  C   UNL     1      57.905  34.239  82.543  0.00  0.00    +0.000 C 
ATOM      8  C   UNL     1      58.786  33.538  81.908  0.00  0.00    +0.000 C 
ATOM      9  H   UNL     1      57.293  35.751  79.629  0.00  0.00    +0.000 HD
ENDROOT
BRANCH   5  10
ATOM     10  O   UNL     1      58.923  34.310  78.535  0.00  0.00    +0.000 OA
BRANCH  10  11
ATOM     11  C   UNL     1      58.833  35.529  78.012  0.00  0.00    +0.000 C 
ATOM     12  C   UNL     1      58.766  36.915  77.363  0.00  0.00    +0.000 C 
ENDBRANCH  10  11
ENDBRANCH   5  10
TORSDOF 2
ENDMDL
MODEL 3
REMARK VINA RESULT:      -4.7      2.526      4.494
REMARK  Name = 92041_2Ethoxy5fluorouracil.pdbqt.pdb
REMARK  2 active torsions:
REMARK  status: ('A' for Active; 'I' for Inactive)
REMARK    1  A    between atoms: C_5  and  O_10
REMARK    2  A    between atoms: O_10  and  C_11
REMARK                            x       y       z     vdW  Elec       q    Type
REMARK                         _______ _______ _______ _____ _____    ______ ____
ROOT
ATOM      1  F   UNL     1      58.455  35.494  82.010  0.00  0.00    +0.000 F 
ATOM      2  O   UNL     1      55.900  36.756  81.893  0.00  0.00    +0.000 OA
ATOM      3  N   UNL     1      55.557  35.731  79.865  0.00  0.00    +0.000 N 
ATOM      4  N   UNL     1      57.068  34.170  78.930  0.00  0.00    +0.000 NA
ATOM      5  C   UNL     1      55.980  34.883  78.845  0.00  0.00    +0.000 C 
ATOM      6  C   UNL     1      56.255  35.935  81.057  0.00  0.00    +0.000 C 
ATOM      7  C   UNL     1      57.473  35.075  81.194  0.00  0.00    +0.000 C 
ATOM      8  C   UNL     1      57.656  34.393  80.113  0.00  0.00    +0.000 C 
ATOM      9  H   UNL     1      54.728  36.291  79.731  0.00  0.00    +0.000 HD
ENDROOT
BRANCH   5  10
ATOM     10  O   UNL     1      55.144  34.891  77.781  0.00  0.00    +0.000 OA
BRANCH  10  11
ATOM     11  C   UNL     1      55.628  35.417  76.660  0.00  0.00    +0.000 C 
ATOM     12  C   UNL     1      56.223  36.058  75.403  0.00  0.00    +0.000 C 
ENDBRANCH  10  11
ENDBRANCH   5  10
TORSDOF 2
ENDMDL
MODEL 4
REMARK VINA RESULT:      -4.3      3.141      4.626
REMARK  Name = 92041_2Ethoxy5fluorouracil.pdbqt.pdb
REMARK  2 active torsions:
REMARK  status: ('A' for Active; 'I' for Inactive)
REMARK    1  A    between atoms: C_5  and  O_10
REMARK    2  A    between atoms: O_10  and  C_11
REMARK                            x       y       z     vdW  Elec       q    Type
REMARK                         _______ _______ _______ _____ _____    ______ ____
ROOT
ATOM      1  F   UNL     1      54.907  35.035  78.131  0.00  0.00    +0.000 F 
ATOM      2  O   UNL     1      54.226  36.922  76.105  0.00  0.00    +0.000 OA
ATOM      3  N   UNL     1      56.292  37.886  76.397  0.00  0.00    +0.000 N 
ATOM      4  N   UNL     1      57.945  36.996  77.836  0.00  0.00    +0.000 NA
ATOM      5  C   UNL     1      57.537  37.926  77.020  0.00  0.00    +0.000 C 
ATOM      6  C   UNL     1      55.345  36.879  76.599  0.00  0.00    +0.000 C 
ATOM      7  C   UNL     1      55.825  35.773  77.486  0.00  0.00    +0.000 C 
ATOM      8  C   UNL     1      56.999  36.054  77.947  0.00  0.00    +0.000 C 
ATOM      9  H   UNL     1      56.010  38.653  75.805  0.00  0.00    +0.000 HD
ENDROOT
BRANCH   5  10
ATOM     10  O   UNL     1      58.252  39.024  76.681  0.00  0.00    +0.000 OA
BRANCH  10  11
ATOM     11  C   UNL     1      59.036  38.906  75.614  0.00  0.00    +0.000 C 
ATOM     12  C   UNL     1      59.988  38.785  74.420  0.00  0.00    +0.000 C 
ENDBRANCH  10  11
ENDBRANCH   5  10
TORSDOF 2
ENDMDL
MODEL 5
REMARK VINA RESULT:      -4.3      2.570      4.459
REMARK  Name = 92041_2Ethoxy5fluorouracil.pdbqt.pdb
REMARK  2 active torsions:
REMARK  status: ('A' for Active; 'I' for Inactive)
REMARK    1  A    between atoms: C_5  and  O_10
REMARK    2  A    between atoms: O_10  and  C_11
REMARK                            x       y       z     vdW  Elec       q    Type
REMARK                         _______ _______ _______ _____ _____    ______ ____
ROOT
ATOM      1  F   UNL     1      57.936  33.673  79.665  0.00  0.00    +0.000 F 
ATOM      2  O   UNL     1      56.549  35.310  81.543  0.00  0.00    +0.000 OA
ATOM      3  N   UNL     1      55.685  36.497  79.774  0.00  0.00    +0.000 N 
ATOM      4  N   UNL     1      56.042  35.897  77.515  0.00  0.00    +0.000 NA
ATOM      5  C   UNL     1      55.552  36.712  78.405  0.00  0.00    +0.000 C 
ATOM      6  C   UNL     1      56.375  35.420  80.337  0.00  0.00    +0.000 C 
ATOM      7  C   UNL     1      56.890  34.444  79.325  0.00  0.00    +0.000 C 
ATOM      8  C   UNL     1      56.653  34.877  78.132  0.00  0.00    +0.000 C 
ATOM      9  H   UNL     1      55.319  37.180  80.421  0.00  0.00    +0.000 HD
ENDROOT
BRANCH   5  10
ATOM     10  O   UNL     1      54.867  37.845  78.122  0.00  0.00    +0.000 OA
BRANCH  10  11
ATOM     11  C   UNL     1      55.306  38.549  77.083  0.00  0.00    +0.000 C 
ATOM     12  C   UNL     1      55.794  39.413  75.916  0.00  0.00    +0.000 C 
ENDBRANCH  10  11
ENDBRANCH   5  10
TORSDOF 2
ENDMDL
MODEL 6
REMARK VINA RESULT:      -4.2      2.955      4.332
REMARK  Name = 92041_2Ethoxy5fluorouracil.pdbqt.pdb
REMARK  2 active torsions:
REMARK  status: ('A' for Active; 'I' for Inactive)
REMARK    1  A    between atoms: C_5  and  O_10
REMARK    2  A    between atoms: O_10  and  C_11
REMARK                            x       y       z     vdW  Elec       q    Type
REMARK                         _______ _______ _______ _____ _____    ______ ____
ROOT
ATOM      1  F   UNL     1      57.246  33.306  81.711  0.00  0.00    +0.000 F 
ATOM      2  O   UNL     1      55.703  34.333  79.543  0.00  0.00    +0.000 OA
ATOM      3  N   UNL     1      57.649  35.134  78.621  0.00  0.00    +0.000 N 
ATOM      4  N   UNL     1      59.788  34.708  79.536  0.00  0.00    +0.000 NA
ATOM      5  C   UNL     1      59.032  35.291  78.648  0.00  0.00    +0.000 C 
ATOM      6  C   UNL     1      56.926  34.376  79.544  0.00  0.00    +0.000 C 
ATOM      7  C   UNL     1      57.788  33.651  80.531  0.00  0.00    +0.000 C 
ATOM      8  C   UNL     1      59.026  33.974  80.357  0.00  0.00    +0.000 C 
ATOM      9  H   UNL     1      57.108  35.640  77.936  0.00  0.00    +0.000 HD
ENDROOT
BRANCH   5  10
ATOM     10  O   UNL     1      59.483  36.103  77.664  0.00  0.00    +0.000 OA
BRANCH  10  11
ATOM     11  C   UNL     1      58.746  37.180  77.411  0.00  0.00    +0.000 C 
ATOM     12  C   UNL     1      57.941  38.457  77.146  0.00  0.00    +0.000 C 
ENDBRANCH  10  11
ENDBRANCH   5  10
TORSDOF 2
ENDMDL
MODEL 7
REMARK VINA RESULT:      -3.9     54.097     54.821
REMARK  Name = 92041_2Ethoxy5fluorouracil.pdbqt.pdb
REMARK  2 active torsions:
REMARK  status: ('A' for Active; 'I' for Inactive)
REMARK    1  A    between atoms: C_5  and  O_10
REMARK    2  A    between atoms: O_10  and  C_11
REMARK                            x       y       z     vdW  Elec       q    Type
REMARK                         _______ _______ _______ _____ _____    ______ ____
ROOT
ATOM      1  F   UNL     1      14.079   3.450  97.291  0.00  0.00    +0.000 F 
ATOM      2  O   UNL     1      12.557   4.856  99.251  0.00  0.00    +0.000 OA
ATOM      3  N   UNL     1      13.336   6.823  98.353  0.00  0.00    +0.000 N 
ATOM      4  N   UNL     1      14.673   6.918  96.405  0.00  0.00    +0.000 NA
ATOM      5  C   UNL     1      14.090   7.512  97.407  0.00  0.00    +0.000 C 
ATOM      6  C   UNL     1      13.152   5.438  98.354  0.00  0.00    +0.000 C 
ATOM      7  C   UNL     1      13.765   4.751  97.173  0.00  0.00    +0.000 C 
ATOM      8  C   UNL     1      14.419   5.604  96.456  0.00  0.00    +0.000 C 
ATOM      9  H   UNL     1      12.938   7.327  99.132  0.00  0.00    +0.000 HD
ENDROOT
BRANCH   5  10
ATOM     10  O   UNL     1      14.140   8.842  97.651  0.00  0.00    +0.000 OA
BRANCH  10  11
ATOM     11  C   UNL     1      14.823   9.214  98.730  0.00  0.00    +0.000 C 
ATOM     12  C   UNL     1      15.662   9.617  99.947  0.00  0.00    +0.000 C 
ENDBRANCH  10  11
ENDBRANCH   5  10
TORSDOF 2
ENDMDL
MODEL 8
REMARK VINA RESULT:      -3.7     56.366     57.133
REMARK  Name = 92041_2Ethoxy5fluorouracil.pdbqt.pdb
REMARK  2 active torsions:
REMARK  status: ('A' for Active; 'I' for Inactive)
REMARK    1  A    between atoms: C_5  and  O_10
REMARK    2  A    between atoms: O_10  and  C_11
REMARK                            x       y       z     vdW  Elec       q    Type
REMARK                         _______ _______ _______ _____ _____    ______ ____
ROOT
ATOM      1  F   UNL     1      14.789   7.068  99.348  0.00  0.00    +0.000 F 
ATOM      2  O   UNL     1      14.878   5.295  97.116  0.00  0.00    +0.000 OA
ATOM      3  N   UNL     1      12.945   4.322  97.893  0.00  0.00    +0.000 N 
ATOM      4  N   UNL     1      11.747   5.135  99.762  0.00  0.00    +0.000 NA
ATOM      5  C   UNL     1      11.909   4.251  98.819  0.00  0.00    +0.000 C 
ATOM      6  C   UNL     1      13.930   5.313  97.890  0.00  0.00    +0.000 C 
ATOM      7  C   UNL     1      13.720   6.370  98.930  0.00  0.00    +0.000 C 
ATOM      8  C   UNL     1      12.704   6.067  99.669  0.00  0.00    +0.000 C 
ATOM      9  H   UNL     1      13.048   3.589  97.207  0.00  0.00    +0.000 HD
ENDROOT
BRANCH   5  10
ATOM     10  O   UNL     1      11.110   3.175  98.623  0.00  0.00    +0.000 OA
BRANCH  10  11
ATOM     11  C   UNL     1      11.676   1.986  98.804  0.00  0.00    +0.000 C 
ATOM     12  C   UNL     1      12.375   0.644  99.043  0.00  0.00    +0.000 C 
ENDBRANCH  10  11
ENDBRANCH   5  10
TORSDOF 2
ENDMDL
MODEL 9
REMARK VINA RESULT:      -3.6      7.088      7.587
REMARK  Name = 92041_2Ethoxy5fluorouracil.pdbqt.pdb
REMARK  2 active torsions:
REMARK  status: ('A' for Active; 'I' for Inactive)
REMARK    1  A    between atoms: C_5  and  O_10
REMARK    2  A    between atoms: O_10  and  C_11
REMARK                            x       y       z     vdW  Elec       q    Type
REMARK                         _______ _______ _______ _____ _____    ______ ____
ROOT
ATOM      1  F   UNL     1      58.882  32.688  70.543  0.00  0.00    +0.000 F 
ATOM      2  O   UNL     1      59.960  30.207  71.445  0.00  0.00    +0.000 OA
ATOM      3  N   UNL     1      60.688  31.285  73.340  0.00  0.00    +0.000 N 
ATOM      4  N   UNL     1      60.186  33.546  73.818  0.00  0.00    +0.000 NA
ATOM      5  C   UNL     1      60.794  32.434  74.119  0.00  0.00    +0.000 C 
ATOM      6  C   UNL     1      59.958  31.207  72.151  0.00  0.00    +0.000 C 
ATOM      7  C   UNL     1      59.205  32.459  71.826  0.00  0.00    +0.000 C 
ATOM      8  C   UNL     1      59.482  33.378  72.691  0.00  0.00    +0.000 C 
ATOM      9  H   UNL     1      61.212  30.462  73.598  0.00  0.00    +0.000 HD
ENDROOT
BRANCH   5  10
ATOM     10  O   UNL     1      61.588  32.256  75.201  0.00  0.00    +0.000 OA
BRANCH  10  11
ATOM     11  C   UNL     1      62.649  33.052  75.285  0.00  0.00    +0.000 C 
ATOM     12  C   UNL     1      63.842  34.004  75.424  0.00  0.00    +0.000 C 
ENDBRANCH  10  11
ENDBRANCH   5  10
TORSDOF 2
ENDMDL
