MODEL 1
REMARK VINA RESULT:      -4.9      0.000      0.000
REMARK  Name = 95716_6Bromoisatin.pdbqt.pdb
REMARK  0 active torsions:
REMARK  status: ('A' for Active; 'I' for Inactive)
REMARK                            x       y       z     vdW  Elec       q    Type
REMARK                         _______ _______ _______ _____ _____    ______ ____
ROOT
ATOM      1 BR   UNL     1      12.941  10.535 101.049  0.00  0.00    +0.000 Br
ATOM      2  O   UNL     1      14.893   5.951  96.159  0.00  0.00    +0.000 OA
ATOM      3  O   UNL     1      13.184   3.866  97.501  0.00  0.00    +0.000 OA
ATOM      4  N   UNL     1      12.769   5.658  98.934  0.00  0.00    +0.000 N 
ATOM      5  C   UNL     1      13.187   6.984  98.999  0.00  0.00    +0.000 A 
ATOM      6  C   UNL     1      14.056   7.297  97.957  0.00  0.00    +0.000 A 
ATOM      7  C   UNL     1      14.218   6.087  97.151  0.00  0.00    +0.000 C 
ATOM      8  C   UNL     1      12.829   7.922  99.943  0.00  0.00    +0.000 A 
ATOM      9  C   UNL     1      14.612   8.549  97.797  0.00  0.00    +0.000 A 
ATOM     10  C   UNL     1      13.333   5.014  97.849  0.00  0.00    +0.000 C 
ATOM     11  C   UNL     1      13.383   9.196  99.797  0.00  0.00    +0.000 A 
ATOM     12  C   UNL     1      14.260   9.510  98.745  0.00  0.00    +0.000 A 
ATOM     13  H   UNL     1      12.139   5.199  99.577  0.00  0.00    +0.000 HD
ENDROOT
TORSDOF 0
ENDMDL
MODEL 2
REMARK VINA RESULT:      -4.5     38.948     39.733
REMARK  Name = 95716_6Bromoisatin.pdbqt.pdb
REMARK  0 active torsions:
REMARK  status: ('A' for Active; 'I' for Inactive)
REMARK                            x       y       z     vdW  Elec       q    Type
REMARK                         _______ _______ _______ _____ _____    ______ ____
ROOT
ATOM      1 BR   UNL     1      49.124  25.614  85.866  0.00  0.00    +0.000 Br
ATOM      2  O   UNL     1      42.965  25.948  82.595  0.00  0.00    +0.000 OA
ATOM      3  O   UNL     1      42.184  28.226  84.403  0.00  0.00    +0.000 OA
ATOM      4  N   UNL     1      44.321  27.811  85.240  0.00  0.00    +0.000 N 
ATOM      5  C   UNL     1      45.338  26.909  84.939  0.00  0.00    +0.000 A 
ATOM      6  C   UNL     1      44.978  26.066  83.890  0.00  0.00    +0.000 A 
ATOM      7  C   UNL     1      43.628  26.443  83.475  0.00  0.00    +0.000 C 
ATOM      8  C   UNL     1      46.566  26.807  85.555  0.00  0.00    +0.000 A 
ATOM      9  C   UNL     1      45.814  25.083  83.401  0.00  0.00    +0.000 A 
ATOM     10  C   UNL     1      43.230  27.620  84.412  0.00  0.00    +0.000 C 
ATOM     11  C   UNL     1      47.425  25.817  85.074  0.00  0.00    +0.000 A 
ATOM     12  C   UNL     1      47.061  24.966  84.015  0.00  0.00    +0.000 A 
ATOM     13  H   UNL     1      44.345  28.520  85.959  0.00  0.00    +0.000 HD
ENDROOT
TORSDOF 0
ENDMDL
MODEL 3
REMARK VINA RESULT:      -4.1     59.167     60.275
REMARK  Name = 95716_6Bromoisatin.pdbqt.pdb
REMARK  0 active torsions:
REMARK  status: ('A' for Active; 'I' for Inactive)
REMARK                            x       y       z     vdW  Elec       q    Type
REMARK                         _______ _______ _______ _____ _____    ______ ____
ROOT
ATOM      1 BR   UNL     1      66.049  28.884  70.139  0.00  0.00    +0.000 Br
ATOM      2  O   UNL     1      59.464  30.584  71.719  0.00  0.00    +0.000 OA
ATOM      3  O   UNL     1      60.434  31.696  74.345  0.00  0.00    +0.000 OA
ATOM      4  N   UNL     1      62.476  30.986  73.471  0.00  0.00    +0.000 N 
ATOM      5  C   UNL     1      62.881  30.366  72.292  0.00  0.00    +0.000 A 
ATOM      6  C   UNL     1      61.800  30.119  71.449  0.00  0.00    +0.000 A 
ATOM      7  C   UNL     1      60.602  30.614  72.125  0.00  0.00    +0.000 C 
ATOM      8  C   UNL     1      64.165  30.013  71.939  0.00  0.00    +0.000 A 
ATOM      9  C   UNL     1      61.937  29.513  70.218  0.00  0.00    +0.000 A 
ATOM     10  C   UNL     1      61.109  31.187  73.480  0.00  0.00    +0.000 C 
ATOM     11  C   UNL     1      64.322  29.398  70.695  0.00  0.00    +0.000 A 
ATOM     12  C   UNL     1      63.231  29.149  69.844  0.00  0.00    +0.000 A 
ATOM     13  H   UNL     1      63.076  31.264  74.235  0.00  0.00    +0.000 HD
ENDROOT
TORSDOF 0
ENDMDL
MODEL 4
REMARK VINA RESULT:      -4.1      1.541      2.243
REMARK  Name = 95716_6Bromoisatin.pdbqt.pdb
REMARK  0 active torsions:
REMARK  status: ('A' for Active; 'I' for Inactive)
REMARK                            x       y       z     vdW  Elec       q    Type
REMARK                         _______ _______ _______ _____ _____    ______ ____
ROOT
ATOM      1 BR   UNL     1      13.365   9.291  99.908  0.00  0.00    +0.000 Br
ATOM      2  O   UNL     1      13.590   3.151  96.594  0.00  0.00    +0.000 OA
ATOM      3  O   UNL     1      11.742   2.012  98.682  0.00  0.00    +0.000 OA
ATOM      4  N   UNL     1      11.916   4.191  99.495  0.00  0.00    +0.000 N 
ATOM      5  C   UNL     1      12.589   5.341  99.093  0.00  0.00    +0.000 A 
ATOM      6  C   UNL     1      13.326   5.121  97.932  0.00  0.00    +0.000 A 
ATOM      7  C   UNL     1      13.120   3.726  97.547  0.00  0.00    +0.000 C 
ATOM      8  C   UNL     1      12.574   6.571  99.714  0.00  0.00    +0.000 A 
ATOM      9  C   UNL     1      14.082   6.105  97.330  0.00  0.00    +0.000 A 
ATOM     10  C   UNL     1      12.165   3.143  98.628  0.00  0.00    +0.000 C 
ATOM     11  C   UNL     1      13.334   7.580  99.118  0.00  0.00    +0.000 A 
ATOM     12  C   UNL     1      14.078   7.357  97.947  0.00  0.00    +0.000 A 
ATOM     13  H   UNL     1      11.318   4.101 100.305  0.00  0.00    +0.000 HD
ENDROOT
TORSDOF 0
ENDMDL
MODEL 5
REMARK VINA RESULT:      -4.0      3.756      5.338
REMARK  Name = 95716_6Bromoisatin.pdbqt.pdb
REMARK  0 active torsions:
REMARK  status: ('A' for Active; 'I' for Inactive)
REMARK                            x       y       z     vdW  Elec       q    Type
REMARK                         _______ _______ _______ _____ _____    ______ ____
ROOT
ATOM      1 BR   UNL     1      12.992   0.912  96.290  0.00  0.00    +0.000 Br
ATOM      2  O   UNL     1      12.899   6.953  99.788  0.00  0.00    +0.000 OA
ATOM      3  O   UNL     1      14.420   8.231  97.524  0.00  0.00    +0.000 OA
ATOM      4  N   UNL     1      14.247   6.066  96.674  0.00  0.00    +0.000 N 
ATOM      5  C   UNL     1      13.682   4.875  97.121  0.00  0.00    +0.000 A 
ATOM      6  C   UNL     1      13.085   5.030  98.370  0.00  0.00    +0.000 A 
ATOM      7  C   UNL     1      13.273   6.425  98.768  0.00  0.00    +0.000 C 
ATOM      8  C   UNL     1      13.676   3.662  96.466  0.00  0.00    +0.000 A 
ATOM      9  C   UNL     1      12.455   3.997  99.031  0.00  0.00    +0.000 A 
ATOM     10  C   UNL     1      14.059   7.079  97.595  0.00  0.00    +0.000 C 
ATOM     11  C   UNL     1      13.042   2.604  97.121  0.00  0.00    +0.000 A 
ATOM     12  C   UNL     1      12.440   2.762  98.381  0.00  0.00    +0.000 A 
ATOM     13  H   UNL     1      14.734   6.204  95.799  0.00  0.00    +0.000 HD
ENDROOT
TORSDOF 0
ENDMDL
MODEL 6
REMARK VINA RESULT:      -3.9      1.699      2.019
REMARK  Name = 95716_6Bromoisatin.pdbqt.pdb
REMARK  0 active torsions:
REMARK  status: ('A' for Active; 'I' for Inactive)
REMARK                            x       y       z     vdW  Elec       q    Type
REMARK                         _______ _______ _______ _____ _____    ______ ____
ROOT
ATOM      1 BR   UNL     1      10.532  11.103 101.309  0.00  0.00    +0.000 Br
ATOM      2  O   UNL     1      14.825   6.254  98.701  0.00  0.00    +0.000 OA
ATOM      3  O   UNL     1      12.635   4.212  99.027  0.00  0.00    +0.000 OA
ATOM      4  N   UNL     1      11.513   6.086  99.844  0.00  0.00    +0.000 N 
ATOM      5  C   UNL     1      11.838   7.427 100.026  0.00  0.00    +0.000 A 
ATOM      6  C   UNL     1      13.144   7.695  99.620  0.00  0.00    +0.000 A 
ATOM      7  C   UNL     1      13.713   6.437  99.138  0.00  0.00    +0.000 C 
ATOM      8  C   UNL     1      11.026   8.417 100.536  0.00  0.00    +0.000 A 
ATOM      9  C   UNL     1      13.708   8.951  99.698  0.00  0.00    +0.000 A 
ATOM     10  C   UNL     1      12.578   5.386  99.309  0.00  0.00    +0.000 C 
ATOM     11  C   UNL     1      11.581   9.695 100.622  0.00  0.00    +0.000 A 
ATOM     12  C   UNL     1      12.898   9.965 100.212  0.00  0.00    +0.000 A 
ATOM     13  H   UNL     1      10.627   5.651 100.063  0.00  0.00    +0.000 HD
ENDROOT
TORSDOF 0
ENDMDL
MODEL 7
REMARK VINA RESULT:      -3.8     14.899     15.632
REMARK  Name = 95716_6Bromoisatin.pdbqt.pdb
REMARK  0 active torsions:
REMARK  status: ('A' for Active; 'I' for Inactive)
REMARK                            x       y       z     vdW  Elec       q    Type
REMARK                         _______ _______ _______ _____ _____    ______ ____
ROOT
ATOM      1 BR   UNL     1      20.656   4.473  84.957  0.00  0.00    +0.000 Br
ATOM      2  O   UNL     1      23.185  10.327  87.800  0.00  0.00    +0.000 OA
ATOM      3  O   UNL     1      25.906   9.038  87.912  0.00  0.00    +0.000 OA
ATOM      4  N   UNL     1      24.706   7.280  86.959  0.00  0.00    +0.000 N 
ATOM      5  C   UNL     1      23.381   7.082  86.584  0.00  0.00    +0.000 A 
ATOM      6  C   UNL     1      22.602   8.207  86.846  0.00  0.00    +0.000 A 
ATOM      7  C   UNL     1      23.483   9.214  87.435  0.00  0.00    +0.000 C 
ATOM      8  C   UNL     1      22.838   5.947  86.021  0.00  0.00    +0.000 A 
ATOM      9  C   UNL     1      21.253   8.265  86.564  0.00  0.00    +0.000 A 
ATOM     10  C   UNL     1      24.886   8.543  87.491  0.00  0.00    +0.000 C 
ATOM     11  C   UNL     1      21.473   5.987  85.729  0.00  0.00    +0.000 A 
ATOM     12  C   UNL     1      20.688   7.123  85.994  0.00  0.00    +0.000 A 
ATOM     13  H   UNL     1      25.458   6.611  86.869  0.00  0.00    +0.000 HD
ENDROOT
TORSDOF 0
ENDMDL
MODEL 8
REMARK VINA RESULT:      -3.8     43.662     44.756
REMARK  Name = 95716_6Bromoisatin.pdbqt.pdb
REMARK  0 active torsions:
REMARK  status: ('A' for Active; 'I' for Inactive)
REMARK                            x       y       z     vdW  Elec       q    Type
REMARK                         _______ _______ _______ _____ _____    ______ ____
ROOT
ATOM      1 BR   UNL     1      39.564  36.707  80.726  0.00  0.00    +0.000 Br
ATOM      2  O   UNL     1      46.380  36.419  82.213  0.00  0.00    +0.000 OA
ATOM      3  O   UNL     1      45.683  35.482  84.990  0.00  0.00    +0.000 OA
ATOM      4  N   UNL     1      43.528  35.703  84.126  0.00  0.00    +0.000 N 
ATOM      5  C   UNL     1      42.993  36.091  82.901  0.00  0.00    +0.000 A 
ATOM      6  C   UNL     1      43.993  36.422  81.990  0.00  0.00    +0.000 A 
ATOM      7  C   UNL     1      45.275  36.236  82.668  0.00  0.00    +0.000 C 
ATOM      8  C   UNL     1      41.659  36.163  82.563  0.00  0.00    +0.000 A 
ATOM      9  C   UNL     1      43.723  36.839  80.703  0.00  0.00    +0.000 A 
ATOM     10  C   UNL     1      44.909  35.753  84.101  0.00  0.00    +0.000 C 
ATOM     11  C   UNL     1      41.367  36.583  81.264  0.00  0.00    +0.000 A 
ATOM     12  C   UNL     1      42.377  36.917  80.345  0.00  0.00    +0.000 A 
ATOM     13  H   UNL     1      43.005  35.418  84.943  0.00  0.00    +0.000 HD
ENDROOT
TORSDOF 0
ENDMDL
MODEL 9
REMARK VINA RESULT:      -3.8     11.797     12.280
REMARK  Name = 95716_6Bromoisatin.pdbqt.pdb
REMARK  0 active torsions:
REMARK  status: ('A' for Active; 'I' for Inactive)
REMARK                            x       y       z     vdW  Elec       q    Type
REMARK                         _______ _______ _______ _____ _____    ______ ____
ROOT
ATOM      1 BR   UNL     1       6.183  15.310  96.136  0.00  0.00    +0.000 Br
ATOM      2  O   UNL     1       2.173   9.596  96.232  0.00  0.00    +0.000 OA
ATOM      3  O   UNL     1      -0.179  11.293  95.422  0.00  0.00    +0.000 OA
ATOM      4  N   UNL     1       1.459  12.951  95.499  0.00  0.00    +0.000 N 
ATOM      5  C   UNL     1       2.819  12.978  95.795  0.00  0.00    +0.000 A 
ATOM      6  C   UNL     1       3.297  11.710  96.118  0.00  0.00    +0.000 A 
ATOM      7  C   UNL     1       2.166  10.786  96.027  0.00  0.00    +0.000 C 
ATOM      8  C   UNL     1       3.648  14.079  95.789  0.00  0.00    +0.000 A 
ATOM      9  C   UNL     1       4.613  11.469  96.449  0.00  0.00    +0.000 A 
ATOM     10  C   UNL     1       0.955  11.668  95.608  0.00  0.00    +0.000 C 
ATOM     11  C   UNL     1       4.986  13.854  96.122  0.00  0.00    +0.000 A 
ATOM     12  C   UNL     1       5.466  12.574  96.448  0.00  0.00    +0.000 A 
ATOM     13  H   UNL     1       0.889  13.743  95.238  0.00  0.00    +0.000 HD
ENDROOT
TORSDOF 0
ENDMDL
