MODEL 1
REMARK VINA RESULT:      -6.4      0.000      0.000
REMARK  Name = 969516_Curcumin.pdbqt.pdb
REMARK  8 active torsions:
REMARK  status: ('A' for Active; 'I' for Inactive)
REMARK    1  A    between atoms: C_3  and  C_5
REMARK    2  A    between atoms: C_4  and  C_6
REMARK    3  A    between atoms: C_8  and  O_12
REMARK    4  A    between atoms: C_10  and  O_14
REMARK    5  A    between atoms: C_17  and  C_19
REMARK    6  A    between atoms: C_18  and  C_20
REMARK    7  A    between atoms: C_22  and  O_26
REMARK    8  A    between atoms: C_24  and  O_28
REMARK                            x       y       z     vdW  Elec       q    Type
REMARK                         _______ _______ _______ _____ _____    ______ ____
ROOT
ATOM      1  C   UNL     1      55.991  37.845  75.205  0.00  0.00    +0.000 C 
ATOM      2  O   UNL     1      57.821  39.023  74.488  0.00  0.00    +0.000 OA
ATOM      3  C   UNL     1      56.708  38.592  74.226  0.00  0.00    +0.000 C 
ATOM      4  O   UNL     1      54.071  36.928  76.057  0.00  0.00    +0.000 OA
ATOM      5  C   UNL     1      55.274  37.101  76.186  0.00  0.00    +0.000 C 
ENDROOT
BRANCH   3   7
ATOM      6  C   UNL     1      55.625  39.031  71.856  0.00  0.00    +0.000 C 
ATOM      7  C   UNL     1      56.117  38.832  72.933  0.00  0.00    +0.000 C 
BRANCH   6   8
ATOM      8  C   UNL     1      55.041  39.265  70.576  0.00  0.00    +0.000 A 
ATOM      9  C   UNL     1      53.828  38.662  70.245  0.00  0.00    +0.000 A 
ATOM     10  C   UNL     1      53.241  38.880  68.995  0.00  0.00    +0.000 A 
ATOM     11  C   UNL     1      55.681  40.095  69.659  0.00  0.00    +0.000 A 
ATOM     12  C   UNL     1      53.893  39.716  68.083  0.00  0.00    +0.000 A 
ATOM     13  C   UNL     1      55.106  40.320  68.412  0.00  0.00    +0.000 A 
BRANCH  10  14
ATOM     14  O   UNL     1      52.051  38.322  68.599  0.00  0.00    +0.000 OA
ATOM     15  C   UNL     1      51.868  36.971  68.918  0.00  0.00    +0.000 C 
ENDBRANCH  10  14
BRANCH  12  16
ATOM     16  O   UNL     1      53.397  39.989  66.838  0.00  0.00    +0.000 OA
ATOM     17  H   UNL     1      53.095  40.912  66.784  0.00  0.00    +0.000 HD
ENDBRANCH  12  16
ENDBRANCH   6   8
ENDBRANCH   3   7
BRANCH   5  19
ATOM     18  C   UNL     1      56.551  36.101  78.272  0.00  0.00    +0.000 C 
ATOM     19  C   UNL     1      55.972  36.557  77.323  0.00  0.00    +0.000 C 
BRANCH  18  20
ATOM     20  C   UNL     1      57.234  35.560  79.401  0.00  0.00    +0.000 A 
ATOM     21  C   UNL     1      56.782  35.845  80.688  0.00  0.00    +0.000 A 
ATOM     22  C   UNL     1      57.440  35.321  81.804  0.00  0.00    +0.000 A 
ATOM     23  C   UNL     1      58.350  34.747  79.215  0.00  0.00    +0.000 A 
ATOM     24  C   UNL     1      58.558  34.507  81.604  0.00  0.00    +0.000 A 
ATOM     25  C   UNL     1      59.014  34.219  80.318  0.00  0.00    +0.000 A 
BRANCH  22  26
ATOM     26  O   UNL     1      57.062  35.552  83.105  0.00  0.00    +0.000 OA
ATOM     27  C   UNL     1      57.312  36.846  83.587  0.00  0.00    +0.000 C 
ENDBRANCH  22  26
BRANCH  24  28
ATOM     28  O   UNL     1      59.216  33.985  82.684  0.00  0.00    +0.000 OA
ATOM     29  H   UNL     1      60.148  33.835  82.439  0.00  0.00    +0.000 HD
ENDBRANCH  24  28
ENDBRANCH  18  20
ENDBRANCH   5  19
TORSDOF 8
ENDMDL
MODEL 2
REMARK VINA RESULT:      -6.3      2.968      5.479
REMARK  Name = 969516_Curcumin.pdbqt.pdb
REMARK  8 active torsions:
REMARK  status: ('A' for Active; 'I' for Inactive)
REMARK    1  A    between atoms: C_3  and  C_5
REMARK    2  A    between atoms: C_4  and  C_6
REMARK    3  A    between atoms: C_8  and  O_12
REMARK    4  A    between atoms: C_10  and  O_14
REMARK    5  A    between atoms: C_17  and  C_19
REMARK    6  A    between atoms: C_18  and  C_20
REMARK    7  A    between atoms: C_22  and  O_26
REMARK    8  A    between atoms: C_24  and  O_28
REMARK                            x       y       z     vdW  Elec       q    Type
REMARK                         _______ _______ _______ _____ _____    ______ ____
ROOT
ATOM      1  C   UNL     1      57.397  35.629  78.884  0.00  0.00    +0.000 C 
ATOM      2  O   UNL     1      55.599  36.909  78.264  0.00  0.00    +0.000 OA
ATOM      3  C   UNL     1      56.606  36.312  77.914  0.00  0.00    +0.000 C 
ATOM      4  O   UNL     1      59.000  34.109  79.495  0.00  0.00    +0.000 OA
ATOM      5  C   UNL     1      58.182  34.943  79.855  0.00  0.00    +0.000 C 
ENDROOT
BRANCH   3   7
ATOM      6  C   UNL     1      57.334  36.281  75.373  0.00  0.00    +0.000 C 
ATOM      7  C   UNL     1      57.002  36.296  76.528  0.00  0.00    +0.000 C 
BRANCH   6   8
ATOM      8  C   UNL     1      57.726  36.263  74.002  0.00  0.00    +0.000 A 
ATOM      9  C   UNL     1      57.441  37.354  73.183  0.00  0.00    +0.000 A 
ATOM     10  C   UNL     1      57.819  37.353  71.837  0.00  0.00    +0.000 A 
ATOM     11  C   UNL     1      58.393  35.156  73.484  0.00  0.00    +0.000 A 
ATOM     12  C   UNL     1      58.488  36.236  71.327  0.00  0.00    +0.000 A 
ATOM     13  C   UNL     1      58.774  35.143  72.145  0.00  0.00    +0.000 A 
BRANCH  10  14
ATOM     14  O   UNL     1      57.574  38.390  70.971  0.00  0.00    +0.000 OA
ATOM     15  C   UNL     1      56.508  39.233  71.307  0.00  0.00    +0.000 C 
ENDBRANCH  10  14
BRANCH  12  16
ATOM     16  O   UNL     1      58.897  36.143  70.025  0.00  0.00    +0.000 OA
ATOM     17  H   UNL     1      59.637  36.749  69.854  0.00  0.00    +0.000 HD
ENDBRANCH  12  16
ENDBRANCH   6   8
ENDBRANCH   3   7
BRANCH   5  19
ATOM     18  C   UNL     1      57.861  35.484  82.421  0.00  0.00    +0.000 C 
ATOM     19  C   UNL     1      58.009  35.239  81.254  0.00  0.00    +0.000 C 
BRANCH  18  20
ATOM     20  C   UNL     1      57.681  35.776  83.805  0.00  0.00    +0.000 A 
ATOM     21  C   UNL     1      57.956  34.800  84.762  0.00  0.00    +0.000 A 
ATOM     22  C   UNL     1      57.785  35.072  86.123  0.00  0.00    +0.000 A 
ATOM     23  C   UNL     1      57.231  37.035  84.199  0.00  0.00    +0.000 A 
ATOM     24  C   UNL     1      57.333  36.338  86.503  0.00  0.00    +0.000 A 
ATOM     25  C   UNL     1      57.057  37.317  85.550  0.00  0.00    +0.000 A 
BRANCH  22  26
ATOM     26  O   UNL     1      58.032  34.169  87.129  0.00  0.00    +0.000 OA
ATOM     27  C   UNL     1      59.385  33.969  87.444  0.00  0.00    +0.000 C 
ENDBRANCH  22  26
BRANCH  24  28
ATOM     28  O   UNL     1      57.160  36.623  87.830  0.00  0.00    +0.000 OA
ATOM     29  H   UNL     1      56.310  37.088  87.941  0.00  0.00    +0.000 HD
ENDBRANCH  24  28
ENDBRANCH  18  20
ENDBRANCH   5  19
TORSDOF 8
ENDMDL
MODEL 3
REMARK VINA RESULT:      -6.2      0.594     11.814
REMARK  Name = 969516_Curcumin.pdbqt.pdb
REMARK  8 active torsions:
REMARK  status: ('A' for Active; 'I' for Inactive)
REMARK    1  A    between atoms: C_3  and  C_5
REMARK    2  A    between atoms: C_4  and  C_6
REMARK    3  A    between atoms: C_8  and  O_12
REMARK    4  A    between atoms: C_10  and  O_14
REMARK    5  A    between atoms: C_17  and  C_19
REMARK    6  A    between atoms: C_18  and  C_20
REMARK    7  A    between atoms: C_22  and  O_26
REMARK    8  A    between atoms: C_24  and  O_28
REMARK                            x       y       z     vdW  Elec       q    Type
REMARK                         _______ _______ _______ _____ _____    ______ ____
ROOT
ATOM      1  C   UNL     1      55.984  37.950  75.186  0.00  0.00    +0.000 C 
ATOM      2  O   UNL     1      54.071  36.966  75.980  0.00  0.00    +0.000 OA
ATOM      3  C   UNL     1      55.266  37.167  76.138  0.00  0.00    +0.000 C 
ATOM      4  O   UNL     1      57.794  39.191  74.526  0.00  0.00    +0.000 OA
ATOM      5  C   UNL     1      56.697  38.736  74.236  0.00  0.00    +0.000 C 
ENDROOT
BRANCH   3   7
ATOM      6  C   UNL     1      56.530  36.158  78.227  0.00  0.00    +0.000 C 
ATOM      7  C   UNL     1      55.956  36.616  77.277  0.00  0.00    +0.000 C 
BRANCH   6   8
ATOM      8  C   UNL     1      57.211  35.614  79.357  0.00  0.00    +0.000 A 
ATOM      9  C   UNL     1      56.755  35.895  80.644  0.00  0.00    +0.000 A 
ATOM     10  C   UNL     1      57.411  35.370  81.762  0.00  0.00    +0.000 A 
ATOM     11  C   UNL     1      58.329  34.806  79.173  0.00  0.00    +0.000 A 
ATOM     12  C   UNL     1      58.532  34.559  81.565  0.00  0.00    +0.000 A 
ATOM     13  C   UNL     1      58.989  34.277  80.278  0.00  0.00    +0.000 A 
BRANCH  10  14
ATOM     14  O   UNL     1      57.020  35.601  83.058  0.00  0.00    +0.000 OA
ATOM     15  C   UNL     1      57.258  36.889  83.552  0.00  0.00    +0.000 C 
ENDBRANCH  10  14
BRANCH  12  16
ATOM     16  O   UNL     1      59.237  34.001  82.596  0.00  0.00    +0.000 OA
ATOM     17  H   UNL     1      59.024  33.057  82.685  0.00  0.00    +0.000 HD
ENDBRANCH  12  16
ENDBRANCH   6   8
ENDBRANCH   3   7
BRANCH   5  19
ATOM     18  C   UNL     1      55.640  39.197  71.859  0.00  0.00    +0.000 C 
ATOM     19  C   UNL     1      56.123  38.987  72.939  0.00  0.00    +0.000 C 
BRANCH  18  20
ATOM     20  C   UNL     1      55.064  39.444  70.578  0.00  0.00    +0.000 A 
ATOM     21  C   UNL     1      53.711  39.183  70.363  0.00  0.00    +0.000 A 
ATOM     22  C   UNL     1      53.132  39.420  69.114  0.00  0.00    +0.000 A 
ATOM     23  C   UNL     1      55.852  39.946  69.545  0.00  0.00    +0.000 A 
ATOM     24  C   UNL     1      53.933  39.924  68.087  0.00  0.00    +0.000 A 
ATOM     25  C   UNL     1      55.286  40.187  68.296  0.00  0.00    +0.000 A 
BRANCH  22  26
ATOM     26  O   UNL     1      51.810  39.190  68.818  0.00  0.00    +0.000 OA
ATOM     27  C   UNL     1      50.900  40.115  69.354  0.00  0.00    +0.000 C 
ENDBRANCH  22  26
BRANCH  24  28
ATOM     28  O   UNL     1      53.384  40.163  66.857  0.00  0.00    +0.000 OA
ATOM     29  H   UNL     1      52.414  40.201  66.950  0.00  0.00    +0.000 HD
ENDBRANCH  24  28
ENDBRANCH  18  20
ENDBRANCH   5  19
TORSDOF 8
ENDMDL
MODEL 4
REMARK VINA RESULT:      -6.2      4.173      7.990
REMARK  Name = 969516_Curcumin.pdbqt.pdb
REMARK  8 active torsions:
REMARK  status: ('A' for Active; 'I' for Inactive)
REMARK    1  A    between atoms: C_3  and  C_5
REMARK    2  A    between atoms: C_4  and  C_6
REMARK    3  A    between atoms: C_8  and  O_12
REMARK    4  A    between atoms: C_10  and  O_14
REMARK    5  A    between atoms: C_17  and  C_19
REMARK    6  A    between atoms: C_18  and  C_20
REMARK    7  A    between atoms: C_22  and  O_26
REMARK    8  A    between atoms: C_24  and  O_28
REMARK                            x       y       z     vdW  Elec       q    Type
REMARK                         _______ _______ _______ _____ _____    ______ ____
ROOT
ATOM      1  C   UNL     1      57.815  35.837  82.421  0.00  0.00    +0.000 C 
ATOM      2  O   UNL     1      59.186  34.399  81.278  0.00  0.00    +0.000 OA
ATOM      3  C   UNL     1      58.308  35.246  81.220  0.00  0.00    +0.000 C 
ATOM      4  O   UNL     1      56.685  37.466  83.569  0.00  0.00    +0.000 OA
ATOM      5  C   UNL     1      57.328  36.429  83.622  0.00  0.00    +0.000 C 
ENDROOT
BRANCH   3   7
ATOM      6  C   UNL     1      57.308  35.986  78.889  0.00  0.00    +0.000 C 
ATOM      7  C   UNL     1      57.763  35.649  79.949  0.00  0.00    +0.000 C 
BRANCH   6   8
ATOM      8  C   UNL     1      56.766  36.386  77.631  0.00  0.00    +0.000 A 
ATOM      9  C   UNL     1      57.193  35.761  76.461  0.00  0.00    +0.000 A 
ATOM     10  C   UNL     1      56.673  36.141  75.220  0.00  0.00    +0.000 A 
ATOM     11  C   UNL     1      55.814  37.400  77.574  0.00  0.00    +0.000 A 
ATOM     12  C   UNL     1      55.717  37.160  75.175  0.00  0.00    +0.000 A 
ATOM     13  C   UNL     1      55.289  37.787  76.345  0.00  0.00    +0.000 A 
BRANCH  10  14
ATOM     14  O   UNL     1      57.043  35.571  74.027  0.00  0.00    +0.000 OA
ATOM     15  C   UNL     1      58.411  35.319  73.863  0.00  0.00    +0.000 C 
ENDBRANCH  10  14
BRANCH  12  16
ATOM     16  O   UNL     1      55.152  37.599  74.009  0.00  0.00    +0.000 OA
ATOM     17  H   UNL     1      54.606  38.388  74.169  0.00  0.00    +0.000 HD
ENDBRANCH  12  16
ENDBRANCH   6   8
ENDBRANCH   3   7
BRANCH   5  19
ATOM     18  C   UNL     1      57.814  35.275  85.949  0.00  0.00    +0.000 C 
ATOM     19  C   UNL     1      57.595  35.799  84.890  0.00  0.00    +0.000 C 
BRANCH  18  20
ATOM     20  C   UNL     1      58.073  34.658  87.208  0.00  0.00    +0.000 A 
ATOM     21  C   UNL     1      59.279  33.992  87.420  0.00  0.00    +0.000 A 
ATOM     22  C   UNL     1      59.548  33.383  88.649  0.00  0.00    +0.000 A 
ATOM     23  C   UNL     1      57.121  34.723  88.224  0.00  0.00    +0.000 A 
ATOM     24  C   UNL     1      58.585  33.456  89.658  0.00  0.00    +0.000 A 
ATOM     25  C   UNL     1      57.377  34.120  89.452  0.00  0.00    +0.000 A 
BRANCH  22  26
ATOM     26  O   UNL     1      60.708  32.708  88.941  0.00  0.00    +0.000 OA
ATOM     27  C   UNL     1      60.884  31.489  88.267  0.00  0.00    +0.000 C 
ENDBRANCH  22  26
BRANCH  24  28
ATOM     28  O   UNL     1      58.829  32.866  90.869  0.00  0.00    +0.000 OA
ATOM     29  H   UNL     1      59.529  32.195  90.754  0.00  0.00    +0.000 HD
ENDBRANCH  24  28
ENDBRANCH  18  20
ENDBRANCH   5  19
TORSDOF 8
ENDMDL
MODEL 5
REMARK VINA RESULT:      -6.2      4.153     14.068
REMARK  Name = 969516_Curcumin.pdbqt.pdb
REMARK  8 active torsions:
REMARK  status: ('A' for Active; 'I' for Inactive)
REMARK    1  A    between atoms: C_3  and  C_5
REMARK    2  A    between atoms: C_4  and  C_6
REMARK    3  A    between atoms: C_8  and  O_12
REMARK    4  A    between atoms: C_10  and  O_14
REMARK    5  A    between atoms: C_17  and  C_19
REMARK    6  A    between atoms: C_18  and  C_20
REMARK    7  A    between atoms: C_22  and  O_26
REMARK    8  A    between atoms: C_24  and  O_28
REMARK                            x       y       z     vdW  Elec       q    Type
REMARK                         _______ _______ _______ _____ _____    ______ ____
ROOT
ATOM      1  C   UNL     1      57.855  35.812  82.370  0.00  0.00    +0.000 C 
ATOM      2  O   UNL     1      56.706  37.412  83.542  0.00  0.00    +0.000 OA
ATOM      3  C   UNL     1      57.367  36.385  83.581  0.00  0.00    +0.000 C 
ATOM      4  O   UNL     1      59.238  34.410  81.198  0.00  0.00    +0.000 OA
ATOM      5  C   UNL     1      58.345  35.243  81.159  0.00  0.00    +0.000 C 
ENDROOT
BRANCH   3   7
ATOM      6  C   UNL     1      57.894  35.217  85.892  0.00  0.00    +0.000 C 
ATOM      7  C   UNL     1      57.654  35.748  84.841  0.00  0.00    +0.000 C 
BRANCH   6   8
ATOM      8  C   UNL     1      58.179  34.588  87.140  0.00  0.00    +0.000 A 
ATOM      9  C   UNL     1      59.405  33.953  87.334  0.00  0.00    +0.000 A 
ATOM     10  C   UNL     1      59.701  33.331  88.550  0.00  0.00    +0.000 A 
ATOM     11  C   UNL     1      57.234  34.608  88.162  0.00  0.00    +0.000 A 
ATOM     12  C   UNL     1      58.744  33.358  89.570  0.00  0.00    +0.000 A 
ATOM     13  C   UNL     1      57.517  33.993  89.378  0.00  0.00    +0.000 A 
BRANCH  10  14
ATOM     14  O   UNL     1      60.885  32.688  88.815  0.00  0.00    +0.000 OA
ATOM     15  C   UNL     1      61.109  31.498  88.113  0.00  0.00    +0.000 C 
ENDBRANCH  10  14
BRANCH  12  16
ATOM     16  O   UNL     1      58.943  32.779  90.793  0.00  0.00    +0.000 OA
ATOM     17  H   UNL     1      58.495  31.917  90.840  0.00  0.00    +0.000 HD
ENDBRANCH  12  16
ENDBRANCH   6   8
ENDBRANCH   3   7
BRANCH   5  19
ATOM     18  C   UNL     1      57.317  35.991  78.843  0.00  0.00    +0.000 C 
ATOM     19  C   UNL     1      57.783  35.653  79.897  0.00  0.00    +0.000 C 
BRANCH  18  20
ATOM     20  C   UNL     1      56.768  36.395  77.590  0.00  0.00    +0.000 A 
ATOM     21  C   UNL     1      57.236  35.819  76.410  0.00  0.00    +0.000 A 
ATOM     22  C   UNL     1      56.707  36.203  75.174  0.00  0.00    +0.000 A 
ATOM     23  C   UNL     1      55.766  37.362  77.548  0.00  0.00    +0.000 A 
ATOM     24  C   UNL     1      55.703  37.174  75.146  0.00  0.00    +0.000 A 
ATOM     25  C   UNL     1      55.233  37.753  76.323  0.00  0.00    +0.000 A 
BRANCH  22  26
ATOM     26  O   UNL     1      57.110  35.688  73.966  0.00  0.00    +0.000 OA
ATOM     27  C   UNL     1      58.401  36.053  73.552  0.00  0.00    +0.000 C 
ENDBRANCH  22  26
BRANCH  24  28
ATOM     28  O   UNL     1      55.174  37.564  73.946  0.00  0.00    +0.000 OA
ATOM     29  H   UNL     1      55.902  37.836  73.357  0.00  0.00    +0.000 HD
ENDBRANCH  24  28
ENDBRANCH  18  20
ENDBRANCH   5  19
TORSDOF 8
ENDMDL
MODEL 6
REMARK VINA RESULT:      -6.1      2.282     11.920
REMARK  Name = 969516_Curcumin.pdbqt.pdb
REMARK  8 active torsions:
REMARK  status: ('A' for Active; 'I' for Inactive)
REMARK    1  A    between atoms: C_3  and  C_5
REMARK    2  A    between atoms: C_4  and  C_6
REMARK    3  A    between atoms: C_8  and  O_12
REMARK    4  A    between atoms: C_10  and  O_14
REMARK    5  A    between atoms: C_17  and  C_19
REMARK    6  A    between atoms: C_18  and  C_20
REMARK    7  A    between atoms: C_22  and  O_26
REMARK    8  A    between atoms: C_24  and  O_28
REMARK                            x       y       z     vdW  Elec       q    Type
REMARK                         _______ _______ _______ _____ _____    ______ ____
ROOT
ATOM      1  C   UNL     1      55.970  38.877  75.653  0.00  0.00    +0.000 C 
ATOM      2  O   UNL     1      54.215  39.141  77.104  0.00  0.00    +0.000 OA
ATOM      3  C   UNL     1      55.257  38.558  76.846  0.00  0.00    +0.000 C 
ATOM      4  O   UNL     1      57.848  38.858  74.340  0.00  0.00    +0.000 OA
ATOM      5  C   UNL     1      56.681  39.200  74.462  0.00  0.00    +0.000 C 
ENDROOT
BRANCH   3   7
ATOM      6  C   UNL     1      56.199  36.709  78.482  0.00  0.00    +0.000 C 
ATOM      7  C   UNL     1      55.770  37.549  77.738  0.00  0.00    +0.000 C 
BRANCH   6   8
ATOM      8  C   UNL     1      56.706  35.711  79.367  0.00  0.00    +0.000 A 
ATOM      9  C   UNL     1      56.734  35.950  80.740  0.00  0.00    +0.000 A 
ATOM     10  C   UNL     1      57.228  34.984  81.621  0.00  0.00    +0.000 A 
ATOM     11  C   UNL     1      57.173  34.502  78.858  0.00  0.00    +0.000 A 
ATOM     12  C   UNL     1      57.694  33.773  81.099  0.00  0.00    +0.000 A 
ATOM     13  C   UNL     1      57.666  33.532  79.726  0.00  0.00    +0.000 A 
BRANCH  10  14
ATOM     14  O   UNL     1      57.286  35.147  82.983  0.00  0.00    +0.000 OA
ATOM     15  C   UNL     1      57.678  36.413  83.435  0.00  0.00    +0.000 C 
ENDBRANCH  10  14
BRANCH  12  16
ATOM     16  O   UNL     1      58.194  32.769  81.882  0.00  0.00    +0.000 OA
ATOM     17  H   UNL     1      57.543  32.055  81.982  0.00  0.00    +0.000 HD
ENDBRANCH  12  16
ENDBRANCH   6   8
ENDBRANCH   3   7
BRANCH   5  19
ATOM     18  C   UNL     1      55.469  40.535  72.531  0.00  0.00    +0.000 C 
ATOM     19  C   UNL     1      56.021  39.927  73.408  0.00  0.00    +0.000 C 
BRANCH  18  20
ATOM     20  C   UNL     1      54.809  41.258  71.494  0.00  0.00    +0.000 A 
ATOM     21  C   UNL     1      55.559  41.936  70.535  0.00  0.00    +0.000 A 
ATOM     22  C   UNL     1      54.927  42.649  69.511  0.00  0.00    +0.000 A 
ATOM     23  C   UNL     1      53.417  41.285  71.440  0.00  0.00    +0.000 A 
ATOM     24  C   UNL     1      53.531  42.666  69.470  0.00  0.00    +0.000 A 
ATOM     25  C   UNL     1      52.776  41.990  70.426  0.00  0.00    +0.000 A 
BRANCH  22  26
ATOM     26  O   UNL     1      55.590  43.343  68.528  0.00  0.00    +0.000 OA
ATOM     27  C   UNL     1      56.631  42.648  67.893  0.00  0.00    +0.000 C 
ENDBRANCH  22  26
BRANCH  24  28
ATOM     28  O   UNL     1      52.894  43.358  68.476  0.00  0.00    +0.000 OA
ATOM     29  H   UNL     1      53.530  43.526  67.755  0.00  0.00    +0.000 HD
ENDBRANCH  24  28
ENDBRANCH  18  20
ENDBRANCH   5  19
TORSDOF 8
ENDMDL
MODEL 7
REMARK VINA RESULT:      -5.8      2.096     12.099
REMARK  Name = 969516_Curcumin.pdbqt.pdb
REMARK  8 active torsions:
REMARK  status: ('A' for Active; 'I' for Inactive)
REMARK    1  A    between atoms: C_3  and  C_5
REMARK    2  A    between atoms: C_4  and  C_6
REMARK    3  A    between atoms: C_8  and  O_12
REMARK    4  A    between atoms: C_10  and  O_14
REMARK    5  A    between atoms: C_17  and  C_19
REMARK    6  A    between atoms: C_18  and  C_20
REMARK    7  A    between atoms: C_22  and  O_26
REMARK    8  A    between atoms: C_24  and  O_28
REMARK                            x       y       z     vdW  Elec       q    Type
REMARK                         _______ _______ _______ _____ _____    ______ ____
ROOT
ATOM      1  C   UNL     1      57.250  39.202  74.382  0.00  0.00    +0.000 C 
ATOM      2  O   UNL     1      55.324  39.507  75.586  0.00  0.00    +0.000 OA
ATOM      3  C   UNL     1      56.435  39.002  75.535  0.00  0.00    +0.000 C 
ATOM      4  O   UNL     1      59.263  39.172  73.286  0.00  0.00    +0.000 OA
ATOM      5  C   UNL     1      58.064  39.407  73.231  0.00  0.00    +0.000 C 
ENDROOT
BRANCH   3   7
ATOM      6  C   UNL     1      57.335  37.537  77.541  0.00  0.00    +0.000 C 
ATOM      7  C   UNL     1      56.927  38.204  76.629  0.00  0.00    +0.000 C 
BRANCH   6   8
ATOM      8  C   UNL     1      57.821  36.744  78.623  0.00  0.00    +0.000 A 
ATOM      9  C   UNL     1      57.071  36.631  79.793  0.00  0.00    +0.000 A 
ATOM     10  C   UNL     1      57.532  35.858  80.863  0.00  0.00    +0.000 A 
ATOM     11  C   UNL     1      59.043  36.087  78.511  0.00  0.00    +0.000 A 
ATOM     12  C   UNL     1      58.760  35.202  80.738  0.00  0.00    +0.000 A 
ATOM     13  C   UNL     1      59.512  35.314  79.569  0.00  0.00    +0.000 A 
BRANCH  10  14
ATOM     14  O   UNL     1      56.849  35.699  82.043  0.00  0.00    +0.000 OA
ATOM     15  C   UNL     1      56.983  36.734  82.976  0.00  0.00    +0.000 C 
ENDBRANCH  10  14
BRANCH  12  16
ATOM     16  O   UNL     1      59.293  34.424  81.730  0.00  0.00    +0.000 OA
ATOM     17  H   UNL     1      59.814  33.696  81.352  0.00  0.00    +0.000 HD
ENDBRANCH  12  16
ENDBRANCH   6   8
ENDBRANCH   3   7
BRANCH   5  19
ATOM     18  C   UNL     1      56.977  40.286  70.989  0.00  0.00    +0.000 C 
ATOM     19  C   UNL     1      57.470  39.887  72.010  0.00  0.00    +0.000 C 
BRANCH  18  20
ATOM     20  C   UNL     1      56.397  40.762  69.777  0.00  0.00    +0.000 A 
ATOM     21  C   UNL     1      57.206  41.342  68.800  0.00  0.00    +0.000 A 
ATOM     22  C   UNL     1      56.651  41.812  67.607  0.00  0.00    +0.000 A 
ATOM     23  C   UNL     1      55.024  40.646  69.569  0.00  0.00    +0.000 A 
ATOM     24  C   UNL     1      55.274  41.690  67.412  0.00  0.00    +0.000 A 
ATOM     25  C   UNL     1      54.460  41.111  68.385  0.00  0.00    +0.000 A 
BRANCH  22  26
ATOM     26  O   UNL     1      57.375  42.396  66.595  0.00  0.00    +0.000 OA
ATOM     27  C   UNL     1      58.367  41.589  66.017  0.00  0.00    +0.000 C 
ENDBRANCH  22  26
BRANCH  24  28
ATOM     28  O   UNL     1      54.713  42.145  66.250  0.00  0.00    +0.000 OA
ATOM     29  H   UNL     1      55.409  42.207  65.570  0.00  0.00    +0.000 HD
ENDBRANCH  24  28
ENDBRANCH  18  20
ENDBRANCH   5  19
TORSDOF 8
ENDMDL
MODEL 8
REMARK VINA RESULT:      -5.6      4.561      8.767
REMARK  Name = 969516_Curcumin.pdbqt.pdb
REMARK  8 active torsions:
REMARK  status: ('A' for Active; 'I' for Inactive)
REMARK    1  A    between atoms: C_3  and  C_5
REMARK    2  A    between atoms: C_4  and  C_6
REMARK    3  A    between atoms: C_8  and  O_12
REMARK    4  A    between atoms: C_10  and  O_14
REMARK    5  A    between atoms: C_17  and  C_19
REMARK    6  A    between atoms: C_18  and  C_20
REMARK    7  A    between atoms: C_22  and  O_26
REMARK    8  A    between atoms: C_24  and  O_28
REMARK                            x       y       z     vdW  Elec       q    Type
REMARK                         _______ _______ _______ _____ _____    ______ ____
ROOT
ATOM      1  C   UNL     1      57.234  36.552  83.324  0.00  0.00    +0.000 C 
ATOM      2  O   UNL     1      58.230  34.632  82.566  0.00  0.00    +0.000 OA
ATOM      3  C   UNL     1      57.592  35.637  82.291  0.00  0.00    +0.000 C 
ATOM      4  O   UNL     1      56.518  38.598  84.069  0.00  0.00    +0.000 OA
ATOM      5  C   UNL     1      56.882  37.467  84.358  0.00  0.00    +0.000 C 
ENDROOT
BRANCH   3   7
ATOM      6  C   UNL     1      56.865  36.122  79.797  0.00  0.00    +0.000 C 
ATOM      7  C   UNL     1      57.195  35.901  80.931  0.00  0.00    +0.000 C 
BRANCH   6   8
ATOM      8  C   UNL     1      56.473  36.381  78.450  0.00  0.00    +0.000 A 
ATOM      9  C   UNL     1      56.675  37.646  77.900  0.00  0.00    +0.000 A 
ATOM     10  C   UNL     1      56.297  37.918  76.582  0.00  0.00    +0.000 A 
ATOM     11  C   UNL     1      55.890  35.373  77.688  0.00  0.00    +0.000 A 
ATOM     12  C   UNL     1      55.713  36.897  75.826  0.00  0.00    +0.000 A 
ATOM     13  C   UNL     1      55.511  35.632  76.375  0.00  0.00    +0.000 A 
BRANCH  10  14
ATOM     14  O   UNL     1      56.464  39.137  75.973  0.00  0.00    +0.000 OA
ATOM     15  C   UNL     1      55.700  40.192  76.485  0.00  0.00    +0.000 C 
ENDBRANCH  10  14
BRANCH  12  16
ATOM     16  O   UNL     1      55.311  37.068  74.529  0.00  0.00    +0.000 OA
ATOM     17  H   UNL     1      54.647  36.402  74.286  0.00  0.00    +0.000 HD
ENDBRANCH  12  16
ENDBRANCH   6   8
ENDBRANCH   3   7
BRANCH   5  19
ATOM     18  C   UNL     1      57.017  36.711  86.886  0.00  0.00    +0.000 C 
ATOM     19  C   UNL     1      56.954  37.053  85.736  0.00  0.00    +0.000 C 
BRANCH  18  20
ATOM     20  C   UNL     1      57.097  36.304  88.250  0.00  0.00    +0.000 A 
ATOM     21  C   UNL     1      56.974  34.955  88.580  0.00  0.00    +0.000 A 
ATOM     22  C   UNL     1      57.051  34.540  89.913  0.00  0.00    +0.000 A 
ATOM     23  C   UNL     1      57.298  37.253  89.250  0.00  0.00    +0.000 A 
ATOM     24  C   UNL     1      57.253  35.503  90.905  0.00  0.00    +0.000 A 
ATOM     25  C   UNL     1      57.376  36.853  90.580  0.00  0.00    +0.000 A 
BRANCH  22  26
ATOM     26  O   UNL     1      56.940  33.234  90.325  0.00  0.00    +0.000 OA
ATOM     27  C   UNL     1      56.036  32.445  89.596  0.00  0.00    +0.000 C 
ENDBRANCH  22  26
BRANCH  24  28
ATOM     28  O   UNL     1      57.331  35.117  92.215  0.00  0.00    +0.000 OA
ATOM     29  H   UNL     1      57.426  34.146  92.250  0.00  0.00    +0.000 HD
ENDBRANCH  24  28
ENDBRANCH  18  20
ENDBRANCH   5  19
TORSDOF 8
ENDMDL
MODEL 9
REMARK VINA RESULT:      -5.5     22.201     24.219
REMARK  Name = 969516_Curcumin.pdbqt.pdb
REMARK  8 active torsions:
REMARK  status: ('A' for Active; 'I' for Inactive)
REMARK    1  A    between atoms: C_3  and  C_5
REMARK    2  A    between atoms: C_4  and  C_6
REMARK    3  A    between atoms: C_8  and  O_12
REMARK    4  A    between atoms: C_10  and  O_14
REMARK    5  A    between atoms: C_17  and  C_19
REMARK    6  A    between atoms: C_18  and  C_20
REMARK    7  A    between atoms: C_22  and  O_26
REMARK    8  A    between atoms: C_24  and  O_28
REMARK                            x       y       z     vdW  Elec       q    Type
REMARK                         _______ _______ _______ _____ _____    ______ ____
ROOT
ATOM      1  C   UNL     1      38.662  23.752  83.546  0.00  0.00    +0.000 C 
ATOM      2  O   UNL     1      37.725  23.672  85.636  0.00  0.00    +0.000 OA
ATOM      3  C   UNL     1      37.567  23.534  84.433  0.00  0.00    +0.000 C 
ATOM      4  O   UNL     1      39.705  23.550  81.515  0.00  0.00    +0.000 OA
ATOM      5  C   UNL     1      39.759  23.967  82.663  0.00  0.00    +0.000 C 
ENDROOT
BRANCH   3   7
ATOM      6  C   UNL     1      35.210  22.841  83.459  0.00  0.00    +0.000 C 
ATOM      7  C   UNL     1      36.281  23.156  83.902  0.00  0.00    +0.000 C 
BRANCH   6   8
ATOM      8  C   UNL     1      33.938  22.466  82.932  0.00  0.00    +0.000 A 
ATOM      9  C   UNL     1      33.431  23.120  81.810  0.00  0.00    +0.000 A 
ATOM     10  C   UNL     1      32.187  22.764  81.280  0.00  0.00    +0.000 A 
ATOM     11  C   UNL     1      33.206  21.449  83.538  0.00  0.00    +0.000 A 
ATOM     12  C   UNL     1      31.461  21.741  81.897  0.00  0.00    +0.000 A 
ATOM     13  C   UNL     1      31.967  21.086  83.020  0.00  0.00    +0.000 A 
BRANCH  10  14
ATOM     14  O   UNL     1      31.624  23.361  80.179  0.00  0.00    +0.000 OA
ATOM     15  C   UNL     1      31.302  24.717  80.311  0.00  0.00    +0.000 C 
ENDBRANCH  10  14
BRANCH  12  16
ATOM     16  O   UNL     1      30.236  21.325  81.452  0.00  0.00    +0.000 OA
ATOM     17  H   UNL     1      30.321  20.508  80.932  0.00  0.00    +0.000 HD
ENDBRANCH  12  16
ENDBRANCH   6   8
ENDBRANCH   3   7
BRANCH   5  19
ATOM     18  C   UNL     1      41.896  25.269  83.512  0.00  0.00    +0.000 C 
ATOM     19  C   UNL     1      40.924  24.675  83.127  0.00  0.00    +0.000 C 
BRANCH  18  20
ATOM     20  C   UNL     1      43.051  25.973  83.963  0.00  0.00    +0.000 A 
ATOM     21  C   UNL     1      44.316  25.413  83.793  0.00  0.00    +0.000 A 
ATOM     22  C   UNL     1      45.457  26.091  84.230  0.00  0.00    +0.000 A 
ATOM     23  C   UNL     1      42.913  27.219  84.571  0.00  0.00    +0.000 A 
ATOM     24  C   UNL     1      45.305  27.340  84.838  0.00  0.00    +0.000 A 
ATOM     25  C   UNL     1      44.042  27.904  85.010  0.00  0.00    +0.000 A 
BRANCH  22  26
ATOM     26  O   UNL     1      46.739  25.612  84.102  0.00  0.00    +0.000 OA
ATOM     27  C   UNL     1      47.141  25.301  82.794  0.00  0.00    +0.000 C 
ENDBRANCH  22  26
BRANCH  24  28
ATOM     28  O   UNL     1      46.410  28.019  85.272  0.00  0.00    +0.000 OA
ATOM     29  H   UNL     1      47.146  27.386  85.374  0.00  0.00    +0.000 HD
ENDBRANCH  24  28
ENDBRANCH  18  20
ENDBRANCH   5  19
TORSDOF 8
ENDMDL
