MODEL 1
REMARK VINA RESULT:      -3.6      0.000      0.000
REMARK  Name = 971_OxalicAcid.pdbqt.pdb
REMARK  3 active torsions:
REMARK  status: ('A' for Active; 'I' for Inactive)
REMARK    1  A    between atoms: C_2  and  O_3
REMARK    2  A    between atoms: C_2  and  C_6
REMARK    3  A    between atoms: C_6  and  O_7
REMARK                            x       y       z     vdW  Elec       q    Type
REMARK                         _______ _______ _______ _____ _____    ______ ____
ROOT
ATOM      1  O   UNL     1      55.976  36.589  74.750  0.00  0.00    +0.000 OA
ATOM      2  C   UNL     1      55.329  36.389  75.760  0.00  0.00    +0.000 C 
ENDROOT
BRANCH   2   3
ATOM      3  O   UNL     1      54.176  37.028  76.000  0.00  0.00    +0.000 OA
ATOM      4  H   UNL     1      54.068  36.981  76.972  0.00  0.00    +0.000 HD
ENDBRANCH   2   3
BRANCH   2   6
ATOM      5  O   UNL     1      56.658  35.529  77.658  0.00  0.00    +0.000 OA
ATOM      6  C   UNL     1      55.717  35.397  76.899  0.00  0.00    +0.000 C 
BRANCH   6   7
ATOM      7  O   UNL     1      54.891  34.345  76.972  0.00  0.00    +0.000 OA
ATOM      8  H   UNL     1      55.192  33.850  77.760  0.00  0.00    +0.000 HD
ENDBRANCH   6   7
ENDBRANCH   2   6
TORSDOF 3
ENDMDL
MODEL 2
REMARK VINA RESULT:      -3.5      0.107      2.770
REMARK  Name = 971_OxalicAcid.pdbqt.pdb
REMARK  3 active torsions:
REMARK  status: ('A' for Active; 'I' for Inactive)
REMARK    1  A    between atoms: C_2  and  O_3
REMARK    2  A    between atoms: C_2  and  C_6
REMARK    3  A    between atoms: C_6  and  O_7
REMARK                            x       y       z     vdW  Elec       q    Type
REMARK                         _______ _______ _______ _____ _____    ______ ____
ROOT
ATOM      1  O   UNL     1      54.922  34.335  76.981  0.00  0.00    +0.000 OA
ATOM      2  C   UNL     1      55.586  35.338  76.808  0.00  0.00    +0.000 C 
ENDROOT
BRANCH   2   3
ATOM      3  O   UNL     1      56.667  35.610  77.552  0.00  0.00    +0.000 OA
ATOM      4  H   UNL     1      56.834  34.786  78.051  0.00  0.00    +0.000 HD
ENDBRANCH   2   3
BRANCH   2   6
ATOM      5  O   UNL     1      55.991  36.657  74.757  0.00  0.00    +0.000 OA
ATOM      6  C   UNL     1      55.303  36.434  75.734  0.00  0.00    +0.000 C 
BRANCH   6   7
ATOM      7  O   UNL     1      54.191  37.137  75.994  0.00  0.00    +0.000 OA
ATOM      8  H   UNL     1      53.564  36.479  76.356  0.00  0.00    +0.000 HD
ENDBRANCH   6   7
ENDBRANCH   2   6
TORSDOF 3
ENDMDL
MODEL 3
REMARK VINA RESULT:      -3.5      5.312      5.999
REMARK  Name = 971_OxalicAcid.pdbqt.pdb
REMARK  3 active torsions:
REMARK  status: ('A' for Active; 'I' for Inactive)
REMARK    1  A    between atoms: C_2  and  O_3
REMARK    2  A    between atoms: C_2  and  C_6
REMARK    3  A    between atoms: C_6  and  O_7
REMARK                            x       y       z     vdW  Elec       q    Type
REMARK                         _______ _______ _______ _____ _____    ______ ____
ROOT
ATOM      1  O   UNL     1      57.626  33.032  79.738  0.00  0.00    +0.000 OA
ATOM      2  C   UNL     1      58.367  33.771  80.357  0.00  0.00    +0.000 C 
ENDROOT
BRANCH   2   3
ATOM      3  O   UNL     1      59.692  33.576  80.394  0.00  0.00    +0.000 OA
ATOM      4  H   UNL     1      59.828  32.951  81.135  0.00  0.00    +0.000 HD
ENDBRANCH   2   3
BRANCH   2   6
ATOM      5  O   UNL     1      56.825  35.170  81.689  0.00  0.00    +0.000 OA
ATOM      6  C   UNL     1      57.918  35.018  81.180  0.00  0.00    +0.000 C 
BRANCH   6   7
ATOM      7  O   UNL     1      58.881  35.945  81.279  0.00  0.00    +0.000 OA
ATOM      8  H   UNL     1      58.570  36.546  81.985  0.00  0.00    +0.000 HD
ENDBRANCH   6   7
ENDBRANCH   2   6
TORSDOF 3
ENDMDL
MODEL 4
REMARK VINA RESULT:      -3.4      5.672      6.186
REMARK  Name = 971_OxalicAcid.pdbqt.pdb
REMARK  3 active torsions:
REMARK  status: ('A' for Active; 'I' for Inactive)
REMARK    1  A    between atoms: C_2  and  O_3
REMARK    2  A    between atoms: C_2  and  C_6
REMARK    3  A    between atoms: C_6  and  O_7
REMARK                            x       y       z     vdW  Elec       q    Type
REMARK                         _______ _______ _______ _____ _____    ______ ____
ROOT
ATOM      1  O   UNL     1      56.743  35.007  81.473  0.00  0.00    +0.000 OA
ATOM      2  C   UNL     1      57.952  34.970  81.351  0.00  0.00    +0.000 C 
ENDROOT
BRANCH   2   3
ATOM      3  O   UNL     1      58.720  36.047  81.567  0.00  0.00    +0.000 OA
ATOM      4  H   UNL     1      59.241  35.820  82.363  0.00  0.00    +0.000 HD
ENDBRANCH   2   3
BRANCH   2   6
ATOM      5  O   UNL     1      58.529  32.568  81.257  0.00  0.00    +0.000 OA
ATOM      6  C   UNL     1      58.780  33.714  80.938  0.00  0.00    +0.000 C 
BRANCH   6   7
ATOM      7  O   UNL     1      59.835  34.020  80.170  0.00  0.00    +0.000 OA
ATOM      8  H   UNL     1      59.485  34.009  79.257  0.00  0.00    +0.000 HD
ENDBRANCH   6   7
ENDBRANCH   2   6
TORSDOF 3
ENDMDL
MODEL 5
REMARK VINA RESULT:      -3.3      5.975      7.287
REMARK  Name = 971_OxalicAcid.pdbqt.pdb
REMARK  3 active torsions:
REMARK  status: ('A' for Active; 'I' for Inactive)
REMARK    1  A    between atoms: C_2  and  O_3
REMARK    2  A    between atoms: C_2  and  C_6
REMARK    3  A    between atoms: C_6  and  O_7
REMARK                            x       y       z     vdW  Elec       q    Type
REMARK                         _______ _______ _______ _____ _____    ______ ____
ROOT
ATOM      1  O   UNL     1      56.801  35.092  81.640  0.00  0.00    +0.000 OA
ATOM      2  C   UNL     1      57.682  35.723  82.191  0.00  0.00    +0.000 C 
ENDROOT
BRANCH   2   3
ATOM      3  O   UNL     1      58.791  36.104  81.543  0.00  0.00    +0.000 OA
ATOM      4  H   UNL     1      59.520  35.665  82.026  0.00  0.00    +0.000 HD
ENDBRANCH   2   3
BRANCH   2   6
ATOM      5  O   UNL     1      56.913  35.761  84.539  0.00  0.00    +0.000 OA
ATOM      6  C   UNL     1      57.670  36.175  83.684  0.00  0.00    +0.000 C 
BRANCH   6   7
ATOM      7  O   UNL     1      58.605  37.098  83.951  0.00  0.00    +0.000 OA
ATOM      8  H   UNL     1      58.749  37.555  83.098  0.00  0.00    +0.000 HD
ENDBRANCH   6   7
ENDBRANCH   2   6
TORSDOF 3
ENDMDL
MODEL 6
REMARK VINA RESULT:      -3.2      2.006      2.788
REMARK  Name = 971_OxalicAcid.pdbqt.pdb
REMARK  3 active torsions:
REMARK  status: ('A' for Active; 'I' for Inactive)
REMARK    1  A    between atoms: C_2  and  O_3
REMARK    2  A    between atoms: C_2  and  C_6
REMARK    3  A    between atoms: C_6  and  O_7
REMARK                            x       y       z     vdW  Elec       q    Type
REMARK                         _______ _______ _______ _____ _____    ______ ____
ROOT
ATOM      1  O   UNL     1      57.074  36.621  78.751  0.00  0.00    +0.000 OA
ATOM      2  C   UNL     1      56.686  35.891  77.860  0.00  0.00    +0.000 C 
ENDROOT
BRANCH   2   3
ATOM      3  O   UNL     1      57.306  35.831  76.673  0.00  0.00    +0.000 OA
ATOM      4  H   UNL     1      57.418  36.766  76.408  0.00  0.00    +0.000 HD
ENDBRANCH   2   3
BRANCH   2   6
ATOM      5  O   UNL     1      54.950  34.354  77.004  0.00  0.00    +0.000 OA
ATOM      6  C   UNL     1      55.453  34.939  77.943  0.00  0.00    +0.000 C 
BRANCH   6   7
ATOM      7  O   UNL     1      54.977  34.818  79.190  0.00  0.00    +0.000 OA
ATOM      8  H   UNL     1      54.657  35.714  79.419  0.00  0.00    +0.000 HD
ENDBRANCH   6   7
ENDBRANCH   2   6
TORSDOF 3
ENDMDL
MODEL 7
REMARK VINA RESULT:      -3.2      1.145      2.219
REMARK  Name = 971_OxalicAcid.pdbqt.pdb
REMARK  3 active torsions:
REMARK  status: ('A' for Active; 'I' for Inactive)
REMARK    1  A    between atoms: C_2  and  O_3
REMARK    2  A    between atoms: C_2  and  C_6
REMARK    3  A    between atoms: C_6  and  O_7
REMARK                            x       y       z     vdW  Elec       q    Type
REMARK                         _______ _______ _______ _____ _____    ______ ____
ROOT
ATOM      1  O   UNL     1      57.654  36.247  76.398  0.00  0.00    +0.000 OA
ATOM      2  C   UNL     1      56.701  35.919  75.720  0.00  0.00    +0.000 C 
ENDROOT
BRANCH   2   3
ATOM      3  O   UNL     1      56.834  35.563  74.434  0.00  0.00    +0.000 OA
ATOM      4  H   UNL     1      57.089  36.389  73.976  0.00  0.00    +0.000 HD
ENDBRANCH   2   3
BRANCH   2   6
ATOM      5  O   UNL     1      54.404  36.753  76.093  0.00  0.00    +0.000 OA
ATOM      6  C   UNL     1      55.220  35.860  76.209  0.00  0.00    +0.000 C 
BRANCH   6   7
ATOM      7  O   UNL     1      54.915  34.693  76.793  0.00  0.00    +0.000 OA
ATOM      8  H   UNL     1      54.027  34.836  77.176  0.00  0.00    +0.000 HD
ENDBRANCH   6   7
ENDBRANCH   2   6
TORSDOF 3
ENDMDL
MODEL 8
REMARK VINA RESULT:      -3.1      3.638      4.866
REMARK  Name = 971_OxalicAcid.pdbqt.pdb
REMARK  3 active torsions:
REMARK  status: ('A' for Active; 'I' for Inactive)
REMARK    1  A    between atoms: C_2  and  O_3
REMARK    2  A    between atoms: C_2  and  C_6
REMARK    3  A    between atoms: C_6  and  O_7
REMARK                            x       y       z     vdW  Elec       q    Type
REMARK                         _______ _______ _______ _____ _____    ______ ____
ROOT
ATOM      1  O   UNL     1      57.325  35.022  82.050  0.00  0.00    +0.000 OA
ATOM      2  C   UNL     1      56.515  35.399  81.226  0.00  0.00    +0.000 C 
ENDROOT
BRANCH   2   3
ATOM      3  O   UNL     1      55.688  36.427  81.464  0.00  0.00    +0.000 OA
ATOM      4  H   UNL     1      55.279  36.618  80.596  0.00  0.00    +0.000 HD
ENDBRANCH   2   3
BRANCH   2   6
ATOM      5  O   UNL     1      57.134  34.122  79.203  0.00  0.00    +0.000 OA
ATOM      6  C   UNL     1      56.309  34.776  79.811  0.00  0.00    +0.000 C 
BRANCH   6   7
ATOM      7  O   UNL     1      55.096  35.035  79.303  0.00  0.00    +0.000 OA
ATOM      8  H   UNL     1      55.151  34.738  78.373  0.00  0.00    +0.000 HD
ENDBRANCH   6   7
ENDBRANCH   2   6
TORSDOF 3
ENDMDL
MODEL 9
REMARK VINA RESULT:      -3.1      5.117      5.788
REMARK  Name = 971_OxalicAcid.pdbqt.pdb
REMARK  3 active torsions:
REMARK  status: ('A' for Active; 'I' for Inactive)
REMARK    1  A    between atoms: C_2  and  O_3
REMARK    2  A    between atoms: C_2  and  C_6
REMARK    3  A    between atoms: C_6  and  O_7
REMARK                            x       y       z     vdW  Elec       q    Type
REMARK                         _______ _______ _______ _____ _____    ______ ____
ROOT
ATOM      1  O   UNL     1      57.360  33.113  81.039  0.00  0.00    +0.000 OA
ATOM      2  C   UNL     1      57.600  34.286  80.835  0.00  0.00    +0.000 C 
ENDROOT
BRANCH   2   3
ATOM      3  O   UNL     1      56.638  35.219  80.849  0.00  0.00    +0.000 OA
ATOM      4  H   UNL     1      56.155  35.085  80.008  0.00  0.00    +0.000 HD
ENDBRANCH   2   3
BRANCH   2   6
ATOM      5  O   UNL     1      59.906  34.310  79.945  0.00  0.00    +0.000 OA
ATOM      6  C   UNL     1      59.011  34.882  80.537  0.00  0.00    +0.000 C 
BRANCH   6   7
ATOM      7  O   UNL     1      59.157  36.128  81.008  0.00  0.00    +0.000 OA
ATOM      8  H   UNL     1      58.304  36.566  80.810  0.00  0.00    +0.000 HD
ENDBRANCH   6   7
ENDBRANCH   2   6
TORSDOF 3
ENDMDL
