MODEL 1
REMARK VINA RESULT:      -6.0      0.000      0.000
REMARK  Name = 9852185_GambogicAcid.pdbqt.pdb
REMARK  10 active torsions:
REMARK  status: ('A' for Active; 'I' for Inactive)
REMARK    1  A    between atoms: C_8  and  C_30
REMARK    2  A    between atoms: C_20  and  C_38
REMARK    3  A    between atoms: C_21  and  O_28
REMARK    4  A    between atoms: C_25  and  C_43
REMARK    5  A    between atoms: C_31  and  C_32
REMARK    6  A    between atoms: C_32  and  C_35
REMARK    7  A    between atoms: C_35  and  O_36
REMARK    8  A    between atoms: C_39  and  C_40
REMARK    9  A    between atoms: C_43  and  C_44
REMARK   10  A    between atoms: C_45  and  C_46
REMARK                            x       y       z     vdW  Elec       q    Type
REMARK                         _______ _______ _______ _____ _____    ______ ____
ROOT
ATOM      1  O   UNL     1      22.536   5.584  84.499  0.00  0.00    +0.000 OA
ATOM      2  O   UNL     1      23.960   7.471  86.144  0.00  0.00    +0.000 OA
ATOM      3  O   UNL     1      20.506   7.134  82.615  0.00  0.00    +0.000 OA
ATOM      4  O   UNL     1      22.296  11.173  86.837  0.00  0.00    +0.000 OA
ATOM      5  O   UNL     1      27.400   8.216  89.337  0.00  0.00    +0.000 OA
ATOM      6  C   UNL     1      22.637   7.671  85.666  0.00  0.00    +0.000 C 
ATOM      7  C   UNL     1      21.594   6.719  86.354  0.00  0.00    +0.000 C 
ATOM      8  C   UNL     1      22.425   6.995  84.253  0.00  0.00    +0.000 C 
ATOM      9  C   UNL     1      22.004   5.344  85.814  0.00  0.00    +0.000 C 
ATOM     10  C   UNL     1      20.264   7.217  85.999  0.00  0.00    +0.000 C 
ATOM     11  C   UNL     1      20.127   8.076  84.835  0.00  0.00    +0.000 C 
ATOM     12  C   UNL     1      22.190   9.142  85.649  0.00  0.00    +0.000 C 
ATOM     13  C   UNL     1      20.957   7.376  83.723  0.00  0.00    +0.000 C 
ATOM     14  C   UNL     1      20.861   9.276  85.142  0.00  0.00    +0.000 C 
ATOM     15  C   UNL     1      20.804   4.395  85.679  0.00  0.00    +0.000 C 
ATOM     16  C   UNL     1      23.085   4.724  86.712  0.00  0.00    +0.000 C 
ATOM     17  C   UNL     1      22.774  10.068  86.619  0.00  0.00    +0.000 C 
ATOM     18  C   UNL     1      24.483   8.328  87.075  0.00  0.00    +0.000 A 
ATOM     19  C   UNL     1      23.957   9.598  87.352  0.00  0.00    +0.000 A 
ATOM     20  C   UNL     1      25.645   7.886  87.743  0.00  0.00    +0.000 A 
ATOM     21  C   UNL     1      24.561  10.426  88.312  0.00  0.00    +0.000 A 
ATOM     22  C   UNL     1      26.258   8.705  88.697  0.00  0.00    +0.000 A 
ATOM     23  C   UNL     1      25.699   9.977  88.976  0.00  0.00    +0.000 A 
ATOM     24  C   UNL     1      26.413  10.712  89.955  0.00  0.00    +0.000 C 
ATOM     25  C   UNL     1      28.140   9.063  90.304  0.00  0.00    +0.000 C 
ATOM     26  C   UNL     1      27.409  10.319  90.479  0.00  0.00    +0.000 C 
ATOM     27  C   UNL     1      29.552   9.289  89.708  0.00  0.00    +0.000 C 
ENDROOT
BRANCH  21  28
ATOM     28  O   UNL     1      24.080  11.668  88.628  0.00  0.00    +0.000 OA
ATOM     29  H   UNL     1      23.808  12.140  87.808  0.00  0.00    +0.000 HD
ENDBRANCH  21  28
BRANCH   8  30
ATOM     30  C   UNL     1      23.447   7.401  83.278  0.00  0.00    +0.000 C 
ATOM     31  C   UNL     1      24.551   7.829  82.299  0.00  0.00    +0.000 C 
BRANCH  31  32
ATOM     32  C   UNL     1      25.515   8.218  81.513  0.00  0.00    +0.000 C 
ATOM     33  C   UNL     1      25.137   8.322  80.047  0.00  0.00    +0.000 C 
BRANCH  32  35
ATOM     34  O   UNL     1      27.683   9.280  81.561  0.00  0.00    +0.000 OA
ATOM     35  C   UNL     1      26.857   8.536  82.070  0.00  0.00    +0.000 C 
BRANCH  35  36
ATOM     36  O   UNL     1      27.132   7.924  83.241  0.00  0.00    +0.000 OA
ATOM     37  H   UNL     1      28.079   7.677  83.186  0.00  0.00    +0.000 HD
ENDBRANCH  35  36
ENDBRANCH  32  35
ENDBRANCH  31  32
ENDBRANCH   8  30
BRANCH  20  38
ATOM     38  C   UNL     1      26.195   6.595  87.445  0.00  0.00    +0.000 C 
ATOM     39  C   UNL     1      26.781   5.205  87.157  0.00  0.00    +0.000 C 
BRANCH  39  40
ATOM     40  C   UNL     1      27.269   4.025  86.932  0.00  0.00    +0.000 C 
ATOM     41  C   UNL     1      26.497   2.815  87.365  0.00  0.00    +0.000 C 
ATOM     42  C   UNL     1      28.461   3.872  86.038  0.00  0.00    +0.000 C 
ENDBRANCH  39  40
ENDBRANCH  20  38
BRANCH  25  43
ATOM     43  C   UNL     1      28.225   8.302  91.565  0.00  0.00    +0.000 C 
BRANCH  43  44
ATOM     44  C   UNL     1      28.305   7.514  92.878  0.00  0.00    +0.000 C 
ATOM     45  C   UNL     1      28.384   6.726  94.193  0.00  0.00    +0.000 C 
BRANCH  45  46
ATOM     46  C   UNL     1      28.457   6.065  95.306  0.00  0.00    +0.000 C 
ATOM     47  C   UNL     1      29.499   5.001  95.469  0.00  0.00    +0.000 C 
ATOM     48  C   UNL     1      27.398   6.239  96.351  0.00  0.00    +0.000 C 
ENDBRANCH  45  46
ENDBRANCH  43  44
ENDBRANCH  25  43
TORSDOF 10
ENDMDL
MODEL 2
REMARK VINA RESULT:      -6.0     15.424     18.740
REMARK  Name = 9852185_GambogicAcid.pdbqt.pdb
REMARK  10 active torsions:
REMARK  status: ('A' for Active; 'I' for Inactive)
REMARK    1  A    between atoms: C_8  and  C_30
REMARK    2  A    between atoms: C_20  and  C_38
REMARK    3  A    between atoms: C_21  and  O_28
REMARK    4  A    between atoms: C_25  and  C_43
REMARK    5  A    between atoms: C_31  and  C_32
REMARK    6  A    between atoms: C_32  and  C_35
REMARK    7  A    between atoms: C_35  and  O_36
REMARK    8  A    between atoms: C_39  and  C_40
REMARK    9  A    between atoms: C_43  and  C_44
REMARK   10  A    between atoms: C_45  and  C_46
REMARK                            x       y       z     vdW  Elec       q    Type
REMARK                         _______ _______ _______ _____ _____    ______ ____
ROOT
ATOM      1  O   UNL     1      13.262   0.835 101.647  0.00  0.00    +0.000 OA
ATOM      2  O   UNL     1      13.821   3.286 100.241  0.00  0.00    +0.000 OA
ATOM      3  O   UNL     1      13.744  -1.635  99.713  0.00  0.00    +0.000 OA
ATOM      4  O   UNL     1      13.654   3.312  96.127  0.00  0.00    +0.000 OA
ATOM      5  O   UNL     1      14.262   8.014 100.437  0.00  0.00    +0.000 OA
ATOM      6  C   UNL     1      13.341   2.102  99.618  0.00  0.00    +0.000 C 
ATOM      7  C   UNL     1      11.850   1.781  99.996  0.00  0.00    +0.000 C 
ATOM      8  C   UNL     1      13.876   0.806 100.349  0.00  0.00    +0.000 C 
ATOM      9  C   UNL     1      11.961   1.426 101.482  0.00  0.00    +0.000 C 
ATOM     10  C   UNL     1      11.396   0.733  99.081  0.00  0.00    +0.000 C 
ATOM     11  C   UNL     1      12.389  -0.082  98.403  0.00  0.00    +0.000 C 
ATOM     12  C   UNL     1      13.607   2.035  98.105  0.00  0.00    +0.000 C 
ATOM     13  C   UNL     1      13.403  -0.481  99.512  0.00  0.00    +0.000 C 
ATOM     14  C   UNL     1      13.118   0.816  97.545  0.00  0.00    +0.000 C 
ATOM     15  C   UNL     1      10.909   0.393 101.910  0.00  0.00    +0.000 C 
ATOM     16  C   UNL     1      11.850   2.697 102.340  0.00  0.00    +0.000 C 
ATOM     17  C   UNL     1      13.699   3.283  97.349  0.00  0.00    +0.000 C 
ATOM     18  C   UNL     1      13.873   4.454  99.530  0.00  0.00    +0.000 A 
ATOM     19  C   UNL     1      13.820   4.521  98.130  0.00  0.00    +0.000 A 
ATOM     20  C   UNL     1      14.033   5.635 100.287  0.00  0.00    +0.000 A 
ATOM     21  C   UNL     1      13.895   5.760  97.473  0.00  0.00    +0.000 A 
ATOM     22  C   UNL     1      14.115   6.874  99.641  0.00  0.00    +0.000 A 
ATOM     23  C   UNL     1      14.039   6.922  98.227  0.00  0.00    +0.000 A 
ATOM     24  C   UNL     1      14.140   8.231  97.694  0.00  0.00    +0.000 C 
ATOM     25  C   UNL     1      14.430   9.348  99.813  0.00  0.00    +0.000 C 
ATOM     26  C   UNL     1      14.304   9.204  98.362  0.00  0.00    +0.000 C 
ATOM     27  C   UNL     1      15.832   9.861 100.227  0.00  0.00    +0.000 C 
ENDROOT
BRANCH  21  28
ATOM     28  O   UNL     1      13.835   5.881  96.110  0.00  0.00    +0.000 OA
ATOM     29  H   UNL     1      12.896   5.898  95.818  0.00  0.00    +0.000 HD
ENDBRANCH  21  28
BRANCH   8  30
ATOM     30  C   UNL     1      15.338   0.813 100.501  0.00  0.00    +0.000 C 
ATOM     31  C   UNL     1      16.871   0.842 100.611  0.00  0.00    +0.000 C 
BRANCH  31  32
ATOM     32  C   UNL     1      18.173   0.865 100.647  0.00  0.00    +0.000 C 
ATOM     33  C   UNL     1      18.834  -0.501 100.652  0.00  0.00    +0.000 C 
BRANCH  32  35
ATOM     34  O   UNL     1      18.881   2.980 101.570  0.00  0.00    +0.000 OA
ATOM     35  C   UNL     1      18.901   2.162 100.663  0.00  0.00    +0.000 C 
BRANCH  35  36
ATOM     36  O   UNL     1      19.631   2.403  99.553  0.00  0.00    +0.000 OA
ATOM     37  H   UNL     1      20.145   3.213  99.754  0.00  0.00    +0.000 HD
ENDBRANCH  35  36
ENDBRANCH  32  35
ENDBRANCH  31  32
ENDBRANCH   8  30
BRANCH  20  38
ATOM     38  C   UNL     1      14.108   5.564 101.717  0.00  0.00    +0.000 C 
ATOM     39  C   UNL     1      14.165   5.510 103.251  0.00  0.00    +0.000 C 
BRANCH  39  40
ATOM     40  C   UNL     1      14.196   5.475 104.547  0.00  0.00    +0.000 C 
ATOM     41  C   UNL     1      15.455   5.862 105.263  0.00  0.00    +0.000 C 
ATOM     42  C   UNL     1      12.923   5.292 105.315  0.00  0.00    +0.000 C 
ENDBRANCH  39  40
ENDBRANCH  20  38
BRANCH  25  43
ATOM     43  C   UNL     1      13.375  10.217 100.367  0.00  0.00    +0.000 C 
BRANCH  43  44
ATOM     44  C   UNL     1      12.273  11.118 100.938  0.00  0.00    +0.000 C 
ATOM     45  C   UNL     1      11.168  12.019 101.509  0.00  0.00    +0.000 C 
BRANCH  45  46
ATOM     46  C   UNL     1      10.233  12.780 101.984  0.00  0.00    +0.000 C 
ATOM     47  C   UNL     1       9.726  12.550 103.375  0.00  0.00    +0.000 C 
ATOM     48  C   UNL     1       9.541  13.763 101.091  0.00  0.00    +0.000 C 
ENDBRANCH  45  46
ENDBRANCH  43  44
ENDBRANCH  25  43
TORSDOF 10
ENDMDL
MODEL 3
REMARK VINA RESULT:      -5.9     23.417     27.117
REMARK  Name = 9852185_GambogicAcid.pdbqt.pdb
REMARK  10 active torsions:
REMARK  status: ('A' for Active; 'I' for Inactive)
REMARK    1  A    between atoms: C_8  and  C_30
REMARK    2  A    between atoms: C_20  and  C_38
REMARK    3  A    between atoms: C_21  and  O_28
REMARK    4  A    between atoms: C_25  and  C_43
REMARK    5  A    between atoms: C_31  and  C_32
REMARK    6  A    between atoms: C_32  and  C_35
REMARK    7  A    between atoms: C_35  and  O_36
REMARK    8  A    between atoms: C_39  and  C_40
REMARK    9  A    between atoms: C_43  and  C_44
REMARK   10  A    between atoms: C_45  and  C_46
REMARK                            x       y       z     vdW  Elec       q    Type
REMARK                         _______ _______ _______ _____ _____    ______ ____
ROOT
ATOM      1  O   UNL     1      44.682  26.691  85.890  0.00  0.00    +0.000 OA
ATOM      2  O   UNL     1      44.962  23.937  85.095  0.00  0.00    +0.000 OA
ATOM      3  O   UNL     1      41.718  27.212  86.899  0.00  0.00    +0.000 OA
ATOM      4  O   UNL     1      41.596  21.808  84.049  0.00  0.00    +0.000 OA
ATOM      5  O   UNL     1      47.845  20.458  83.622  0.00  0.00    +0.000 OA
ATOM      6  C   UNL     1      43.748  24.671  85.011  0.00  0.00    +0.000 C 
ATOM      7  C   UNL     1      43.784  25.777  83.897  0.00  0.00    +0.000 C 
ATOM      8  C   UNL     1      43.640  25.743  86.168  0.00  0.00    +0.000 C 
ATOM      9  C   UNL     1      44.807  26.771  84.460  0.00  0.00    +0.000 C 
ATOM     10  C   UNL     1      42.410  26.247  83.719  0.00  0.00    +0.000 C 
ATOM     11  C   UNL     1      41.449  26.019  84.785  0.00  0.00    +0.000 C 
ATOM     12  C   UNL     1      42.486  23.794  84.949  0.00  0.00    +0.000 C 
ATOM     13  C   UNL     1      42.192  26.433  86.087  0.00  0.00    +0.000 C 
ATOM     14  C   UNL     1      41.302  24.590  84.885  0.00  0.00    +0.000 C 
ATOM     15  C   UNL     1      44.504  28.214  84.033  0.00  0.00    +0.000 C 
ATOM     16  C   UNL     1      46.227  26.368  84.033  0.00  0.00    +0.000 C 
ATOM     17  C   UNL     1      42.584  22.457  84.364  0.00  0.00    +0.000 C 
ATOM     18  C   UNL     1      45.049  22.699  84.516  0.00  0.00    +0.000 A 
ATOM     19  C   UNL     1      43.937  21.932  84.140  0.00  0.00    +0.000 A 
ATOM     20  C   UNL     1      46.352  22.184  84.345  0.00  0.00    +0.000 A 
ATOM     21  C   UNL     1      44.110  20.662  83.566  0.00  0.00    +0.000 A 
ATOM     22  C   UNL     1      46.535  20.918  83.779  0.00  0.00    +0.000 A 
ATOM     23  C   UNL     1      45.399  20.166  83.387  0.00  0.00    +0.000 A 
ATOM     24  C   UNL     1      45.715  18.901  82.834  0.00  0.00    +0.000 C 
ATOM     25  C   UNL     1      48.105  19.096  83.097  0.00  0.00    +0.000 C 
ATOM     26  C   UNL     1      46.827  18.485  82.730  0.00  0.00    +0.000 C 
ATOM     27  C   UNL     1      48.822  18.313  84.226  0.00  0.00    +0.000 C 
ENDROOT
BRANCH  21  28
ATOM     28  O   UNL     1      43.059  19.878  83.169  0.00  0.00    +0.000 OA
ATOM     29  H   UNL     1      43.391  19.005  82.860  0.00  0.00    +0.000 HD
ENDBRANCH  21  28
BRANCH   8  30
ATOM     30  C   UNL     1      43.856  25.156  87.498  0.00  0.00    +0.000 C 
ATOM     31  C   UNL     1      44.030  24.530  88.891  0.00  0.00    +0.000 C 
BRANCH  31  32
ATOM     32  C   UNL     1      44.122  24.010  90.082  0.00  0.00    +0.000 C 
ATOM     33  C   UNL     1      45.513  23.543  90.467  0.00  0.00    +0.000 C 
BRANCH  32  35
ATOM     34  O   UNL     1      42.857  23.323  92.021  0.00  0.00    +0.000 OA
ATOM     35  C   UNL     1      42.922  23.923  90.958  0.00  0.00    +0.000 C 
BRANCH  35  36
ATOM     36  O   UNL     1      41.843  24.583  90.489  0.00  0.00    +0.000 OA
ATOM     37  H   UNL     1      41.453  25.026  91.272  0.00  0.00    +0.000 HD
ENDBRANCH  35  36
ENDBRANCH  32  35
ENDBRANCH  31  32
ENDBRANCH   8  30
BRANCH  20  38
ATOM     38  C   UNL     1      47.488  22.961  84.749  0.00  0.00    +0.000 C 
ATOM     39  C   UNL     1      48.692  23.796  85.210  0.00  0.00    +0.000 C 
BRANCH  39  40
ATOM     40  C   UNL     1      49.702  24.498  85.618  0.00  0.00    +0.000 C 
ATOM     41  C   UNL     1      49.500  25.942  85.969  0.00  0.00    +0.000 C 
ATOM     42  C   UNL     1      50.989  23.816  85.969  0.00  0.00    +0.000 C 
ENDBRANCH  39  40
ENDBRANCH  20  38
BRANCH  25  43
ATOM     43  C   UNL     1      48.992  19.248  81.928  0.00  0.00    +0.000 C 
BRANCH  43  44
ATOM     44  C   UNL     1      49.910  19.412  80.711  0.00  0.00    +0.000 C 
ATOM     45  C   UNL     1      50.829  19.576  79.491  0.00  0.00    +0.000 C 
BRANCH  45  46
ATOM     46  C   UNL     1      51.609  19.708  78.464  0.00  0.00    +0.000 C 
ATOM     47  C   UNL     1      52.703  20.731  78.493  0.00  0.00    +0.000 C 
ATOM     48  C   UNL     1      51.308  18.973  77.196  0.00  0.00    +0.000 C 
ENDBRANCH  45  46
ENDBRANCH  43  44
ENDBRANCH  25  43
TORSDOF 10
ENDMDL
MODEL 4
REMARK VINA RESULT:      -5.7     12.298     15.977
REMARK  Name = 9852185_GambogicAcid.pdbqt.pdb
REMARK  10 active torsions:
REMARK  status: ('A' for Active; 'I' for Inactive)
REMARK    1  A    between atoms: C_8  and  C_30
REMARK    2  A    between atoms: C_20  and  C_38
REMARK    3  A    between atoms: C_21  and  O_28
REMARK    4  A    between atoms: C_25  and  C_43
REMARK    5  A    between atoms: C_31  and  C_32
REMARK    6  A    between atoms: C_32  and  C_35
REMARK    7  A    between atoms: C_35  and  O_36
REMARK    8  A    between atoms: C_39  and  C_40
REMARK    9  A    between atoms: C_43  and  C_44
REMARK   10  A    between atoms: C_45  and  C_46
REMARK                            x       y       z     vdW  Elec       q    Type
REMARK                         _______ _______ _______ _____ _____    ______ ____
ROOT
ATOM      1  O   UNL     1      20.969  18.138  88.461  0.00  0.00    +0.000 OA
ATOM      2  O   UNL     1      21.395  20.441  90.138  0.00  0.00    +0.000 OA
ATOM      3  O   UNL     1      19.264  15.975  90.038  0.00  0.00    +0.000 OA
ATOM      4  O   UNL     1      21.137  20.013  94.225  0.00  0.00    +0.000 OA
ATOM      5  O   UNL     1      23.083  24.867  90.523  0.00  0.00    +0.000 OA
ATOM      6  C   UNL     1      21.245  19.116  90.628  0.00  0.00    +0.000 C 
ATOM      7  C   UNL     1      22.476  18.201  90.289  0.00  0.00    +0.000 C 
ATOM      8  C   UNL     1      20.275  18.267  89.712  0.00  0.00    +0.000 C 
ATOM      9  C   UNL     1      22.373  18.071  88.765  0.00  0.00    +0.000 C 
ATOM     10  C   UNL     1      22.332  16.982  91.085  0.00  0.00    +0.000 C 
ATOM     11  C   UNL     1      21.019  16.635  91.602  0.00  0.00    +0.000 C 
ATOM     12  C   UNL     1      20.824  19.036  92.105  0.00  0.00    +0.000 C 
ATOM     13  C   UNL     1      20.051  16.834  90.401  0.00  0.00    +0.000 C 
ATOM     14  C   UNL     1      20.672  17.681  92.530  0.00  0.00    +0.000 C 
ATOM     15  C   UNL     1      22.907  16.721  88.264  0.00  0.00    +0.000 C 
ATOM     16  C   UNL     1      23.114  19.232  88.083  0.00  0.00    +0.000 C 
ATOM     17  C   UNL     1      21.209  20.120  93.008  0.00  0.00    +0.000 C 
ATOM     18  C   UNL     1      21.786  21.440  90.988  0.00  0.00    +0.000 A 
ATOM     19  C   UNL     1      21.721  21.348  92.386  0.00  0.00    +0.000 A 
ATOM     20  C   UNL     1      22.235  22.633  90.381  0.00  0.00    +0.000 A 
ATOM     21  C   UNL     1      22.127  22.425  93.191  0.00  0.00    +0.000 A 
ATOM     22  C   UNL     1      22.637  23.714  91.173  0.00  0.00    +0.000 A 
ATOM     23  C   UNL     1      22.581  23.593  92.584  0.00  0.00    +0.000 A 
ATOM     24  C   UNL     1      23.008  24.754  93.274  0.00  0.00    +0.000 C 
ATOM     25  C   UNL     1      23.452  26.073  91.302  0.00  0.00    +0.000 C 
ATOM     26  C   UNL     1      23.354  25.756  92.728  0.00  0.00    +0.000 C 
ATOM     27  C   UNL     1      22.465  27.192  90.886  0.00  0.00    +0.000 C 
ENDROOT
BRANCH  21  28
ATOM     28  O   UNL     1      22.095  22.381  94.559  0.00  0.00    +0.000 OA
ATOM     29  H   UNL     1      21.998  21.450  94.861  0.00  0.00    +0.000 HD
ENDBRANCH  21  28
BRANCH   8  30
ATOM     30  C   UNL     1      18.986  18.938  89.488  0.00  0.00    +0.000 C 
ATOM     31  C   UNL     1      17.666  19.682  89.235  0.00  0.00    +0.000 C 
BRANCH  31  32
ATOM     32  C   UNL     1      16.575  20.362  89.025  0.00  0.00    +0.000 C 
ATOM     33  C   UNL     1      16.250  21.390  90.092  0.00  0.00    +0.000 C 
BRANCH  32  35
ATOM     34  O   UNL     1      16.196  19.986  86.670  0.00  0.00    +0.000 OA
ATOM     35  C   UNL     1      15.760  20.117  87.804  0.00  0.00    +0.000 C 
BRANCH  35  36
ATOM     36  O   UNL     1      14.431  20.041  88.030  0.00  0.00    +0.000 OA
ATOM     37  H   UNL     1      14.106  20.963  87.962  0.00  0.00    +0.000 HD
ENDBRANCH  35  36
ENDBRANCH  32  35
ENDBRANCH  31  32
ENDBRANCH   8  30
BRANCH  20  38
ATOM     38  C   UNL     1      22.283  22.734  88.951  0.00  0.00    +0.000 C 
ATOM     39  C   UNL     1      22.319  22.815  87.418  0.00  0.00    +0.000 C 
BRANCH  39  40
ATOM     40  C   UNL     1      22.336  22.868  86.122  0.00  0.00    +0.000 C 
ATOM     41  C   UNL     1      23.119  21.846  85.355  0.00  0.00    +0.000 C 
ATOM     42  C   UNL     1      21.391  23.782  85.403  0.00  0.00    +0.000 C 
ENDBRANCH  39  40
ENDBRANCH  20  38
BRANCH  25  43
ATOM     43  C   UNL     1      24.831  26.429  90.917  0.00  0.00    +0.000 C 
BRANCH  43  44
ATOM     44  C   UNL     1      26.266  26.790  90.516  0.00  0.00    +0.000 C 
ATOM     45  C   UNL     1      27.703  27.152  90.112  0.00  0.00    +0.000 C 
BRANCH  45  46
ATOM     46  C   UNL     1      28.918  27.449  89.771  0.00  0.00    +0.000 C 
ATOM     47  C   UNL     1      29.310  27.414  88.326  0.00  0.00    +0.000 C 
ATOM     48  C   UNL     1      29.964  27.651  90.823  0.00  0.00    +0.000 C 
ENDBRANCH  45  46
ENDBRANCH  43  44
ENDBRANCH  25  43
TORSDOF 10
ENDMDL
MODEL 5
REMARK VINA RESULT:      -5.7     12.390     16.203
REMARK  Name = 9852185_GambogicAcid.pdbqt.pdb
REMARK  10 active torsions:
REMARK  status: ('A' for Active; 'I' for Inactive)
REMARK    1  A    between atoms: C_8  and  C_30
REMARK    2  A    between atoms: C_20  and  C_38
REMARK    3  A    between atoms: C_21  and  O_28
REMARK    4  A    between atoms: C_25  and  C_43
REMARK    5  A    between atoms: C_31  and  C_32
REMARK    6  A    between atoms: C_32  and  C_35
REMARK    7  A    between atoms: C_35  and  O_36
REMARK    8  A    between atoms: C_39  and  C_40
REMARK    9  A    between atoms: C_43  and  C_44
REMARK   10  A    between atoms: C_45  and  C_46
REMARK                            x       y       z     vdW  Elec       q    Type
REMARK                         _______ _______ _______ _____ _____    ______ ____
ROOT
ATOM      1  O   UNL     1      20.571  18.766  88.864  0.00  0.00    +0.000 OA
ATOM      2  O   UNL     1      21.545  20.472  90.970  0.00  0.00    +0.000 OA
ATOM      3  O   UNL     1      18.986  16.321  90.122  0.00  0.00    +0.000 OA
ATOM      4  O   UNL     1      22.032  18.905  94.746  0.00  0.00    +0.000 OA
ATOM      5  O   UNL     1      23.723  24.522  92.169  0.00  0.00    +0.000 OA
ATOM      6  C   UNL     1      21.356  19.070  91.104  0.00  0.00    +0.000 C 
ATOM      7  C   UNL     1      22.398  18.236  90.276  0.00  0.00    +0.000 C 
ATOM      8  C   UNL     1      20.147  18.563  90.221  0.00  0.00    +0.000 C 
ATOM      9  C   UNL     1      21.993  18.552  88.832  0.00  0.00    +0.000 C 
ATOM     10  C   UNL     1      22.284  16.847  90.724  0.00  0.00    +0.000 C 
ATOM     11  C   UNL     1      21.066  16.427  91.396  0.00  0.00    +0.000 C 
ATOM     12  C   UNL     1      21.220  18.590  92.559  0.00  0.00    +0.000 C 
ATOM     13  C   UNL     1      19.913  17.004  90.528  0.00  0.00    +0.000 C 
ATOM     14  C   UNL     1      21.013  17.178  92.623  0.00  0.00    +0.000 C 
ATOM     15  C   UNL     1      22.279  17.379  87.882  0.00  0.00    +0.000 C 
ATOM     16  C   UNL     1      22.705  19.824  88.348  0.00  0.00    +0.000 C 
ATOM     17  C   UNL     1      21.880  19.352  93.617  0.00  0.00    +0.000 C 
ATOM     18  C   UNL     1      22.193  21.167  91.955  0.00  0.00    +0.000 A 
ATOM     19  C   UNL     1      22.387  20.682  93.256  0.00  0.00    +0.000 A 
ATOM     20  C   UNL     1      22.638  22.463  91.612  0.00  0.00    +0.000 A 
ATOM     21  C   UNL     1      23.049  21.465  94.217  0.00  0.00    +0.000 A 
ATOM     22  C   UNL     1      23.293  23.252  92.563  0.00  0.00    +0.000 A 
ATOM     23  C   UNL     1      23.497  22.736  93.867  0.00  0.00    +0.000 A 
ATOM     24  C   UNL     1      24.165  23.631  94.738  0.00  0.00    +0.000 C 
ATOM     25  C   UNL     1      24.357  25.437  93.149  0.00  0.00    +0.000 C 
ATOM     26  C   UNL     1      24.502  24.730  94.422  0.00  0.00    +0.000 C 
ATOM     27  C   UNL     1      23.429  26.672  93.270  0.00  0.00    +0.000 C 
ENDROOT
BRANCH  21  28
ATOM     28  O   UNL     1      23.275  21.033  95.497  0.00  0.00    +0.000 OA
ATOM     29  H   UNL     1      22.541  21.326  96.083  0.00  0.00    +0.000 HD
ENDBRANCH  21  28
BRANCH   8  30
ATOM     30  C   UNL     1      18.915  19.327  90.466  0.00  0.00    +0.000 C 
ATOM     31  C   UNL     1      17.657  20.161  90.751  0.00  0.00    +0.000 C 
BRANCH  31  32
ATOM     32  C   UNL     1      16.615  20.888  91.040  0.00  0.00    +0.000 C 
ATOM     33  C   UNL     1      15.817  21.363  89.840  0.00  0.00    +0.000 C 
BRANCH  32  35
ATOM     34  O   UNL     1      15.757  22.210  92.869  0.00  0.00    +0.000 OA
ATOM     35  C   UNL     1      16.274  21.182  92.458  0.00  0.00    +0.000 C 
BRANCH  35  36
ATOM     36  O   UNL     1      16.583  20.191  93.320  0.00  0.00    +0.000 OA
ATOM     37  H   UNL     1      17.075  20.627  94.047  0.00  0.00    +0.000 HD
ENDBRANCH  35  36
ENDBRANCH  32  35
ENDBRANCH  31  32
ENDBRANCH   8  30
BRANCH  20  38
ATOM     38  C   UNL     1      22.421  22.966  90.286  0.00  0.00    +0.000 C 
ATOM     39  C   UNL     1      22.194  23.535  88.878  0.00  0.00    +0.000 C 
BRANCH  39  40
ATOM     40  C   UNL     1      22.009  24.033  87.695  0.00  0.00    +0.000 C 
ATOM     41  C   UNL     1      22.673  23.390  86.515  0.00  0.00    +0.000 C 
ATOM     42  C   UNL     1      20.956  25.078  87.485  0.00  0.00    +0.000 C 
ENDBRANCH  39  40
ENDBRANCH  20  38
BRANCH  25  43
ATOM     43  C   UNL     1      25.665  25.826  92.590  0.00  0.00    +0.000 C 
BRANCH  43  44
ATOM     44  C   UNL     1      27.029  26.222  92.010  0.00  0.00    +0.000 C 
ATOM     45  C   UNL     1      28.394  26.620  91.431  0.00  0.00    +0.000 C 
BRANCH  45  46
ATOM     46  C   UNL     1      29.544  26.962  90.940  0.00  0.00    +0.000 C 
ATOM     47  C   UNL     1      30.246  28.172  91.477  0.00  0.00    +0.000 C 
ATOM     48  C   UNL     1      30.081  26.264  89.730  0.00  0.00    +0.000 C 
ENDBRANCH  45  46
ENDBRANCH  43  44
ENDBRANCH  25  43
TORSDOF 10
ENDMDL
MODEL 6
REMARK VINA RESULT:      -5.6     14.751     17.590
REMARK  Name = 9852185_GambogicAcid.pdbqt.pdb
REMARK  10 active torsions:
REMARK  status: ('A' for Active; 'I' for Inactive)
REMARK    1  A    between atoms: C_8  and  C_30
REMARK    2  A    between atoms: C_20  and  C_38
REMARK    3  A    between atoms: C_21  and  O_28
REMARK    4  A    between atoms: C_25  and  C_43
REMARK    5  A    between atoms: C_31  and  C_32
REMARK    6  A    between atoms: C_32  and  C_35
REMARK    7  A    between atoms: C_35  and  O_36
REMARK    8  A    between atoms: C_39  and  C_40
REMARK    9  A    between atoms: C_43  and  C_44
REMARK   10  A    between atoms: C_45  and  C_46
REMARK                            x       y       z     vdW  Elec       q    Type
REMARK                         _______ _______ _______ _____ _____    ______ ____
ROOT
ATOM      1  O   UNL     1      11.903  -3.422  95.330  0.00  0.00    +0.000 OA
ATOM      2  O   UNL     1      12.799  -0.714  95.726  0.00  0.00    +0.000 OA
ATOM      3  O   UNL     1      12.318  -4.247  92.293  0.00  0.00    +0.000 OA
ATOM      4  O   UNL     1      12.980   1.825  92.489  0.00  0.00    +0.000 OA
ATOM      5  O   UNL     1      13.651   2.825  98.782  0.00  0.00    +0.000 OA
ATOM      6  C   UNL     1      12.267  -1.206  94.504  0.00  0.00    +0.000 C 
ATOM      7  C   UNL     1      10.727  -1.503  94.589  0.00  0.00    +0.000 C 
ATOM      8  C   UNL     1      12.619  -2.733  94.293  0.00  0.00    +0.000 C 
ATOM      9  C   UNL     1      10.680  -2.698  95.548  0.00  0.00    +0.000 C 
ATOM     10  C   UNL     1      10.257  -1.714  93.219  0.00  0.00    +0.000 C 
ATOM     11  C   UNL     1      11.226  -2.066  92.195  0.00  0.00    +0.000 C 
ATOM     12  C   UNL     1      12.652  -0.372  93.270  0.00  0.00    +0.000 C 
ATOM     13  C   UNL     1      12.103  -3.177  92.838  0.00  0.00    +0.000 C 
ATOM     14  C   UNL     1      12.102  -0.929  92.074  0.00  0.00    +0.000 C 
ATOM     15  C   UNL     1       9.506  -3.638  95.242  0.00  0.00    +0.000 C 
ATOM     16  C   UNL     1      10.614  -2.207  97.003  0.00  0.00    +0.000 C 
ATOM     17  C   UNL     1      12.920   1.054  93.438  0.00  0.00    +0.000 C 
ATOM     18  C   UNL     1      13.016   0.629  95.880  0.00  0.00    +0.000 A 
ATOM     19  C   UNL     1      13.087   1.538  94.815  0.00  0.00    +0.000 A 
ATOM     20  C   UNL     1      13.219   1.077  97.204  0.00  0.00    +0.000 A 
ATOM     21  C   UNL     1      13.330   2.900  95.056  0.00  0.00    +0.000 A 
ATOM     22  C   UNL     1      13.467   2.431  97.454  0.00  0.00    +0.000 A 
ATOM     23  C   UNL     1      13.515   3.336  96.364  0.00  0.00    +0.000 A 
ATOM     24  C   UNL     1      13.779   4.675  96.746  0.00  0.00    +0.000 C 
ATOM     25  C   UNL     1      13.991   4.230  99.108  0.00  0.00    +0.000 C 
ATOM     26  C   UNL     1      13.974   5.014  97.872  0.00  0.00    +0.000 C 
ATOM     27  C   UNL     1      15.394   4.209  99.765  0.00  0.00    +0.000 C 
ENDROOT
BRANCH  21  28
ATOM     28  O   UNL     1      13.395   3.830  94.052  0.00  0.00    +0.000 OA
ATOM     29  H   UNL     1      14.234   4.339  94.122  0.00  0.00    +0.000 HD
ENDBRANCH  21  28
BRANCH   8  30
ATOM     30  C   UNL     1      14.057  -3.000  94.433  0.00  0.00    +0.000 C 
ATOM     31  C   UNL     1      15.571  -3.246  94.537  0.00  0.00    +0.000 C 
BRANCH  31  32
ATOM     32  C   UNL     1      16.858  -3.442  94.570  0.00  0.00    +0.000 C 
ATOM     33  C   UNL     1      17.364  -4.148  95.815  0.00  0.00    +0.000 C 
BRANCH  32  35
ATOM     34  O   UNL     1      18.717  -3.572  93.034  0.00  0.00    +0.000 OA
ATOM     35  C   UNL     1      17.715  -3.000  93.437  0.00  0.00    +0.000 C 
BRANCH  35  36
ATOM     36  O   UNL     1      17.301  -1.862  92.839  0.00  0.00    +0.000 OA
ATOM     37  H   UNL     1      17.665  -1.904  91.929  0.00  0.00    +0.000 HD
ENDBRANCH  35  36
ENDBRANCH  32  35
ENDBRANCH  31  32
ENDBRANCH   8  30
BRANCH  20  38
ATOM     38  C   UNL     1      13.167   0.144  98.292  0.00  0.00    +0.000 C 
ATOM     39  C   UNL     1      13.087  -0.839  99.469  0.00  0.00    +0.000 C 
BRANCH  39  40
ATOM     40  C   UNL     1      13.001  -1.662 100.468  0.00  0.00    +0.000 C 
ATOM     41  C   UNL     1      13.436  -3.085 100.288  0.00  0.00    +0.000 C 
ATOM     42  C   UNL     1      12.706  -1.137 101.839  0.00  0.00    +0.000 C 
ENDBRANCH  39  40
ENDBRANCH  20  38
BRANCH  25  43
ATOM     43  C   UNL     1      12.976   4.706 100.068  0.00  0.00    +0.000 C 
BRANCH  43  44
ATOM     44  C   UNL     1      11.917   5.195 101.064  0.00  0.00    +0.000 C 
ATOM     45  C   UNL     1      10.856   5.682 102.062  0.00  0.00    +0.000 C 
BRANCH  45  46
ATOM     46  C   UNL     1       9.957   6.087 102.902  0.00  0.00    +0.000 C 
ATOM     47  C   UNL     1       9.561   5.205 104.046  0.00  0.00    +0.000 C 
ATOM     48  C   UNL     1       9.192   7.346 102.631  0.00  0.00    +0.000 C 
ENDBRANCH  45  46
ENDBRANCH  43  44
ENDBRANCH  25  43
TORSDOF 10
ENDMDL
MODEL 7
REMARK VINA RESULT:      -5.4     33.263     37.040
REMARK  Name = 9852185_GambogicAcid.pdbqt.pdb
REMARK  10 active torsions:
REMARK  status: ('A' for Active; 'I' for Inactive)
REMARK    1  A    between atoms: C_8  and  C_30
REMARK    2  A    between atoms: C_20  and  C_38
REMARK    3  A    between atoms: C_21  and  O_28
REMARK    4  A    between atoms: C_25  and  C_43
REMARK    5  A    between atoms: C_31  and  C_32
REMARK    6  A    between atoms: C_32  and  C_35
REMARK    7  A    between atoms: C_35  and  O_36
REMARK    8  A    between atoms: C_39  and  C_40
REMARK    9  A    between atoms: C_43  and  C_44
REMARK   10  A    between atoms: C_45  and  C_46
REMARK                            x       y       z     vdW  Elec       q    Type
REMARK                         _______ _______ _______ _____ _____    ______ ____
ROOT
ATOM      1  O   UNL     1      42.836  37.861  83.306  0.00  0.00    +0.000 OA
ATOM      2  O   UNL     1      43.708  37.940  80.562  0.00  0.00    +0.000 OA
ATOM      3  O   UNL     1      44.600  39.850  85.041  0.00  0.00    +0.000 OA
ATOM      4  O   UNL     1      47.530  39.217  79.716  0.00  0.00    +0.000 OA
ATOM      5  O   UNL     1      42.988  36.530  76.081  0.00  0.00    +0.000 OA
ATOM      6  C   UNL     1      44.559  38.173  81.676  0.00  0.00    +0.000 C 
ATOM      7  C   UNL     1      44.836  36.871  82.510  0.00  0.00    +0.000 C 
ATOM      8  C   UNL     1      43.778  38.854  82.869  0.00  0.00    +0.000 C 
ATOM      9  C   UNL     1      43.461  36.580  83.121  0.00  0.00    +0.000 C 
ATOM     10  C   UNL     1      45.934  37.179  83.427  0.00  0.00    +0.000 C 
ATOM     11  C   UNL     1      46.219  38.570  83.736  0.00  0.00    +0.000 C 
ATOM     12  C   UNL     1      45.840  38.953  81.335  0.00  0.00    +0.000 C 
ATOM     13  C   UNL     1      44.830  39.205  84.031  0.00  0.00    +0.000 C 
ATOM     14  C   UNL     1      46.642  39.170  82.498  0.00  0.00    +0.000 C 
ATOM     15  C   UNL     1      43.571  35.898  84.492  0.00  0.00    +0.000 C 
ATOM     16  C   UNL     1      42.624  35.722  82.158  0.00  0.00    +0.000 C 
ATOM     17  C   UNL     1      46.397  38.841  79.988  0.00  0.00    +0.000 C 
ATOM     18  C   UNL     1      44.246  37.806  79.311  0.00  0.00    +0.000 A 
ATOM     19  C   UNL     1      45.541  38.222  78.968  0.00  0.00    +0.000 A 
ATOM     20  C   UNL     1      43.400  37.251  78.327  0.00  0.00    +0.000 A 
ATOM     21  C   UNL     1      46.015  38.065  77.655  0.00  0.00    +0.000 A 
ATOM     22  C   UNL     1      43.861  37.095  77.015  0.00  0.00    +0.000 A 
ATOM     23  C   UNL     1      45.180  37.504  76.694  0.00  0.00    +0.000 A 
ATOM     24  C   UNL     1      45.526  37.299  75.335  0.00  0.00    +0.000 C 
ATOM     25  C   UNL     1      43.388  36.406  74.659  0.00  0.00    +0.000 C 
ATOM     26  C   UNL     1      44.775  36.854  74.523  0.00  0.00    +0.000 C 
ATOM     27  C   UNL     1      42.409  37.286  73.842  0.00  0.00    +0.000 C 
ENDROOT
BRANCH  21  28
ATOM     28  O   UNL     1      47.275  38.442  77.272  0.00  0.00    +0.000 OA
ATOM     29  H   UNL     1      47.232  39.289  76.774  0.00  0.00    +0.000 HD
ENDBRANCH  21  28
BRANCH   8  30
ATOM     30  C   UNL     1      43.053  40.061  82.448  0.00  0.00    +0.000 C 
ATOM     31  C   UNL     1      42.323  41.323  81.961  0.00  0.00    +0.000 C 
BRANCH  31  32
ATOM     32  C   UNL     1      41.749  42.403  81.514  0.00  0.00    +0.000 C 
ATOM     33  C   UNL     1      41.211  43.330  82.588  0.00  0.00    +0.000 C 
BRANCH  32  35
ATOM     34  O   UNL     1      40.649  42.890  79.420  0.00  0.00    +0.000 OA
ATOM     35  C   UNL     1      41.671  42.662  80.050  0.00  0.00    +0.000 C 
BRANCH  35  36
ATOM     36  O   UNL     1      42.862  42.629  79.417  0.00  0.00    +0.000 OA
ATOM     37  H   UNL     1      43.316  43.457  79.680  0.00  0.00    +0.000 HD
ENDBRANCH  35  36
ENDBRANCH  32  35
ENDBRANCH  31  32
ENDBRANCH   8  30
BRANCH  20  38
ATOM     38  C   UNL     1      42.069  36.844  78.673  0.00  0.00    +0.000 C 
ATOM     39  C   UNL     1      40.655  36.381  79.053  0.00  0.00    +0.000 C 
BRANCH  39  40
ATOM     40  C   UNL     1      39.470  35.973  79.384  0.00  0.00    +0.000 C 
ATOM     41  C   UNL     1      38.827  36.512  80.627  0.00  0.00    +0.000 C 
ATOM     42  C   UNL     1      38.662  35.170  78.411  0.00  0.00    +0.000 C 
ENDBRANCH  39  40
ENDBRANCH  20  38
BRANCH  25  43
ATOM     43  C   UNL     1      43.237  34.985  74.293  0.00  0.00    +0.000 C 
BRANCH  43  44
ATOM     44  C   UNL     1      43.080  33.509  73.905  0.00  0.00    +0.000 C 
ATOM     45  C   UNL     1      42.924  32.032  73.516  0.00  0.00    +0.000 C 
BRANCH  45  46
ATOM     46  C   UNL     1      42.796  30.787  73.181  0.00  0.00    +0.000 C 
ATOM     47  C   UNL     1      41.434  30.163  73.160  0.00  0.00    +0.000 C 
ATOM     48  C   UNL     1      44.010  29.932  72.990  0.00  0.00    +0.000 C 
ENDBRANCH  45  46
ENDBRANCH  43  44
ENDBRANCH  25  43
TORSDOF 10
ENDMDL
MODEL 8
REMARK VINA RESULT:      -5.3     17.996     22.561
REMARK  Name = 9852185_GambogicAcid.pdbqt.pdb
REMARK  10 active torsions:
REMARK  status: ('A' for Active; 'I' for Inactive)
REMARK    1  A    between atoms: C_8  and  C_30
REMARK    2  A    between atoms: C_20  and  C_38
REMARK    3  A    between atoms: C_21  and  O_28
REMARK    4  A    between atoms: C_25  and  C_43
REMARK    5  A    between atoms: C_31  and  C_32
REMARK    6  A    between atoms: C_32  and  C_35
REMARK    7  A    between atoms: C_35  and  O_36
REMARK    8  A    between atoms: C_39  and  C_40
REMARK    9  A    between atoms: C_43  and  C_44
REMARK   10  A    between atoms: C_45  and  C_46
REMARK                            x       y       z     vdW  Elec       q    Type
REMARK                         _______ _______ _______ _____ _____    ______ ____
ROOT
ATOM      1  O   UNL     1      39.427  20.982  83.626  0.00  0.00    +0.000 OA
ATOM      2  O   UNL     1      39.457  21.382  80.773  0.00  0.00    +0.000 OA
ATOM      3  O   UNL     1      39.116  23.781  85.090  0.00  0.00    +0.000 OA
ATOM      4  O   UNL     1      40.522  25.070  79.284  0.00  0.00    +0.000 OA
ATOM      5  O   UNL     1      39.497  19.417  76.446  0.00  0.00    +0.000 OA
ATOM      6  C   UNL     1      39.931  22.333  81.716  0.00  0.00    +0.000 C 
ATOM      7  C   UNL     1      41.260  21.879  82.421  0.00  0.00    +0.000 C 
ATOM      8  C   UNL     1      39.112  22.267  83.067  0.00  0.00    +0.000 C 
ATOM      9  C   UNL     1      40.788  20.690  83.265  0.00  0.00    +0.000 C 
ATOM     10  C   UNL     1      41.787  23.046  83.128  0.00  0.00    +0.000 C 
ATOM     11  C   UNL     1      40.884  24.140  83.444  0.00  0.00    +0.000 C 
ATOM     12  C   UNL     1      39.997  23.773  81.178  0.00  0.00    +0.000 C 
ATOM     13  C   UNL     1      39.615  23.454  84.025  0.00  0.00    +0.000 C 
ATOM     14  C   UNL     1      40.462  24.681  82.178  0.00  0.00    +0.000 C 
ATOM     15  C   UNL     1      41.604  20.539  84.557  0.00  0.00    +0.000 C 
ATOM     16  C   UNL     1      40.845  19.396  82.437  0.00  0.00    +0.000 C 
ATOM     17  C   UNL     1      40.207  23.981  79.747  0.00  0.00    +0.000 C 
ATOM     18  C   UNL     1      39.688  21.575  79.438  0.00  0.00    +0.000 A 
ATOM     19  C   UNL     1      40.054  22.807  78.878  0.00  0.00    +0.000 A 
ATOM     20  C   UNL     1      39.495  20.451  78.606  0.00  0.00    +0.000 A 
ATOM     21  C   UNL     1      40.258  22.927  77.493  0.00  0.00    +0.000 A 
ATOM     22  C   UNL     1      39.691  20.562  77.225  0.00  0.00    +0.000 A 
ATOM     23  C   UNL     1      40.079  21.812  76.681  0.00  0.00    +0.000 A 
ATOM     24  C   UNL     1      40.239  21.796  75.273  0.00  0.00    +0.000 C 
ATOM     25  C   UNL     1      39.615  19.485  74.970  0.00  0.00    +0.000 C 
ATOM     26  C   UNL     1      40.039  20.835  74.597  0.00  0.00    +0.000 C 
ATOM     27  C   UNL     1      38.220  19.133  74.395  0.00  0.00    +0.000 C 
ENDROOT
BRANCH  21  28
ATOM     28  O   UNL     1      40.627  24.104  76.898  0.00  0.00    +0.000 OA
ATOM     29  H   UNL     1      41.608  24.155  76.840  0.00  0.00    +0.000 HD
ENDBRANCH  21  28
BRANCH   8  30
ATOM     30  C   UNL     1      37.662  22.361  82.848  0.00  0.00    +0.000 C 
ATOM     31  C   UNL     1      36.139  22.413  82.647  0.00  0.00    +0.000 C 
BRANCH  31  32
ATOM     32  C   UNL     1      34.847  22.400  82.482  0.00  0.00    +0.000 C 
ATOM     33  C   UNL     1      34.380  22.746  81.080  0.00  0.00    +0.000 C 
BRANCH  32  35
ATOM     34  O   UNL     1      33.024  21.250  83.571  0.00  0.00    +0.000 OA
ATOM     35  C   UNL     1      33.948  22.049  83.614  0.00  0.00    +0.000 C 
BRANCH  35  36
ATOM     36  O   UNL     1      34.226  22.698  84.765  0.00  0.00    +0.000 OA
ATOM     37  H   UNL     1      34.881  23.385  84.521  0.00  0.00    +0.000 HD
ENDBRANCH  35  36
ENDBRANCH  32  35
ENDBRANCH  31  32
ENDBRANCH   8  30
BRANCH  20  38
ATOM     38  C   UNL     1      39.102  19.196  79.177  0.00  0.00    +0.000 C 
ATOM     39  C   UNL     1      38.707  17.851  79.805  0.00  0.00    +0.000 C 
BRANCH  39  40
ATOM     40  C   UNL     1      38.390  16.718  80.350  0.00  0.00    +0.000 C 
ATOM     41  C   UNL     1      38.335  16.610  81.844  0.00  0.00    +0.000 C 
ATOM     42  C   UNL     1      37.847  15.611  79.499  0.00  0.00    +0.000 C 
ENDBRANCH  39  40
ENDBRANCH  20  38
BRANCH  25  43
ATOM     43  C   UNL     1      40.610  18.472  74.572  0.00  0.00    +0.000 C 
BRANCH  43  44
ATOM     44  C   UNL     1      41.652  17.424  74.158  0.00  0.00    +0.000 C 
ATOM     45  C   UNL     1      42.695  16.377  73.743  0.00  0.00    +0.000 C 
BRANCH  45  46
ATOM     46  C   UNL     1      43.572  15.492  73.385  0.00  0.00    +0.000 C 
ATOM     47  C   UNL     1      44.820  15.318  74.196  0.00  0.00    +0.000 C 
ATOM     48  C   UNL     1      43.426  14.778  72.078  0.00  0.00    +0.000 C 
ENDBRANCH  45  46
ENDBRANCH  43  44
ENDBRANCH  25  43
TORSDOF 10
ENDMDL
MODEL 9
REMARK VINA RESULT:      -5.1     25.192     29.477
REMARK  Name = 9852185_GambogicAcid.pdbqt.pdb
REMARK  10 active torsions:
REMARK  status: ('A' for Active; 'I' for Inactive)
REMARK    1  A    between atoms: C_8  and  C_30
REMARK    2  A    between atoms: C_20  and  C_38
REMARK    3  A    between atoms: C_21  and  O_28
REMARK    4  A    between atoms: C_25  and  C_43
REMARK    5  A    between atoms: C_31  and  C_32
REMARK    6  A    between atoms: C_32  and  C_35
REMARK    7  A    between atoms: C_35  and  O_36
REMARK    8  A    between atoms: C_39  and  C_40
REMARK    9  A    between atoms: C_43  and  C_44
REMARK   10  A    between atoms: C_45  and  C_46
REMARK                            x       y       z     vdW  Elec       q    Type
REMARK                         _______ _______ _______ _____ _____    ______ ____
ROOT
ATOM      1  O   UNL     1      43.491  26.102  85.279  0.00  0.00    +0.000 OA
ATOM      2  O   UNL     1      45.795  26.137  87.007  0.00  0.00    +0.000 OA
ATOM      3  O   UNL     1      43.463  23.411  83.596  0.00  0.00    +0.000 OA
ATOM      4  O   UNL     1      49.047  23.801  86.047  0.00  0.00    +0.000 OA
ATOM      5  O   UNL     1      48.171  28.340  90.484  0.00  0.00    +0.000 OA
ATOM      6  C   UNL     1      45.752  25.476  85.750  0.00  0.00    +0.000 C 
ATOM      7  C   UNL     1      45.710  26.476  84.539  0.00  0.00    +0.000 C 
ATOM      8  C   UNL     1      44.303  24.927  85.434  0.00  0.00    +0.000 C 
ATOM      9  C   UNL     1      44.327  27.116  84.695  0.00  0.00    +0.000 C 
ATOM     10  C   UNL     1      45.963  25.692  83.330  0.00  0.00    +0.000 C 
ATOM     11  C   UNL     1      45.743  24.256  83.369  0.00  0.00    +0.000 C 
ATOM     12  C   UNL     1      46.811  24.372  85.583  0.00  0.00    +0.000 C 
ATOM     13  C   UNL     1      44.366  24.082  84.070  0.00  0.00    +0.000 C 
ATOM     14  C   UNL     1      46.702  23.736  84.309  0.00  0.00    +0.000 C 
ATOM     15  C   UNL     1      43.720  27.516  83.343  0.00  0.00    +0.000 C 
ATOM     16  C   UNL     1      44.408  28.332  85.631  0.00  0.00    +0.000 C 
ATOM     17  C   UNL     1      48.071  24.487  86.315  0.00  0.00    +0.000 C 
ATOM     18  C   UNL     1      46.988  26.264  87.667  0.00  0.00    +0.000 A 
ATOM     19  C   UNL     1      48.126  25.497  87.381  0.00  0.00    +0.000 A 
ATOM     20  C   UNL     1      47.018  27.205  88.719  0.00  0.00    +0.000 A 
ATOM     21  C   UNL     1      49.309  25.676  88.116  0.00  0.00    +0.000 A 
ATOM     22  C   UNL     1      48.190  27.389  89.460  0.00  0.00    +0.000 A 
ATOM     23  C   UNL     1      49.335  26.616  89.143  0.00  0.00    +0.000 A 
ATOM     24  C   UNL     1      50.455  26.889  89.968  0.00  0.00    +0.000 C 
ATOM     25  C   UNL     1      49.355  28.529  91.355  0.00  0.00    +0.000 C 
ATOM     26  C   UNL     1      50.436  27.671  90.867  0.00  0.00    +0.000 C 
ATOM     27  C   UNL     1      48.917  28.153  92.792  0.00  0.00    +0.000 C 
ENDROOT
BRANCH  21  28
ATOM     28  O   UNL     1      50.451  24.962  87.869  0.00  0.00    +0.000 OA
ATOM     29  H   UNL     1      50.279  24.002  87.999  0.00  0.00    +0.000 HD
ENDBRANCH  21  28
BRANCH   8  30
ATOM     30  C   UNL     1      43.766  24.104  86.526  0.00  0.00    +0.000 C 
ATOM     31  C   UNL     1      43.167  23.222  87.633  0.00  0.00    +0.000 C 
BRANCH  31  32
ATOM     32  C   UNL     1      42.610  22.475  88.544  0.00  0.00    +0.000 C 
ATOM     33  C   UNL     1      42.635  20.986  88.249  0.00  0.00    +0.000 C 
BRANCH  32  35
ATOM     34  O   UNL     1      41.453  24.168  89.818  0.00  0.00    +0.000 OA
ATOM     35  C   UNL     1      42.026  23.090  89.766  0.00  0.00    +0.000 C 
BRANCH  35  36
ATOM     36  O   UNL     1      42.170  22.347  90.884  0.00  0.00    +0.000 OA
ATOM     37  H   UNL     1      42.939  22.734  91.352  0.00  0.00    +0.000 HD
ENDBRANCH  35  36
ENDBRANCH  32  35
ENDBRANCH  31  32
ENDBRANCH   8  30
BRANCH  20  38
ATOM     38  C   UNL     1      45.848  27.976  89.024  0.00  0.00    +0.000 C 
ATOM     39  C   UNL     1      44.577  28.781  89.334  0.00  0.00    +0.000 C 
BRANCH  39  40
ATOM     40  C   UNL     1      43.493  29.445  89.589  0.00  0.00    +0.000 C 
ATOM     41  C   UNL     1      42.289  29.250  88.717  0.00  0.00    +0.000 C 
ATOM     42  C   UNL     1      43.370  30.201  90.876  0.00  0.00    +0.000 C 
ENDBRANCH  39  40
ENDBRANCH  20  38
BRANCH  25  43
ATOM     43  C   UNL     1      49.719  29.957  91.281  0.00  0.00    +0.000 C 
BRANCH  43  44
ATOM     44  C   UNL     1      50.089  31.444  91.207  0.00  0.00    +0.000 C 
ATOM     45  C   UNL     1      50.458  32.933  91.132  0.00  0.00    +0.000 C 
BRANCH  45  46
ATOM     46  C   UNL     1      50.769  34.189  91.061  0.00  0.00    +0.000 C 
ATOM     47  C   UNL     1      49.731  35.226  91.363  0.00  0.00    +0.000 C 
ATOM     48  C   UNL     1      52.098  34.602  90.509  0.00  0.00    +0.000 C 
ENDBRANCH  45  46
ENDBRANCH  43  44
ENDBRANCH  25  43
TORSDOF 10
ENDMDL
