MODEL 1
REMARK VINA RESULT:      -8.1      0.000      0.000
REMARK  Name = AFLATOXIN.pdbqt.pdb
REMARK  1 active torsions:
REMARK  status: ('A' for Active; 'I' for Inactive)
REMARK    1  A    between atoms: C_15  and  O_23
REMARK                            x       y       z     vdW  Elec       q    Type
REMARK                         _______ _______ _______ _____ _____    ______ ____
ROOT
ATOM      1  O   UNL     1      56.199  35.322  80.513  0.00  0.00    +0.000 OA
ATOM      2  O   UNL     1      57.379  33.940  82.188  0.00  0.00    +0.000 OA
ATOM      3  O   UNL     1      59.917  34.918  77.652  0.00  0.00    +0.000 OA
ATOM      4  O   UNL     1      61.193  38.127  74.053  0.00  0.00    +0.000 OA
ATOM      5  O   UNL     1      61.636  34.481  76.262  0.00  0.00    +0.000 OA
ATOM      6  O   UNL     1      62.443  36.312  74.505  0.00  0.00    +0.000 OA
ATOM      7  C   UNL     1      58.097  34.075  79.960  0.00  0.00    +0.000 C 
ATOM      8  C   UNL     1      57.993  35.183  79.032  0.00  0.00    +0.000 A 
ATOM      9  C   UNL     1      56.935  34.189  80.876  0.00  0.00    +0.000 C 
ATOM     10  C   UNL     1      56.826  35.860  79.400  0.00  0.00    +0.000 A 
ATOM     11  C   UNL     1      58.770  35.642  77.985  0.00  0.00    +0.000 A 
ATOM     12  C   UNL     1      58.400  36.783  77.275  0.00  0.00    +0.000 A 
ATOM     13  C   UNL     1      59.197  33.697  80.773  0.00  0.00    +0.000 C 
ATOM     14  C   UNL     1      59.320  37.221  76.210  0.00  0.00    +0.000 A 
ATOM     15  C   UNL     1      57.185  37.427  77.644  0.00  0.00    +0.000 A 
ATOM     16  C   UNL     1      56.406  36.986  78.730  0.00  0.00    +0.000 A 
ATOM     17  C   UNL     1      59.114  38.422  75.496  0.00  0.00    +0.000 A 
ATOM     18  C   UNL     1      60.435  36.514  75.861  0.00  0.00    +0.000 A 
ATOM     19  C   UNL     1      58.634  33.670  81.827  0.00  0.00    +0.000 C 
ATOM     20  C   UNL     1      60.108  38.747  74.453  0.00  0.00    +0.000 A 
ATOM     21  C   UNL     1      60.730  35.241  76.571  0.00  0.00    +0.000 A 
ATOM     22  C   UNL     1      61.432  36.956  74.763  0.00  0.00    +0.000 A 
ENDROOT
BRANCH  15  23
ATOM     23  O   UNL     1      56.768  38.571  76.999  0.00  0.00    +0.000 OA
ATOM     24  C   UNL     1      55.364  38.639  76.962  0.00  0.00    +0.000 C 
ENDBRANCH  15  23
TORSDOF 1
ENDMDL
MODEL 2
REMARK VINA RESULT:      -7.3      2.049      6.776
REMARK  Name = AFLATOXIN.pdbqt.pdb
REMARK  1 active torsions:
REMARK  status: ('A' for Active; 'I' for Inactive)
REMARK    1  A    between atoms: C_15  and  O_23
REMARK                            x       y       z     vdW  Elec       q    Type
REMARK                         _______ _______ _______ _____ _____    ______ ____
ROOT
ATOM      1  O   UNL     1      58.393  37.375  73.116  0.00  0.00    +0.000 OA
ATOM      2  O   UNL     1      57.142  39.456  72.660  0.00  0.00    +0.000 OA
ATOM      3  O   UNL     1      56.351  37.149  77.353  0.00  0.00    +0.000 OA
ATOM      4  O   UNL     1      58.202  34.838  81.366  0.00  0.00    +0.000 OA
ATOM      5  O   UNL     1      55.157  36.996  79.258  0.00  0.00    +0.000 OA
ATOM      6  O   UNL     1      56.257  35.965  81.453  0.00  0.00    +0.000 OA
ATOM      7  C   UNL     1      56.578  38.031  74.434  0.00  0.00    +0.000 C 
ATOM      8  C   UNL     1      57.437  37.182  75.233  0.00  0.00    +0.000 A 
ATOM      9  C   UNL     1      57.210  38.119  73.094  0.00  0.00    +0.000 C 
ATOM     10  C   UNL     1      58.476  36.803  74.376  0.00  0.00    +0.000 A 
ATOM     11  C   UNL     1      57.420  36.752  76.547  0.00  0.00    +0.000 A 
ATOM     12  C   UNL     1      58.433  35.930  77.037  0.00  0.00    +0.000 A 
ATOM     13  C   UNL     1      56.098  39.335  74.724  0.00  0.00    +0.000 C 
ATOM     14  C   UNL     1      58.352  35.568  78.463  0.00  0.00    +0.000 A 
ATOM     15  C   UNL     1      59.454  35.526  76.132  0.00  0.00    +0.000 A 
ATOM     16  C   UNL     1      59.499  35.986  74.802  0.00  0.00    +0.000 A 
ATOM     17  C   UNL     1      59.375  34.833  79.105  0.00  0.00    +0.000 A 
ATOM     18  C   UNL     1      57.304  35.932  79.259  0.00  0.00    +0.000 A 
ATOM     19  C   UNL     1      56.462  39.881  73.725  0.00  0.00    +0.000 C 
ATOM     20  C   UNL     1      59.172  34.534  80.537  0.00  0.00    +0.000 A 
ATOM     21  C   UNL     1      56.188  36.715  78.663  0.00  0.00    +0.000 A 
ATOM     22  C   UNL     1      57.198  35.586  80.765  0.00  0.00    +0.000 A 
ENDROOT
BRANCH  15  23
ATOM     23  O   UNL     1      60.498  34.730  76.553  0.00  0.00    +0.000 OA
ATOM     24  C   UNL     1      61.067  34.040  75.468  0.00  0.00    +0.000 C 
ENDBRANCH  15  23
TORSDOF 1
ENDMDL
MODEL 3
REMARK VINA RESULT:      -7.3      2.400      2.720
REMARK  Name = AFLATOXIN.pdbqt.pdb
REMARK  1 active torsions:
REMARK  status: ('A' for Active; 'I' for Inactive)
REMARK    1  A    between atoms: C_15  and  O_23
REMARK                            x       y       z     vdW  Elec       q    Type
REMARK                         _______ _______ _______ _____ _____    ______ ____
ROOT
ATOM      1  O   UNL     1      56.237  36.489  79.781  0.00  0.00    +0.000 OA
ATOM      2  O   UNL     1      58.091  35.383  80.985  0.00  0.00    +0.000 OA
ATOM      3  O   UNL     1      58.338  35.431  75.701  0.00  0.00    +0.000 OA
ATOM      4  O   UNL     1      57.767  37.889  71.400  0.00  0.00    +0.000 OA
ATOM      5  O   UNL     1      59.291  34.683  73.802  0.00  0.00    +0.000 OA
ATOM      6  O   UNL     1      59.165  36.136  71.574  0.00  0.00    +0.000 OA
ATOM      7  C   UNL     1      57.753  35.088  78.684  0.00  0.00    +0.000 C 
ATOM      8  C   UNL     1      57.205  36.015  77.714  0.00  0.00    +0.000 A 
ATOM      9  C   UNL     1      57.106  35.411  79.979  0.00  0.00    +0.000 C 
ATOM     10  C   UNL     1      56.289  36.793  78.430  0.00  0.00    +0.000 A 
ATOM     11  C   UNL     1      57.423  36.248  76.369  0.00  0.00    +0.000 A 
ATOM     12  C   UNL     1      56.730  37.257  75.703  0.00  0.00    +0.000 A 
ATOM     13  C   UNL     1      59.114  34.819  78.984  0.00  0.00    +0.000 C 
ATOM     14  C   UNL     1      57.071  37.460  74.283  0.00  0.00    +0.000 A 
ATOM     15  C   UNL     1      55.773  38.005  76.446  0.00  0.00    +0.000 A 
ATOM     16  C   UNL     1      55.569  37.798  77.823  0.00  0.00    +0.000 A 
ATOM     17  C   UNL     1      56.520  38.521  73.530  0.00  0.00    +0.000 A 
ATOM     18  C   UNL     1      57.949  36.658  73.613  0.00  0.00    +0.000 A 
ATOM     19  C   UNL     1      59.071  35.003  80.164  0.00  0.00    +0.000 C 
ATOM     20  C   UNL     1      56.941  38.614  72.118  0.00  0.00    +0.000 A 
ATOM     21  C   UNL     1      58.580  35.522  74.336  0.00  0.00    +0.000 A 
ATOM     22  C   UNL     1      58.343  36.856  72.129  0.00  0.00    +0.000 A 
ENDROOT
BRANCH  15  23
ATOM     23  O   UNL     1      55.066  39.031  75.857  0.00  0.00    +0.000 OA
ATOM     24  C   UNL     1      55.299  40.245  76.526  0.00  0.00    +0.000 C 
ENDBRANCH  15  23
TORSDOF 1
ENDMDL
MODEL 4
REMARK VINA RESULT:      -6.7      3.464      7.787
REMARK  Name = AFLATOXIN.pdbqt.pdb
REMARK  1 active torsions:
REMARK  status: ('A' for Active; 'I' for Inactive)
REMARK    1  A    between atoms: C_15  and  O_23
REMARK                            x       y       z     vdW  Elec       q    Type
REMARK                         _______ _______ _______ _____ _____    ______ ____
ROOT
ATOM      1  O   UNL     1      57.407  38.536  70.769  0.00  0.00    +0.000 OA
ATOM      2  O   UNL     1      56.363  40.747  70.412  0.00  0.00    +0.000 OA
ATOM      3  O   UNL     1      55.479  38.386  75.062  0.00  0.00    +0.000 OA
ATOM      4  O   UNL     1      57.201  35.774  78.946  0.00  0.00    +0.000 OA
ATOM      5  O   UNL     1      54.332  38.294  76.999  0.00  0.00    +0.000 OA
ATOM      6  O   UNL     1      55.386  37.089  79.128  0.00  0.00    +0.000 OA
ATOM      7  C   UNL     1      55.708  39.332  72.162  0.00  0.00    +0.000 C 
ATOM      8  C   UNL     1      56.500  38.375  72.909  0.00  0.00    +0.000 A 
ATOM      9  C   UNL     1      56.306  39.397  70.806  0.00  0.00    +0.000 C 
ATOM     10  C   UNL     1      57.468  37.920  72.008  0.00  0.00    +0.000 A 
ATOM     11  C   UNL     1      56.477  37.908  74.210  0.00  0.00    +0.000 A 
ATOM     12  C   UNL     1      57.414  36.972  74.644  0.00  0.00    +0.000 A 
ATOM     13  C   UNL     1      55.373  40.667  72.505  0.00  0.00    +0.000 C 
ATOM     14  C   UNL     1      57.339  36.576  76.061  0.00  0.00    +0.000 A 
ATOM     15  C   UNL     1      58.362  36.495  73.694  0.00  0.00    +0.000 A 
ATOM     16  C   UNL     1      58.414  36.990  72.377  0.00  0.00    +0.000 A 
ATOM     17  C   UNL     1      58.300  35.721  76.647  0.00  0.00    +0.000 A 
ATOM     18  C   UNL     1      56.358  37.019  76.901  0.00  0.00    +0.000 A 
ATOM     19  C   UNL     1      55.761  41.205  71.511  0.00  0.00    +0.000 C 
ATOM     20  C   UNL     1      58.110  35.399  78.076  0.00  0.00    +0.000 A 
ATOM     21  C   UNL     1      55.311  37.930  76.364  0.00  0.00    +0.000 A 
ATOM     22  C   UNL     1      56.261  36.639  78.398  0.00  0.00    +0.000 A 
ENDROOT
BRANCH  15  23
ATOM     23  O   UNL     1      59.331  35.585  74.058  0.00  0.00    +0.000 OA
ATOM     24  C   UNL     1      59.353  34.498  73.167  0.00  0.00    +0.000 C 
ENDBRANCH  15  23
TORSDOF 1
ENDMDL
MODEL 5
REMARK VINA RESULT:      -6.6      2.421      5.602
REMARK  Name = AFLATOXIN.pdbqt.pdb
REMARK  1 active torsions:
REMARK  status: ('A' for Active; 'I' for Inactive)
REMARK    1  A    between atoms: C_15  and  O_23
REMARK                            x       y       z     vdW  Elec       q    Type
REMARK                         _______ _______ _______ _____ _____    ______ ____
ROOT
ATOM      1  O   UNL     1      56.165  37.080  75.328  0.00  0.00    +0.000 OA
ATOM      2  O   UNL     1      55.391  38.033  73.183  0.00  0.00    +0.000 OA
ATOM      3  O   UNL     1      60.541  38.483  74.301  0.00  0.00    +0.000 OA
ATOM      4  O   UNL     1      64.745  36.457  76.059  0.00  0.00    +0.000 OA
ATOM      5  O   UNL     1      62.550  39.391  73.837  0.00  0.00    +0.000 OA
ATOM      6  O   UNL     1      64.787  38.160  74.591  0.00  0.00    +0.000 OA
ATOM      7  C   UNL     1      57.491  38.551  74.087  0.00  0.00    +0.000 C 
ATOM      8  C   UNL     1      58.362  37.731  74.904  0.00  0.00    +0.000 A 
ATOM      9  C   UNL     1      56.105  38.118  74.393  0.00  0.00    +0.000 C 
ATOM     10  C   UNL     1      57.505  36.905  75.638  0.00  0.00    +0.000 A 
ATOM     11  C   UNL     1      59.733  37.624  75.048  0.00  0.00    +0.000 A 
ATOM     12  C   UNL     1      60.283  36.695  75.930  0.00  0.00    +0.000 A 
ATOM     13  C   UNL     1      57.531  38.766  72.685  0.00  0.00    +0.000 C 
ATOM     14  C   UNL     1      61.754  36.622  75.974  0.00  0.00    +0.000 A 
ATOM     15  C   UNL     1      59.385  35.897  76.695  0.00  0.00    +0.000 A 
ATOM     16  C   UNL     1      57.989  35.976  76.530  0.00  0.00    +0.000 A 
ATOM     17  C   UNL     1      62.428  35.647  76.744  0.00  0.00    +0.000 A 
ATOM     18  C   UNL     1      62.557  37.468  75.265  0.00  0.00    +0.000 A 
ATOM     19  C   UNL     1      56.401  38.471  72.431  0.00  0.00    +0.000 C 
ATOM     20  C   UNL     1      63.904  35.682  76.703  0.00  0.00    +0.000 A 
ATOM     21  C   UNL     1      61.925  38.519  74.422  0.00  0.00    +0.000 A 
ATOM     22  C   UNL     1      64.103  37.405  75.272  0.00  0.00    +0.000 A 
ENDROOT
BRANCH  15  23
ATOM     23  O   UNL     1      59.858  34.945  77.572  0.00  0.00    +0.000 OA
ATOM     24  C   UNL     1      59.316  35.136  78.855  0.00  0.00    +0.000 C 
ENDBRANCH  15  23
TORSDOF 1
ENDMDL
MODEL 6
REMARK VINA RESULT:      -6.5      2.504      6.144
REMARK  Name = AFLATOXIN.pdbqt.pdb
REMARK  1 active torsions:
REMARK  status: ('A' for Active; 'I' for Inactive)
REMARK    1  A    between atoms: C_15  and  O_23
REMARK                            x       y       z     vdW  Elec       q    Type
REMARK                         _______ _______ _______ _____ _____    ______ ____
ROOT
ATOM      1  O   UNL     1      55.322  40.330  74.183  0.00  0.00    +0.000 OA
ATOM      2  O   UNL     1      55.362  40.448  71.715  0.00  0.00    +0.000 OA
ATOM      3  O   UNL     1      59.463  38.091  74.083  0.00  0.00    +0.000 OA
ATOM      4  O   UNL     1      61.197  35.002  77.593  0.00  0.00    +0.000 OA
ATOM      5  O   UNL     1      61.544  37.238  73.953  0.00  0.00    +0.000 OA
ATOM      6  O   UNL     1      62.359  35.412  75.711  0.00  0.00    +0.000 OA
ATOM      7  C   UNL     1      57.271  39.907  72.964  0.00  0.00    +0.000 C 
ATOM      8  C   UNL     1      57.367  39.213  74.233  0.00  0.00    +0.000 A 
ATOM      9  C   UNL     1      55.967  40.615  72.975  0.00  0.00    +0.000 C 
ATOM     10  C   UNL     1      56.190  39.537  74.916  0.00  0.00    +0.000 A 
ATOM     11  C   UNL     1      58.300  38.369  74.804  0.00  0.00    +0.000 A 
ATOM     12  C   UNL     1      58.088  37.832  76.073  0.00  0.00    +0.000 A 
ATOM     13  C   UNL     1      57.420  39.385  71.653  0.00  0.00    +0.000 C 
ATOM     14  C   UNL     1      59.116  36.903  76.573  0.00  0.00    +0.000 A 
ATOM     15  C   UNL     1      56.902  38.212  76.763  0.00  0.00    +0.000 A 
ATOM     16  C   UNL     1      55.929  39.044  76.174  0.00  0.00    +0.000 A 
ATOM     17  C   UNL     1      58.962  36.208  77.794  0.00  0.00    +0.000 A 
ATOM     18  C   UNL     1      60.267  36.637  75.888  0.00  0.00    +0.000 A 
ATOM     19  C   UNL     1      56.386  39.771  71.194  0.00  0.00    +0.000 C 
ATOM     20  C   UNL     1      60.066  35.308  78.183  0.00  0.00    +0.000 A 
ATOM     21  C   UNL     1      60.504  37.321  74.589  0.00  0.00    +0.000 A 
ATOM     22  C   UNL     1      61.358  35.652  76.375  0.00  0.00    +0.000 A 
ENDROOT
BRANCH  15  23
ATOM     23  O   UNL     1      56.616  37.704  78.012  0.00  0.00    +0.000 OA
ATOM     24  C   UNL     1      55.401  37.000  77.997  0.00  0.00    +0.000 C 
ENDBRANCH  15  23
TORSDOF 1
ENDMDL
MODEL 7
REMARK VINA RESULT:      -6.5     16.937     18.819
REMARK  Name = AFLATOXIN.pdbqt.pdb
REMARK  1 active torsions:
REMARK  status: ('A' for Active; 'I' for Inactive)
REMARK    1  A    between atoms: C_15  and  O_23
REMARK                            x       y       z     vdW  Elec       q    Type
REMARK                         _______ _______ _______ _____ _____    ______ ____
ROOT
ATOM      1  O   UNL     1      49.807  22.859  85.299  0.00  0.00    +0.000 OA
ATOM      2  O   UNL     1      50.922  24.105  87.119  0.00  0.00    +0.000 OA
ATOM      3  O   UNL     1      46.680  26.358  84.904  0.00  0.00    +0.000 OA
ATOM      4  O   UNL     1      42.047  25.943  83.106  0.00  0.00    +0.000 OA
ATOM      5  O   UNL     1      45.375  28.174  84.629  0.00  0.00    +0.000 OA
ATOM      6  O   UNL     1      42.831  27.900  83.890  0.00  0.00    +0.000 OA
ATOM      7  C   UNL     1      49.363  25.120  85.693  0.00  0.00    +0.000 C 
ATOM      8  C   UNL     1      48.211  24.537  85.034  0.00  0.00    +0.000 A 
ATOM      9  C   UNL     1      50.359  24.029  85.831  0.00  0.00    +0.000 C 
ATOM     10  C   UNL     1      48.559  23.203  84.802  0.00  0.00    +0.000 A 
ATOM     11  C   UNL     1      46.968  25.013  84.661  0.00  0.00    +0.000 A 
ATOM     12  C   UNL     1      46.044  24.173  84.043  0.00  0.00    +0.000 A 
ATOM     13  C   UNL     1      49.416  25.852  86.907  0.00  0.00    +0.000 C 
ATOM     14  C   UNL     1      44.729  24.760  83.731  0.00  0.00    +0.000 A 
ATOM     15  C   UNL     1      46.441  22.831  83.781  0.00  0.00    +0.000 A 
ATOM     16  C   UNL     1      47.691  22.329  84.188  0.00  0.00    +0.000 A 
ATOM     17  C   UNL     1      43.671  23.983  83.207  0.00  0.00    +0.000 A 
ATOM     18  C   UNL     1      44.439  26.077  83.945  0.00  0.00    +0.000 A 
ATOM     19  C   UNL     1      50.250  25.203  87.465  0.00  0.00    +0.000 C 
ATOM     20  C   UNL     1      42.405  24.692  82.936  0.00  0.00    +0.000 A 
ATOM     21  C   UNL     1      45.495  26.964  84.503  0.00  0.00    +0.000 A 
ATOM     22  C   UNL     1      43.063  26.721  83.647  0.00  0.00    +0.000 A 
ENDROOT
BRANCH  15  23
ATOM     23  O   UNL     1      45.571  21.939  83.191  0.00  0.00    +0.000 OA
ATOM     24  C   UNL     1      45.818  20.631  83.641  0.00  0.00    +0.000 C 
ENDBRANCH  15  23
TORSDOF 1
ENDMDL
MODEL 8
REMARK VINA RESULT:      -6.2      5.297      6.995
REMARK  Name = AFLATOXIN.pdbqt.pdb
REMARK  1 active torsions:
REMARK  status: ('A' for Active; 'I' for Inactive)
REMARK    1  A    between atoms: C_15  and  O_23
REMARK                            x       y       z     vdW  Elec       q    Type
REMARK                         _______ _______ _______ _____ _____    ______ ____
ROOT
ATOM      1  O   UNL     1      58.678  37.116  74.182  0.00  0.00    +0.000 OA
ATOM      2  O   UNL     1      60.133  37.091  76.179  0.00  0.00    +0.000 OA
ATOM      3  O   UNL     1      59.982  32.687  73.252  0.00  0.00    +0.000 OA
ATOM      4  O   UNL     1      59.953  30.517  68.762  0.00  0.00    +0.000 OA
ATOM      5  O   UNL     1      60.478  30.503  73.016  0.00  0.00    +0.000 OA
ATOM      6  O   UNL     1      60.684  29.427  70.589  0.00  0.00    +0.000 OA
ATOM      7  C   UNL     1      59.543  35.125  75.047  0.00  0.00    +0.000 C 
ATOM      8  C   UNL     1      59.269  34.928  73.638  0.00  0.00    +0.000 A 
ATOM      9  C   UNL     1      59.143  36.519  75.358  0.00  0.00    +0.000 C 
ATOM     10  C   UNL     1      58.727  36.140  73.198  0.00  0.00    +0.000 A 
ATOM     11  C   UNL     1      59.451  33.880  72.756  0.00  0.00    +0.000 A 
ATOM     12  C   UNL     1      59.092  34.011  71.415  0.00  0.00    +0.000 A 
ATOM     13  C   UNL     1      60.750  34.898  75.758  0.00  0.00    +0.000 C 
ATOM     14  C   UNL     1      59.373  32.857  70.544  0.00  0.00    +0.000 A 
ATOM     15  C   UNL     1      58.504  35.242  71.005  0.00  0.00    +0.000 A 
ATOM     16  C   UNL     1      58.347  36.326  71.889  0.00  0.00    +0.000 A 
ATOM     17  C   UNL     1      59.158  32.907  69.148  0.00  0.00    +0.000 A 
ATOM     18  C   UNL     1      59.874  31.678  71.018  0.00  0.00    +0.000 A 
ATOM     19  C   UNL     1      60.862  35.977  76.259  0.00  0.00    +0.000 C 
ATOM     20  C   UNL     1      59.478  31.682  68.388  0.00  0.00    +0.000 A 
ATOM     21  C   UNL     1      60.136  31.545  72.477  0.00  0.00    +0.000 A 
ATOM     22  C   UNL     1      60.199  30.454  70.128  0.00  0.00    +0.000 A 
ENDROOT
BRANCH  15  23
ATOM     23  O   UNL     1      58.144  35.449  69.691  0.00  0.00    +0.000 OA
ATOM     24  C   UNL     1      57.244  36.524  69.585  0.00  0.00    +0.000 C 
ENDBRANCH  15  23
TORSDOF 1
ENDMDL
MODEL 9
REMARK VINA RESULT:      -5.9     56.687     59.467
REMARK  Name = AFLATOXIN.pdbqt.pdb
REMARK  1 active torsions:
REMARK  status: ('A' for Active; 'I' for Inactive)
REMARK    1  A    between atoms: C_15  and  O_23
REMARK                            x       y       z     vdW  Elec       q    Type
REMARK                         _______ _______ _______ _____ _____    ______ ____
ROOT
ATOM      1  O   UNL     1       9.897   8.064 103.114  0.00  0.00    +0.000 OA
ATOM      2  O   UNL     1       9.099  10.369 102.719  0.00  0.00    +0.000 OA
ATOM      3  O   UNL     1      12.738   8.473  99.381  0.00  0.00    +0.000 OA
ATOM      4  O   UNL     1      14.467   4.711  96.602  0.00  0.00    +0.000 OA
ATOM      5  O   UNL     1      14.227   8.839  97.731  0.00  0.00    +0.000 OA
ATOM      6  O   UNL     1      14.954   6.852  96.114  0.00  0.00    +0.000 OA
ATOM      7  C   UNL     1      11.029   9.529 101.688  0.00  0.00    +0.000 C 
ATOM      8  C   UNL     1      11.331   8.171 101.280  0.00  0.00    +0.000 A 
ATOM      9  C   UNL     1      10.128   9.420 102.862  0.00  0.00    +0.000 C 
ATOM     10  C   UNL     1      10.651   7.356 102.191  0.00  0.00    +0.000 A 
ATOM     11  C   UNL     1      12.068   7.612 100.254  0.00  0.00    +0.000 A 
ATOM     12  C   UNL     1      12.153   6.228 100.113  0.00  0.00    +0.000 A 
ATOM     13  C   UNL     1      10.523  10.599 100.906  0.00  0.00    +0.000 C 
ATOM     14  C   UNL     1      12.920   5.731  98.958  0.00  0.00    +0.000 A 
ATOM     15  C   UNL     1      11.486   5.423 101.080  0.00  0.00    +0.000 A 
ATOM     16  C   UNL     1      10.705   5.984 102.108  0.00  0.00    +0.000 A 
ATOM     17  C   UNL     1      12.986   4.354  98.644  0.00  0.00    +0.000 A 
ATOM     18  C   UNL     1      13.595   6.559  98.108  0.00  0.00    +0.000 A 
ATOM     19  C   UNL     1       9.585  10.885 101.590  0.00  0.00    +0.000 C 
ATOM     20  C   UNL     1      13.789   3.987  97.461  0.00  0.00    +0.000 A 
ATOM     21  C   UNL     1      13.570   8.025  98.363  0.00  0.00    +0.000 A 
ATOM     22  C   UNL     1      14.393   6.071  96.874  0.00  0.00    +0.000 A 
ENDROOT
BRANCH  15  23
ATOM     23  O   UNL     1      11.509   4.048 100.992  0.00  0.00    +0.000 OA
ATOM     24  C   UNL     1      11.962   3.479 102.195  0.00  0.00    +0.000 C 
ENDBRANCH  15  23
TORSDOF 1
ENDMDL
