MODEL 1
REMARK VINA RESULT:      -7.0      0.000      0.000
REMARK  Name = AZD4547.pdbqt.pdb
REMARK  6 active torsions:
REMARK  status: ('A' for Active; 'I' for Inactive)
REMARK    1  A    between atoms: C_3  and  C_23
REMARK    2  A    between atoms: C_8  and  C_11
REMARK    3  A    between atoms: C_12  and  C_13
REMARK    4  A    between atoms: C_15  and  O_19
REMARK    5  A    between atoms: C_17  and  O_21
REMARK    6  A    between atoms: C_26  and  N_29
REMARK                            x       y       z     vdW  Elec       q    Type
REMARK                         _______ _______ _______ _____ _____    ______ ____
ROOT
ATOM      1  O   UNL     1      58.544  34.237  81.155  0.00  0.00    +0.000 OA
ATOM      2  N   UNL     1      58.224  36.462  80.601  0.00  0.00    +0.000 N 
ATOM      3  C   UNL     1      58.213  35.380  81.452  0.00  0.00    +0.000 C 
ATOM      4  H   UNL     1      57.940  37.386  80.890  0.00  0.00    +0.000 HD
ATOM      5  C   UNL     1      58.618  36.412  79.286  0.00  0.00    +0.000 A 
ATOM      6  N   UNL     1      58.583  37.535  78.559  0.00  0.00    +0.000 NA
ATOM      7  N   UNL     1      59.021  37.144  77.348  0.00  0.00    +0.000 N 
ATOM      8  C   UNL     1      59.335  35.819  77.280  0.00  0.00    +0.000 A 
ATOM      9  H   UNL     1      59.084  37.835  76.609  0.00  0.00    +0.000 HD
ATOM     10  C   UNL     1      59.082  35.309  78.529  0.00  0.00    +0.000 A 
ENDROOT
BRANCH   3  11
ATOM     11  C   UNL     1      57.755  35.648  82.838  0.00  0.00    +0.000 A 
ATOM     12  C   UNL     1      57.987  34.681  83.815  0.00  0.00    +0.000 A 
ATOM     13  C   UNL     1      57.571  34.898  85.127  0.00  0.00    +0.000 A 
ATOM     14  C   UNL     1      56.903  36.075  85.490  0.00  0.00    +0.000 A 
ATOM     15  C   UNL     1      56.695  37.044  84.499  0.00  0.00    +0.000 A 
ATOM     16  C   UNL     1      57.109  36.832  83.184  0.00  0.00    +0.000 A 
BRANCH  14  17
ATOM     17  N   UNL     1      56.521  36.313  86.831  0.00  0.00    +0.000 N 
ATOM     18  C   UNL     1      55.678  35.312  87.509  0.00  0.00    +0.000 C 
ATOM     19  C   UNL     1      54.457  35.340  88.244  0.00  0.00    +0.000 C 
ATOM     20  N   UNL     1      53.838  36.617  88.405  0.00  0.00    +0.000 N 
ATOM     21  C   UNL     1      53.822  34.115  88.796  0.00  0.00    +0.000 C 
ATOM     22  C   UNL     1      54.483  37.749  87.822  0.00  0.00    +0.000 C 
ATOM     23  H   UNL     1      52.961  36.711  88.893  0.00  0.00    +0.000 HD
ATOM     24  C   UNL     1      55.702  37.501  87.125  0.00  0.00    +0.000 C 
ATOM     25  C   UNL     1      53.872  39.101  87.912  0.00  0.00    +0.000 C 
ENDBRANCH  14  17
ENDBRANCH   3  11
BRANCH   8  26
ATOM     26  C   UNL     1      59.820  35.152  76.130  0.00  0.00    +0.000 C 
ATOM     27  C   UNL     1      60.342  34.427  74.884  0.00  0.00    +0.000 C 
BRANCH  27  28
ATOM     28  C   UNL     1      60.818  33.750  73.725  0.00  0.00    +0.000 A 
ATOM     29  C   UNL     1      60.000  32.832  73.072  0.00  0.00    +0.000 A 
ATOM     30  C   UNL     1      60.460  32.169  71.932  0.00  0.00    +0.000 A 
ATOM     31  C   UNL     1      61.743  32.440  71.453  0.00  0.00    +0.000 A 
ATOM     32  C   UNL     1      62.569  33.356  72.108  0.00  0.00    +0.000 A 
ATOM     33  C   UNL     1      62.098  34.012  73.246  0.00  0.00    +0.000 A 
BRANCH  30  34
ATOM     34  O   UNL     1      59.736  31.253  71.208  0.00  0.00    +0.000 OA
ATOM     35  C   UNL     1      60.486  30.233  70.611  0.00  0.00    +0.000 C 
ENDBRANCH  30  34
BRANCH  32  36
ATOM     36  O   UNL     1      63.809  33.542  71.548  0.00  0.00    +0.000 OA
ATOM     37  C   UNL     1      64.793  32.626  71.945  0.00  0.00    +0.000 C 
ENDBRANCH  32  36
ENDBRANCH  27  28
ENDBRANCH   8  26
TORSDOF 6
ENDMDL
MODEL 2
REMARK VINA RESULT:      -6.7      1.531      2.107
REMARK  Name = AZD4547.pdbqt.pdb
REMARK  6 active torsions:
REMARK  status: ('A' for Active; 'I' for Inactive)
REMARK    1  A    between atoms: C_3  and  C_23
REMARK    2  A    between atoms: C_8  and  C_11
REMARK    3  A    between atoms: C_12  and  C_13
REMARK    4  A    between atoms: C_15  and  O_19
REMARK    5  A    between atoms: C_17  and  O_21
REMARK    6  A    between atoms: C_26  and  N_29
REMARK                            x       y       z     vdW  Elec       q    Type
REMARK                         _______ _______ _______ _____ _____    ______ ____
ROOT
ATOM      1  O   UNL     1      58.850  34.832  81.305  0.00  0.00    +0.000 OA
ATOM      2  N   UNL     1      57.293  36.453  80.746  0.00  0.00    +0.000 N 
ATOM      3  C   UNL     1      57.984  35.641  81.618  0.00  0.00    +0.000 C 
ATOM      4  H   UNL     1      56.584  37.103  81.051  0.00  0.00    +0.000 HD
ATOM      5  C   UNL     1      57.485  36.472  79.385  0.00  0.00    +0.000 A 
ATOM      6  N   UNL     1      56.749  37.305  78.642  0.00  0.00    +0.000 NA
ATOM      7  N   UNL     1      57.179  37.077  77.388  0.00  0.00    +0.000 N 
ATOM      8  C   UNL     1      58.159  36.134  77.307  0.00  0.00    +0.000 A 
ATOM      9  H   UNL     1      56.760  37.603  76.628  0.00  0.00    +0.000 HD
ATOM     10  C   UNL     1      58.384  35.715  78.595  0.00  0.00    +0.000 A 
ENDROOT
BRANCH   3  11
ATOM     11  C   UNL     1      57.626  35.778  83.052  0.00  0.00    +0.000 A 
ATOM     12  C   UNL     1      57.009  36.954  83.476  0.00  0.00    +0.000 A 
ATOM     13  C   UNL     1      56.660  37.117  84.815  0.00  0.00    +0.000 A 
ATOM     14  C   UNL     1      56.931  36.121  85.761  0.00  0.00    +0.000 A 
ATOM     15  C   UNL     1      57.535  34.938  85.314  0.00  0.00    +0.000 A 
ATOM     16  C   UNL     1      57.887  34.768  83.975  0.00  0.00    +0.000 A 
BRANCH  14  17
ATOM     17  N   UNL     1      56.535  36.270  87.112  0.00  0.00    +0.000 N 
ATOM     18  C   UNL     1      55.721  35.206  87.725  0.00  0.00    +0.000 C 
ATOM     19  C   UNL     1      54.496  35.154  88.453  0.00  0.00    +0.000 C 
ATOM     20  N   UNL     1      53.837  36.400  88.683  0.00  0.00    +0.000 N 
ATOM     21  C   UNL     1      53.896  33.880  88.930  0.00  0.00    +0.000 C 
ATOM     22  C   UNL     1      54.449  37.583  88.170  0.00  0.00    +0.000 C 
ATOM     23  H   UNL     1      52.955  36.439  89.170  0.00  0.00    +0.000 HD
ATOM     24  C   UNL     1      55.679  37.414  87.468  0.00  0.00    +0.000 C 
ATOM     25  C   UNL     1      53.796  38.909  88.334  0.00  0.00    +0.000 C 
ENDBRANCH  14  17
ENDBRANCH   3  11
BRANCH   8  26
ATOM     26  C   UNL     1      58.788  35.707  76.113  0.00  0.00    +0.000 C 
ATOM     27  C   UNL     1      59.465  35.241  74.819  0.00  0.00    +0.000 C 
BRANCH  27  28
ATOM     28  C   UNL     1      60.087  34.802  73.615  0.00  0.00    +0.000 A 
ATOM     29  C   UNL     1      60.996  33.748  73.648  0.00  0.00    +0.000 A 
ATOM     30  C   UNL     1      61.606  33.311  72.470  0.00  0.00    +0.000 A 
ATOM     31  C   UNL     1      61.291  33.938  71.262  0.00  0.00    +0.000 A 
ATOM     32  C   UNL     1      60.385  34.998  71.226  0.00  0.00    +0.000 A 
ATOM     33  C   UNL     1      59.782  35.427  72.410  0.00  0.00    +0.000 A 
BRANCH  30  34
ATOM     34  O   UNL     1      62.507  32.278  72.387  0.00  0.00    +0.000 OA
ATOM     35  C   UNL     1      62.555  31.621  71.152  0.00  0.00    +0.000 C 
ENDBRANCH  30  34
BRANCH  32  36
ATOM     36  O   UNL     1      60.152  35.537  69.984  0.00  0.00    +0.000 OA
ATOM     37  C   UNL     1      58.811  35.551  69.576  0.00  0.00    +0.000 C 
ENDBRANCH  32  36
ENDBRANCH  27  28
ENDBRANCH   8  26
TORSDOF 6
ENDMDL
MODEL 3
REMARK VINA RESULT:      -6.2      8.838     12.309
REMARK  Name = AZD4547.pdbqt.pdb
REMARK  6 active torsions:
REMARK  status: ('A' for Active; 'I' for Inactive)
REMARK    1  A    between atoms: C_3  and  C_23
REMARK    2  A    between atoms: C_8  and  C_11
REMARK    3  A    between atoms: C_12  and  C_13
REMARK    4  A    between atoms: C_15  and  O_19
REMARK    5  A    between atoms: C_17  and  O_21
REMARK    6  A    between atoms: C_26  and  N_29
REMARK                            x       y       z     vdW  Elec       q    Type
REMARK                         _______ _______ _______ _____ _____    ______ ____
ROOT
ATOM      1  O   UNL     1      59.971  36.197  87.079  0.00  0.00    +0.000 OA
ATOM      2  N   UNL     1      58.952  34.895  85.458  0.00  0.00    +0.000 N 
ATOM      3  C   UNL     1      59.824  35.128  86.498  0.00  0.00    +0.000 C 
ATOM      4  H   UNL     1      58.868  33.997  85.007  0.00  0.00    +0.000 HD
ATOM      5  C   UNL     1      58.110  35.841  84.925  0.00  0.00    +0.000 A 
ATOM      6  N   UNL     1      57.308  35.493  83.912  0.00  0.00    +0.000 NA
ATOM      7  N   UNL     1      56.634  36.625  83.637  0.00  0.00    +0.000 N 
ATOM      8  C   UNL     1      56.975  37.675  84.435  0.00  0.00    +0.000 A 
ATOM      9  H   UNL     1      55.950  36.612  82.887  0.00  0.00    +0.000 HD
ATOM     10  C   UNL     1      57.939  37.200  85.289  0.00  0.00    +0.000 A 
ENDROOT
BRANCH   3  11
ATOM     11  C   UNL     1      60.644  33.968  86.928  0.00  0.00    +0.000 A 
ATOM     12  C   UNL     1      61.930  33.832  86.407  0.00  0.00    +0.000 A 
ATOM     13  C   UNL     1      62.729  32.756  86.788  0.00  0.00    +0.000 A 
ATOM     14  C   UNL     1      62.260  31.785  87.682  0.00  0.00    +0.000 A 
ATOM     15  C   UNL     1      60.971  31.948  88.210  0.00  0.00    +0.000 A 
ATOM     16  C   UNL     1      60.167  33.023  87.833  0.00  0.00    +0.000 A 
BRANCH  14  17
ATOM     17  N   UNL     1      63.088  30.718  88.102  0.00  0.00    +0.000 N 
ATOM     18  C   UNL     1      64.334  30.463  87.358  0.00  0.00    +0.000 C 
ATOM     19  C   UNL     1      64.940  29.326  86.748  0.00  0.00    +0.000 C 
ATOM     20  N   UNL     1      64.222  28.095  86.837  0.00  0.00    +0.000 N 
ATOM     21  C   UNL     1      66.235  29.397  86.021  0.00  0.00    +0.000 C 
ATOM     22  C   UNL     1      62.969  28.101  87.520  0.00  0.00    +0.000 C 
ATOM     23  H   UNL     1      64.578  27.254  86.409  0.00  0.00    +0.000 HD
ATOM     24  C   UNL     1      62.542  29.350  88.060  0.00  0.00    +0.000 C 
ATOM     25  C   UNL     1      62.147  26.866  87.611  0.00  0.00    +0.000 C 
ENDBRANCH  14  17
ENDBRANCH   3  11
BRANCH   8  26
ATOM     26  C   UNL     1      56.419  38.975  84.361  0.00  0.00    +0.000 C 
ATOM     27  C   UNL     1      55.820  40.383  84.278  0.00  0.00    +0.000 C 
BRANCH  27  28
ATOM     28  C   UNL     1      55.270  41.694  84.194  0.00  0.00    +0.000 A 
ATOM     29  C   UNL     1      53.902  41.862  84.001  0.00  0.00    +0.000 A 
ATOM     30  C   UNL     1      53.356  43.145  83.924  0.00  0.00    +0.000 A 
ATOM     31  C   UNL     1      54.196  44.255  84.047  0.00  0.00    +0.000 A 
ATOM     32  C   UNL     1      55.569  44.091  84.235  0.00  0.00    +0.000 A 
ATOM     33  C   UNL     1      56.103  42.803  84.311  0.00  0.00    +0.000 A 
BRANCH  30  34
ATOM     34  O   UNL     1      52.024  43.426  83.744  0.00  0.00    +0.000 OA
ATOM     35  C   UNL     1      51.139  42.641  84.491  0.00  0.00    +0.000 C 
ENDBRANCH  30  34
BRANCH  32  36
ATOM     36  O   UNL     1      56.296  45.252  84.342  0.00  0.00    +0.000 OA
ATOM     37  C   UNL     1      57.169  45.516  83.279  0.00  0.00    +0.000 C 
ENDBRANCH  32  36
ENDBRANCH  27  28
ENDBRANCH   8  26
TORSDOF 6
ENDMDL
MODEL 4
REMARK VINA RESULT:      -5.9      8.026     17.002
REMARK  Name = AZD4547.pdbqt.pdb
REMARK  6 active torsions:
REMARK  status: ('A' for Active; 'I' for Inactive)
REMARK    1  A    between atoms: C_3  and  C_23
REMARK    2  A    between atoms: C_8  and  C_11
REMARK    3  A    between atoms: C_12  and  C_13
REMARK    4  A    between atoms: C_15  and  O_19
REMARK    5  A    between atoms: C_17  and  O_21
REMARK    6  A    between atoms: C_26  and  N_29
REMARK                            x       y       z     vdW  Elec       q    Type
REMARK                         _______ _______ _______ _____ _____    ______ ____
ROOT
ATOM      1  O   UNL     1      59.470  29.959  68.518  0.00  0.00    +0.000 OA
ATOM      2  N   UNL     1      58.678  31.868  67.474  0.00  0.00    +0.000 N 
ATOM      3  C   UNL     1      58.926  30.517  67.571  0.00  0.00    +0.000 C 
ATOM      4  H   UNL     1      58.229  32.284  66.672  0.00  0.00    +0.000 HD
ATOM      5  C   UNL     1      59.005  32.790  68.440  0.00  0.00    +0.000 A 
ATOM      6  N   UNL     1      58.713  34.077  68.227  0.00  0.00    +0.000 NA
ATOM      7  N   UNL     1      59.155  34.692  69.340  0.00  0.00    +0.000 N 
ATOM      8  C   UNL     1      59.714  33.844  70.249  0.00  0.00    +0.000 A 
ATOM      9  H   UNL     1      59.043  35.697  69.416  0.00  0.00    +0.000 HD
ATOM     10  C   UNL     1      59.634  32.592  69.694  0.00  0.00    +0.000 A 
ENDROOT
BRANCH   3  11
ATOM     11  C   UNL     1      58.489  29.692  66.417  0.00  0.00    +0.000 A 
ATOM     12  C   UNL     1      57.467  28.764  66.611  0.00  0.00    +0.000 A 
ATOM     13  C   UNL     1      57.032  27.972  65.550  0.00  0.00    +0.000 A 
ATOM     14  C   UNL     1      57.614  28.077  64.281  0.00  0.00    +0.000 A 
ATOM     15  C   UNL     1      58.628  29.028  64.100  0.00  0.00    +0.000 A 
ATOM     16  C   UNL     1      59.068  29.824  65.157  0.00  0.00    +0.000 A 
BRANCH  14  17
ATOM     17  N   UNL     1      57.141  27.304  63.194  0.00  0.00    +0.000 N 
ATOM     18  C   UNL     1      55.731  26.877  63.200  0.00  0.00    +0.000 C 
ATOM     19  C   UNL     1      55.043  25.639  63.037  0.00  0.00    +0.000 C 
ATOM     20  N   UNL     1      55.851  24.483  62.811  0.00  0.00    +0.000 N 
ATOM     21  C   UNL     1      53.563  25.522  63.128  0.00  0.00    +0.000 C 
ATOM     22  C   UNL     1      57.267  24.658  62.767  0.00  0.00    +0.000 C 
ATOM     23  H   UNL     1      55.435  23.570  62.709  0.00  0.00    +0.000 HD
ATOM     24  C   UNL     1      57.753  25.985  62.954  0.00  0.00    +0.000 C 
ATOM     25  C   UNL     1      58.171  23.492  62.580  0.00  0.00    +0.000 C 
ENDBRANCH  14  17
ENDBRANCH   3  11
BRANCH   8  26
ATOM     26  C   UNL     1      60.253  34.227  71.500  0.00  0.00    +0.000 C 
ATOM     27  C   UNL     1      60.835  34.644  72.855  0.00  0.00    +0.000 C 
BRANCH  27  28
ATOM     28  C   UNL     1      61.371  35.041  74.114  0.00  0.00    +0.000 A 
ATOM     29  C   UNL     1      60.637  34.829  75.278  0.00  0.00    +0.000 A 
ATOM     30  C   UNL     1      61.159  35.211  76.516  0.00  0.00    +0.000 A 
ATOM     31  C   UNL     1      62.424  35.801  76.573  0.00  0.00    +0.000 A 
ATOM     32  C   UNL     1      63.161  36.020  75.408  0.00  0.00    +0.000 A 
ATOM     33  C   UNL     1      62.628  35.634  74.177  0.00  0.00    +0.000 A 
BRANCH  30  34
ATOM     34  O   UNL     1      60.528  35.043  77.724  0.00  0.00    +0.000 OA
ATOM     35  C   UNL     1      59.136  35.191  77.699  0.00  0.00    +0.000 C 
ENDBRANCH  30  34
BRANCH  32  36
ATOM     36  O   UNL     1      64.390  36.606  75.584  0.00  0.00    +0.000 OA
ATOM     37  C   UNL     1      64.386  38.007  75.645  0.00  0.00    +0.000 C 
ENDBRANCH  32  36
ENDBRANCH  27  28
ENDBRANCH   8  26
TORSDOF 6
ENDMDL
MODEL 5
REMARK VINA RESULT:      -5.9     53.796     57.221
REMARK  Name = AZD4547.pdbqt.pdb
REMARK  6 active torsions:
REMARK  status: ('A' for Active; 'I' for Inactive)
REMARK    1  A    between atoms: C_3  and  C_23
REMARK    2  A    between atoms: C_8  and  C_11
REMARK    3  A    between atoms: C_12  and  C_13
REMARK    4  A    between atoms: C_15  and  O_19
REMARK    5  A    between atoms: C_17  and  O_21
REMARK    6  A    between atoms: C_26  and  N_29
REMARK                            x       y       z     vdW  Elec       q    Type
REMARK                         _______ _______ _______ _____ _____    ______ ____
ROOT
ATOM      1  O   UNL     1      14.137   6.068  96.563  0.00  0.00    +0.000 OA
ATOM      2  N   UNL     1      13.160   4.932  98.329  0.00  0.00    +0.000 N 
ATOM      3  C   UNL     1      13.687   6.040  97.703  0.00  0.00    +0.000 C 
ATOM      4  H   UNL     1      12.804   4.957  99.272  0.00  0.00    +0.000 HD
ATOM      5  C   UNL     1      13.059   3.689  97.752  0.00  0.00    +0.000 A 
ATOM      6  N   UNL     1      12.529   2.689  98.465  0.00  0.00    +0.000 NA
ATOM      7  N   UNL     1      12.578   1.639  97.625  0.00  0.00    +0.000 N 
ATOM      8  C   UNL     1      13.116   1.934  96.408  0.00  0.00    +0.000 A 
ATOM      9  H   UNL     1      12.224   0.744  97.946  0.00  0.00    +0.000 HD
ATOM     10  C   UNL     1      13.444   3.266  96.456  0.00  0.00    +0.000 A 
ENDROOT
BRANCH   3  11
ATOM     11  C   UNL     1      13.701   7.291  98.501  0.00  0.00    +0.000 A 
ATOM     12  C   UNL     1      14.453   8.369  98.036  0.00  0.00    +0.000 A 
ATOM     13  C   UNL     1      14.489   9.559  98.759  0.00  0.00    +0.000 A 
ATOM     14  C   UNL     1      13.793   9.696  99.967  0.00  0.00    +0.000 A 
ATOM     15  C   UNL     1      13.028   8.608 100.410  0.00  0.00    +0.000 A 
ATOM     16  C   UNL     1      12.987   7.414  99.690  0.00  0.00    +0.000 A 
BRANCH  14  17
ATOM     17  N   UNL     1      13.795  10.920 100.677  0.00  0.00    +0.000 N 
ATOM     18  C   UNL     1      15.053  11.366 101.301  0.00  0.00    +0.000 C 
ATOM     19  C   UNL     1      15.445  11.804 102.600  0.00  0.00    +0.000 C 
ATOM     20  N   UNL     1      14.421  11.847 103.595  0.00  0.00    +0.000 N 
ATOM     21  C   UNL     1      16.845  12.170 102.938  0.00  0.00    +0.000 C 
ATOM     22  C   UNL     1      13.103  11.451 103.214  0.00  0.00    +0.000 C 
ATOM     23  H   UNL     1      14.629  12.125 104.542  0.00  0.00    +0.000 HD
ATOM     24  C   UNL     1      12.925  11.046 101.858  0.00  0.00    +0.000 C 
ATOM     25  C   UNL     1      11.999  11.429 104.209  0.00  0.00    +0.000 C 
ENDBRANCH  14  17
ENDBRANCH   3  11
BRANCH   8  26
ATOM     26  C   UNL     1      13.282   1.018  95.342  0.00  0.00    +0.000 C 
ATOM     27  C   UNL     1      13.459   0.023  94.190  0.00  0.00    +0.000 C 
BRANCH  27  28
ATOM     28  C   UNL     1      13.617  -0.908  93.123  0.00  0.00    +0.000 A 
ATOM     29  C   UNL     1      14.840  -1.545  92.934  0.00  0.00    +0.000 A 
ATOM     30  C   UNL     1      14.999  -2.462  91.892  0.00  0.00    +0.000 A 
ATOM     31  C   UNL     1      13.919  -2.735  91.049  0.00  0.00    +0.000 A 
ATOM     32  C   UNL     1      12.693  -2.094  91.232  0.00  0.00    +0.000 A 
ATOM     33  C   UNL     1      12.546  -1.180  92.277  0.00  0.00    +0.000 A 
BRANCH  30  34
ATOM     34  O   UNL     1      16.155  -3.152  91.620  0.00  0.00    +0.000 OA
ATOM     35  C   UNL     1      16.823  -3.669  92.735  0.00  0.00    +0.000 C 
ENDBRANCH  30  34
BRANCH  32  36
ATOM     36  O   UNL     1      11.704  -2.440  90.344  0.00  0.00    +0.000 OA
ATOM     37  C   UNL     1      11.720  -3.775  89.916  0.00  0.00    +0.000 C 
ENDBRANCH  32  36
ENDBRANCH  27  28
ENDBRANCH   8  26
TORSDOF 6
ENDMDL
MODEL 6
REMARK VINA RESULT:      -5.8     54.927     58.446
REMARK  Name = AZD4547.pdbqt.pdb
REMARK  6 active torsions:
REMARK  status: ('A' for Active; 'I' for Inactive)
REMARK    1  A    between atoms: C_3  and  C_23
REMARK    2  A    between atoms: C_8  and  C_11
REMARK    3  A    between atoms: C_12  and  C_13
REMARK    4  A    between atoms: C_15  and  O_19
REMARK    5  A    between atoms: C_17  and  O_21
REMARK    6  A    between atoms: C_26  and  N_29
REMARK                            x       y       z     vdW  Elec       q    Type
REMARK                         _______ _______ _______ _____ _____    ______ ____
ROOT
ATOM      1  O   UNL     1      12.482   3.737  98.310  0.00  0.00    +0.000 OA
ATOM      2  N   UNL     1      13.954   4.607  96.748  0.00  0.00    +0.000 N 
ATOM      3  C   UNL     1      13.194   3.611  97.319  0.00  0.00    +0.000 C 
ATOM      4  H   UNL     1      14.528   4.456  95.933  0.00  0.00    +0.000 HD
ATOM      5  C   UNL     1      14.018   5.899  97.213  0.00  0.00    +0.000 A 
ATOM      6  N   UNL     1      14.797   6.777  96.572  0.00  0.00    +0.000 NA
ATOM      7  N   UNL     1      14.632   7.916  97.269  0.00  0.00    +0.000 N 
ATOM      8  C   UNL     1      13.779   7.795  98.325  0.00  0.00    +0.000 A 
ATOM      9  H   UNL     1      15.134   8.746  96.969  0.00  0.00    +0.000 HD
ATOM     10  C   UNL     1      13.359   6.489  98.320  0.00  0.00    +0.000 A 
ENDROOT
BRANCH   3  11
ATOM     11  C   UNL     1      13.263   2.284  96.659  0.00  0.00    +0.000 A 
ATOM     12  C   UNL     1      13.092   2.218  95.277  0.00  0.00    +0.000 A 
ATOM     13  C   UNL     1      13.150   0.988  94.623  0.00  0.00    +0.000 A 
ATOM     14  C   UNL     1      13.363  -0.201  95.332  0.00  0.00    +0.000 A 
ATOM     15  C   UNL     1      13.551  -0.113  96.719  0.00  0.00    +0.000 A 
ATOM     16  C   UNL     1      13.494   1.114  97.379  0.00  0.00    +0.000 A 
BRANCH  14  17
ATOM     17  N   UNL     1      13.466  -1.442  94.662  0.00  0.00    +0.000 N 
ATOM     18  C   UNL     1      14.784  -1.854  94.148  0.00  0.00    +0.000 C 
ATOM     19  C   UNL     1      15.289  -2.312  92.896  0.00  0.00    +0.000 C 
ATOM     20  N   UNL     1      14.346  -2.423  91.829  0.00  0.00    +0.000 N 
ATOM     21  C   UNL     1      16.724  -2.631  92.675  0.00  0.00    +0.000 C 
ATOM     22  C   UNL     1      12.990  -2.070  92.097  0.00  0.00    +0.000 C 
ATOM     23  H   UNL     1      14.636  -2.718  90.909  0.00  0.00    +0.000 HD
ATOM     24  C   UNL     1      12.694  -1.635  93.423  0.00  0.00    +0.000 C 
ATOM     25  C   UNL     1      11.965  -2.119  91.022  0.00  0.00    +0.000 C 
ENDBRANCH  14  17
ENDBRANCH   3  11
BRANCH   8  26
ATOM     26  C   UNL     1      13.428   8.836  99.217  0.00  0.00    +0.000 C 
ATOM     27  C   UNL     1      13.052   9.965 100.183  0.00  0.00    +0.000 C 
BRANCH  27  28
ATOM     28  C   UNL     1      12.711  11.019 101.079  0.00  0.00    +0.000 A 
ATOM     29  C   UNL     1      13.716  11.749 101.706  0.00  0.00    +0.000 A 
ATOM     30  C   UNL     1      13.387  12.787 102.582  0.00  0.00    +0.000 A 
ATOM     31  C   UNL     1      12.043  13.085 102.816  0.00  0.00    +0.000 A 
ATOM     32  C   UNL     1      11.032  12.351 102.194  0.00  0.00    +0.000 A 
ATOM     33  C   UNL     1      11.373  11.317 101.321  0.00  0.00    +0.000 A 
BRANCH  30  34
ATOM     34  O   UNL     1      14.295  13.574 103.246  0.00  0.00    +0.000 OA
ATOM     35  C   UNL     1      13.868  14.877 103.526  0.00  0.00    +0.000 C 
ENDBRANCH  30  34
BRANCH  32  36
ATOM     36  O   UNL     1       9.748  12.733 102.498  0.00  0.00    +0.000 OA
ATOM     37  C   UNL     1       8.743  11.849 102.084  0.00  0.00    +0.000 C 
ENDBRANCH  32  36
ENDBRANCH  27  28
ENDBRANCH   8  26
TORSDOF 6
ENDMDL
MODEL 7
REMARK VINA RESULT:      -5.8     21.007     25.193
REMARK  Name = AZD4547.pdbqt.pdb
REMARK  6 active torsions:
REMARK  status: ('A' for Active; 'I' for Inactive)
REMARK    1  A    between atoms: C_3  and  C_23
REMARK    2  A    between atoms: C_8  and  C_11
REMARK    3  A    between atoms: C_12  and  C_13
REMARK    4  A    between atoms: C_15  and  O_19
REMARK    5  A    between atoms: C_17  and  O_21
REMARK    6  A    between atoms: C_26  and  N_29
REMARK                            x       y       z     vdW  Elec       q    Type
REMARK                         _______ _______ _______ _____ _____    ______ ____
ROOT
ATOM      1  O   UNL     1      37.315  23.302  84.613  0.00  0.00    +0.000 OA
ATOM      2  N   UNL     1      37.812  22.767  82.416  0.00  0.00    +0.000 N 
ATOM      3  C   UNL     1      36.995  22.843  83.522  0.00  0.00    +0.000 C 
ATOM      4  H   UNL     1      37.505  22.377  81.537  0.00  0.00    +0.000 HD
ATOM      5  C   UNL     1      39.114  23.205  82.380  0.00  0.00    +0.000 A 
ATOM      6  N   UNL     1      39.807  23.074  81.244  0.00  0.00    +0.000 NA
ATOM      7  N   UNL     1      41.014  23.589  81.546  0.00  0.00    +0.000 N 
ATOM      8  C   UNL     1      41.111  24.043  82.827  0.00  0.00    +0.000 A 
ATOM      9  H   UNL     1      41.729  23.601  80.827  0.00  0.00    +0.000 HD
ATOM     10  C   UNL     1      39.888  23.806  83.403  0.00  0.00    +0.000 A 
ENDROOT
BRANCH   3  11
ATOM     11  C   UNL     1      35.619  22.316  83.349  0.00  0.00    +0.000 A 
ATOM     12  C   UNL     1      34.792  22.911  82.397  0.00  0.00    +0.000 A 
ATOM     13  C   UNL     1      33.494  22.443  82.208  0.00  0.00    +0.000 A 
ATOM     14  C   UNL     1      32.986  21.385  82.972  0.00  0.00    +0.000 A 
ATOM     15  C   UNL     1      33.837  20.787  83.911  0.00  0.00    +0.000 A 
ATOM     16  C   UNL     1      35.138  21.250  84.106  0.00  0.00    +0.000 A 
BRANCH  14  17
ATOM     17  N   UNL     1      31.683  20.882  82.747  0.00  0.00    +0.000 N 
ATOM     18  C   UNL     1      30.539  21.623  83.308  0.00  0.00    +0.000 C 
ATOM     19  C   UNL     1      29.409  21.293  84.111  0.00  0.00    +0.000 C 
ATOM     20  N   UNL     1      29.286  19.927  84.511  0.00  0.00    +0.000 N 
ATOM     21  C   UNL     1      28.412  22.304  84.553  0.00  0.00    +0.000 C 
ATOM     22  C   UNL     1      30.294  19.013  84.081  0.00  0.00    +0.000 C 
ATOM     23  H   UNL     1      28.525  19.625  85.099  0.00  0.00    +0.000 HD
ATOM     24  C   UNL     1      31.344  19.551  83.280  0.00  0.00    +0.000 C 
ATOM     25  C   UNL     1      30.254  17.586  84.497  0.00  0.00    +0.000 C 
ENDBRANCH  14  17
ENDBRANCH   3  11
BRANCH   8  26
ATOM     26  C   UNL     1      42.263  24.631  83.401  0.00  0.00    +0.000 C 
ATOM     27  C   UNL     1      43.512  25.267  84.020  0.00  0.00    +0.000 C 
BRANCH  27  28
ATOM     28  C   UNL     1      44.680  25.853  84.590  0.00  0.00    +0.000 A 
ATOM     29  C   UNL     1      44.585  27.058  85.280  0.00  0.00    +0.000 A 
ATOM     30  C   UNL     1      45.725  27.635  85.844  0.00  0.00    +0.000 A 
ATOM     31  C   UNL     1      46.956  26.988  85.713  0.00  0.00    +0.000 A 
ATOM     32  C   UNL     1      47.056  25.782  85.018  0.00  0.00    +0.000 A 
ATOM     33  C   UNL     1      45.910  25.216  84.458  0.00  0.00    +0.000 A 
BRANCH  30  34
ATOM     34  O   UNL     1      45.745  28.813  86.549  0.00  0.00    +0.000 OA
ATOM     35  C   UNL     1      45.371  28.714  87.895  0.00  0.00    +0.000 C 
ENDBRANCH  30  34
BRANCH  32  36
ATOM     36  O   UNL     1      48.315  25.237  84.953  0.00  0.00    +0.000 OA
ATOM     37  C   UNL     1      49.250  25.773  85.850  0.00  0.00    +0.000 C 
ENDBRANCH  32  36
ENDBRANCH  27  28
ENDBRANCH   8  26
TORSDOF 6
ENDMDL
MODEL 8
REMARK VINA RESULT:      -5.8     40.416     45.197
REMARK  Name = AZD4547.pdbqt.pdb
REMARK  6 active torsions:
REMARK  status: ('A' for Active; 'I' for Inactive)
REMARK    1  A    between atoms: C_3  and  C_23
REMARK    2  A    between atoms: C_8  and  C_11
REMARK    3  A    between atoms: C_12  and  C_13
REMARK    4  A    between atoms: C_15  and  O_19
REMARK    5  A    between atoms: C_17  and  O_21
REMARK    6  A    between atoms: C_26  and  N_29
REMARK                            x       y       z     vdW  Elec       q    Type
REMARK                         _______ _______ _______ _____ _____    ______ ____
ROOT
ATOM      1  O   UNL     1      20.566  16.430  89.339  0.00  0.00    +0.000 OA
ATOM      2  N   UNL     1      18.575  17.385  90.036  0.00  0.00    +0.000 N 
ATOM      3  C   UNL     1      19.375  16.671  89.173  0.00  0.00    +0.000 C 
ATOM      4  H   UNL     1      17.599  17.561  89.855  0.00  0.00    +0.000 HD
ATOM      5  C   UNL     1      19.005  17.930  91.222  0.00  0.00    +0.000 A 
ATOM      6  N   UNL     1      18.130  18.606  91.975  0.00  0.00    +0.000 NA
ATOM      7  N   UNL     1      18.859  18.995  93.037  0.00  0.00    +0.000 N 
ATOM      8  C   UNL     1      20.160  18.591  92.988  0.00  0.00    +0.000 A 
ATOM      9  H   UNL     1      18.405  19.536  93.765  0.00  0.00    +0.000 HD
ATOM     10  C   UNL     1      20.291  17.893  91.814  0.00  0.00    +0.000 A 
ENDROOT
BRANCH   3  11
ATOM     11  C   UNL     1      18.714  16.163  87.944  0.00  0.00    +0.000 A 
ATOM     12  C   UNL     1      19.442  16.144  86.756  0.00  0.00    +0.000 A 
ATOM     13  C   UNL     1      18.854  15.675  85.583  0.00  0.00    +0.000 A 
ATOM     14  C   UNL     1      17.526  15.230  85.566  0.00  0.00    +0.000 A 
ATOM     15  C   UNL     1      16.815  15.240  86.774  0.00  0.00    +0.000 A 
ATOM     16  C   UNL     1      17.398  15.707  87.951  0.00  0.00    +0.000 A 
BRANCH  14  17
ATOM     17  N   UNL     1      16.944  14.713  84.384  0.00  0.00    +0.000 N 
ATOM     18  C   UNL     1      17.387  13.392  83.905  0.00  0.00    +0.000 C 
ATOM     19  C   UNL     1      17.860  12.865  82.668  0.00  0.00    +0.000 C 
ATOM     20  N   UNL     1      17.957  13.782  81.578  0.00  0.00    +0.000 N 
ATOM     21  C   UNL     1      18.271  11.445  82.502  0.00  0.00    +0.000 C 
ATOM     22  C   UNL     1      17.579  15.138  81.812  0.00  0.00    +0.000 C 
ATOM     23  H   UNL     1      18.306  13.486  80.679  0.00  0.00    +0.000 HD
ATOM     24  C   UNL     1      17.131  15.458  83.128  0.00  0.00    +0.000 C 
ATOM     25  C   UNL     1      17.697  16.157  80.736  0.00  0.00    +0.000 C 
ENDBRANCH  14  17
ENDBRANCH   3  11
BRANCH   8  26
ATOM     26  C   UNL     1      21.139  18.861  93.974  0.00  0.00    +0.000 C 
ATOM     27  C   UNL     1      22.196  19.152  95.044  0.00  0.00    +0.000 C 
BRANCH  27  28
ATOM     28  C   UNL     1      23.173  19.418  96.046  0.00  0.00    +0.000 A 
ATOM     29  C   UNL     1      24.337  18.657  96.100  0.00  0.00    +0.000 A 
ATOM     30  C   UNL     1      25.301  18.917  97.077  0.00  0.00    +0.000 A 
ATOM     31  C   UNL     1      25.087  19.950  97.992  0.00  0.00    +0.000 A 
ATOM     32  C   UNL     1      23.919  20.712  97.945  0.00  0.00    +0.000 A 
ATOM     33  C   UNL     1      22.963  20.442  96.964  0.00  0.00    +0.000 A 
BRANCH  30  34
ATOM     34  O   UNL     1      26.485  18.235  97.217  0.00  0.00    +0.000 OA
ATOM     35  C   UNL     1      27.558  18.736  96.471  0.00  0.00    +0.000 C 
ENDBRANCH  30  34
BRANCH  32  36
ATOM     36  O   UNL     1      23.816  21.700  98.894  0.00  0.00    +0.000 OA
ATOM     37  C   UNL     1      22.659  21.658  99.684  0.00  0.00    +0.000 C 
ENDBRANCH  32  36
ENDBRANCH  27  28
ENDBRANCH   8  26
TORSDOF 6
ENDMDL
MODEL 9
REMARK VINA RESULT:      -5.7     39.649     44.260
REMARK  Name = AZD4547.pdbqt.pdb
REMARK  6 active torsions:
REMARK  status: ('A' for Active; 'I' for Inactive)
REMARK    1  A    between atoms: C_3  and  C_23
REMARK    2  A    between atoms: C_8  and  C_11
REMARK    3  A    between atoms: C_12  and  C_13
REMARK    4  A    between atoms: C_15  and  O_19
REMARK    5  A    between atoms: C_17  and  O_21
REMARK    6  A    between atoms: C_26  and  N_29
REMARK                            x       y       z     vdW  Elec       q    Type
REMARK                         _______ _______ _______ _____ _____    ______ ____
ROOT
ATOM      1  O   UNL     1      21.220  16.814  89.763  0.00  0.00    +0.000 OA
ATOM      2  N   UNL     1      19.452  18.017  90.654  0.00  0.00    +0.000 N 
ATOM      3  C   UNL     1      20.054  17.193  89.729  0.00  0.00    +0.000 C 
ATOM      4  H   UNL     1      18.488  18.305  90.582  0.00  0.00    +0.000 HD
ATOM      5  C   UNL     1      20.082  18.531  91.762  0.00  0.00    +0.000 A 
ATOM      6  N   UNL     1      19.390  19.323  92.587  0.00  0.00    +0.000 NA
ATOM      7  N   UNL     1      20.282  19.643  93.543  0.00  0.00    +0.000 N 
ATOM      8  C   UNL     1      21.510  19.085  93.356  0.00  0.00    +0.000 A 
ATOM      9  H   UNL     1      19.985  20.250  94.300  0.00  0.00    +0.000 HD
ATOM     10  C   UNL     1      21.417  18.351  92.200  0.00  0.00    +0.000 A 
ENDROOT
BRANCH   3  11
ATOM     11  C   UNL     1      19.195  16.743  88.605  0.00  0.00    +0.000 A 
ATOM     12  C   UNL     1      19.560  17.095  87.306  0.00  0.00    +0.000 A 
ATOM     13  C   UNL     1      18.777  16.691  86.226  0.00  0.00    +0.000 A 
ATOM     14  C   UNL     1      17.609  15.942  86.417  0.00  0.00    +0.000 A 
ATOM     15  C   UNL     1      17.268  15.582  87.728  0.00  0.00    +0.000 A 
ATOM     16  C   UNL     1      18.047  15.983  88.814  0.00  0.00    +0.000 A 
BRANCH  14  17
ATOM     17  N   UNL     1      16.840  15.495  85.317  0.00  0.00    +0.000 N 
ATOM     18  C   UNL     1      17.115  14.155  84.769  0.00  0.00    +0.000 C 
ATOM     19  C   UNL     1      17.380  13.621  83.474  0.00  0.00    +0.000 C 
ATOM     20  N   UNL     1      17.403  14.553  82.391  0.00  0.00    +0.000 N 
ATOM     21  C   UNL     1      17.656  12.179  83.238  0.00  0.00    +0.000 C 
ATOM     22  C   UNL     1      17.163  15.928  82.689  0.00  0.00    +0.000 C 
ATOM     23  H   UNL     1      17.607  14.251  81.451  0.00  0.00    +0.000 HD
ATOM     24  C   UNL     1      16.917  16.251  84.056  0.00  0.00    +0.000 C 
ATOM     25  C   UNL     1      17.216  16.958  81.618  0.00  0.00    +0.000 C 
ENDBRANCH  14  17
ENDBRANCH   3  11
BRANCH   8  26
ATOM     26  C   UNL     1      22.626  19.256  94.211  0.00  0.00    +0.000 C 
ATOM     27  C   UNL     1      23.830  19.443  95.139  0.00  0.00    +0.000 C 
BRANCH  27  28
ATOM     28  C   UNL     1      24.945  19.620  96.008  0.00  0.00    +0.000 A 
ATOM     29  C   UNL     1      25.039  20.768  96.791  0.00  0.00    +0.000 A 
ATOM     30  C   UNL     1      26.127  20.945  97.649  0.00  0.00    +0.000 A 
ATOM     31  C   UNL     1      27.114  19.959  97.716  0.00  0.00    +0.000 A 
ATOM     32  C   UNL     1      27.027  18.809  96.929  0.00  0.00    +0.000 A 
ATOM     33  C   UNL     1      25.934  18.644  96.075  0.00  0.00    +0.000 A 
BRANCH  30  34
ATOM     34  O   UNL     1      26.315  22.031  98.468  0.00  0.00    +0.000 OA
ATOM     35  C   UNL     1      25.503  22.071  99.607  0.00  0.00    +0.000 C 
ENDBRANCH  30  34
BRANCH  32  36
ATOM     36  O   UNL     1      28.053  17.909  97.077  0.00  0.00    +0.000 OA
ATOM     37  C   UNL     1      28.681  17.511  95.889  0.00  0.00    +0.000 C 
ENDBRANCH  32  36
ENDBRANCH  27  28
ENDBRANCH   8  26
TORSDOF 6
ENDMDL
