MODEL 1
REMARK VINA RESULT:      -6.5      0.000      0.000
REMARK  Name = Belinostat.pdbqt.pdb
REMARK  6 active torsions:
REMARK  status: ('A' for Active; 'I' for Inactive)
REMARK    1  A    between atoms: C_1  and  S_7
REMARK    2  A    between atoms: C_3  and  C_18
REMARK    3  A    between atoms: S_7  and  N_10
REMARK    4  A    between atoms: N_10  and  C_12
REMARK    5  A    between atoms: C_19  and  C_20
REMARK    6  A    between atoms: N_22  and  O_24
REMARK                            x       y       z     vdW  Elec       q    Type
REMARK                         _______ _______ _______ _____ _____    ______ ____
ROOT
ATOM      1  C   UNL     1      60.361  35.580  74.712  0.00  0.00    +0.000 A 
ATOM      2  C   UNL     1      59.325  35.544  75.637  0.00  0.00    +0.000 A 
ATOM      3  C   UNL     1      59.628  35.615  76.993  0.00  0.00    +0.000 A 
ATOM      4  C   UNL     1      61.687  35.714  75.111  0.00  0.00    +0.000 A 
ATOM      5  C   UNL     1      60.953  35.735  77.411  0.00  0.00    +0.000 A 
ATOM      6  C   UNL     1      61.982  35.786  76.469  0.00  0.00    +0.000 A 
ENDROOT
BRANCH   1   7
ATOM      7  S   UNL     1      59.988  35.532  72.997  0.00  0.00    +0.000 S 
ATOM      8  O   UNL     1      61.237  35.321  72.297  0.00  0.00    +0.000 OA
ATOM      9  O   UNL     1      59.138  36.661  72.687  0.00  0.00    +0.000 OA
BRANCH   7  10
ATOM     10  N   UNL     1      59.107  34.117  72.831  0.00  0.00    +0.000 N 
ATOM     11  H   UNL     1      58.113  34.256  72.655  0.00  0.00    +0.000 HD
BRANCH  10  12
ATOM     12  C   UNL     1      59.700  32.856  72.539  0.00  0.00    +0.000 A 
ATOM     13  C   UNL     1      60.344  32.085  73.504  0.00  0.00    +0.000 A 
ATOM     14  C   UNL     1      60.836  30.821  73.185  0.00  0.00    +0.000 A 
ATOM     15  C   UNL     1      60.660  30.312  71.901  0.00  0.00    +0.000 A 
ATOM     16  C   UNL     1      59.985  31.063  70.943  0.00  0.00    +0.000 A 
ATOM     17  C   UNL     1      59.496  32.325  71.266  0.00  0.00    +0.000 A 
ENDBRANCH  10  12
ENDBRANCH   7  10
ENDBRANCH   1   7
BRANCH   3  18
ATOM     18  C   UNL     1      58.578  35.566  77.958  0.00  0.00    +0.000 C 
ATOM     19  C   UNL     1      57.695  35.522  78.771  0.00  0.00    +0.000 C 
BRANCH  19  20
ATOM     20  C   UNL     1      56.635  35.468  79.747  0.00  0.00    +0.000 C 
ATOM     21  O   UNL     1      55.766  34.606  79.674  0.00  0.00    +0.000 OA
ATOM     22  N   UNL     1      56.678  36.416  80.730  0.00  0.00    +0.000 N 
ATOM     23  H   UNL     1      57.420  37.098  80.837  0.00  0.00    +0.000 HD
BRANCH  22  24
ATOM     24  O   UNL     1      55.684  36.365  81.731  0.00  0.00    +0.000 OA
ATOM     25  H   UNL     1      55.941  35.572  82.250  0.00  0.00    +0.000 HD
ENDBRANCH  22  24
ENDBRANCH  19  20
ENDBRANCH   3  18
TORSDOF 6
ENDMDL
MODEL 2
REMARK VINA RESULT:      -5.9      1.577      2.115
REMARK  Name = Belinostat.pdbqt.pdb
REMARK  6 active torsions:
REMARK  status: ('A' for Active; 'I' for Inactive)
REMARK    1  A    between atoms: C_1  and  S_7
REMARK    2  A    between atoms: C_3  and  C_18
REMARK    3  A    between atoms: S_7  and  N_10
REMARK    4  A    between atoms: N_10  and  C_12
REMARK    5  A    between atoms: C_19  and  C_20
REMARK    6  A    between atoms: N_22  and  O_24
REMARK                            x       y       z     vdW  Elec       q    Type
REMARK                         _______ _______ _______ _____ _____    ______ ____
ROOT
ATOM      1  C   UNL     1      60.939  34.740  73.703  0.00  0.00    +0.000 A 
ATOM      2  C   UNL     1      60.229  35.171  74.818  0.00  0.00    +0.000 A 
ATOM      3  C   UNL     1      60.821  35.075  76.074  0.00  0.00    +0.000 A 
ATOM      4  C   UNL     1      62.235  34.244  73.814  0.00  0.00    +0.000 A 
ATOM      5  C   UNL     1      62.113  34.566  76.204  0.00  0.00    +0.000 A 
ATOM      6  C   UNL     1      62.819  34.153  75.073  0.00  0.00    +0.000 A 
ENDROOT
BRANCH   1   7
ATOM      7  S   UNL     1      60.219  34.894  72.110  0.00  0.00    +0.000 S 
ATOM      8  O   UNL     1      61.280  34.704  71.144  0.00  0.00    +0.000 OA
ATOM      9  O   UNL     1      59.400  36.087  72.097  0.00  0.00    +0.000 OA
BRANCH   7  10
ATOM     10  N   UNL     1      59.230  33.546  71.999  0.00  0.00    +0.000 N 
ATOM     11  H   UNL     1      58.239  33.736  72.139  0.00  0.00    +0.000 HD
BRANCH  10  12
ATOM     12  C   UNL     1      59.629  32.334  71.368  0.00  0.00    +0.000 A 
ATOM     13  C   UNL     1      59.501  32.119  69.997  0.00  0.00    +0.000 A 
ATOM     14  C   UNL     1      59.983  30.947  69.418  0.00  0.00    +0.000 A 
ATOM     15  C   UNL     1      60.621  29.995  70.208  0.00  0.00    +0.000 A 
ATOM     16  C   UNL     1      60.785  30.219  71.572  0.00  0.00    +0.000 A 
ATOM     17  C   UNL     1      60.301  31.392  72.146  0.00  0.00    +0.000 A 
ENDBRANCH  10  12
ENDBRANCH   7  10
ENDBRANCH   1   7
BRANCH   3  18
ATOM     18  C   UNL     1      60.102  35.499  77.231  0.00  0.00    +0.000 C 
ATOM     19  C   UNL     1      59.499  35.858  78.206  0.00  0.00    +0.000 C 
BRANCH  19  20
ATOM     20  C   UNL     1      58.776  36.289  79.376  0.00  0.00    +0.000 C 
ATOM     21  O   UNL     1      57.730  36.919  79.264  0.00  0.00    +0.000 OA
ATOM     22  N   UNL     1      59.326  35.945  80.579  0.00  0.00    +0.000 N 
ATOM     23  H   UNL     1      60.158  35.376  80.688  0.00  0.00    +0.000 HD
BRANCH  22  24
ATOM     24  O   UNL     1      58.621  36.308  81.747  0.00  0.00    +0.000 OA
ATOM     25  H   UNL     1      59.223  36.958  82.170  0.00  0.00    +0.000 HD
ENDBRANCH  22  24
ENDBRANCH  19  20
ENDBRANCH   3  18
TORSDOF 6
ENDMDL
MODEL 3
REMARK VINA RESULT:      -5.5      5.344      7.025
REMARK  Name = Belinostat.pdbqt.pdb
REMARK  6 active torsions:
REMARK  status: ('A' for Active; 'I' for Inactive)
REMARK    1  A    between atoms: C_1  and  S_7
REMARK    2  A    between atoms: C_3  and  C_18
REMARK    3  A    between atoms: S_7  and  N_10
REMARK    4  A    between atoms: N_10  and  C_12
REMARK    5  A    between atoms: C_19  and  C_20
REMARK    6  A    between atoms: N_22  and  O_24
REMARK                            x       y       z     vdW  Elec       q    Type
REMARK                         _______ _______ _______ _____ _____    ______ ____
ROOT
ATOM      1  C   UNL     1      57.449  38.385  73.567  0.00  0.00    +0.000 A 
ATOM      2  C   UNL     1      57.164  37.860  74.822  0.00  0.00    +0.000 A 
ATOM      3  C   UNL     1      58.096  38.008  75.843  0.00  0.00    +0.000 A 
ATOM      4  C   UNL     1      58.629  39.078  73.320  0.00  0.00    +0.000 A 
ATOM      5  C   UNL     1      59.292  38.687  75.609  0.00  0.00    +0.000 A 
ATOM      6  C   UNL     1      59.556  39.223  74.348  0.00  0.00    +0.000 A 
ENDROOT
BRANCH   1   7
ATOM      7  S   UNL     1      56.261  38.239  72.281  0.00  0.00    +0.000 S 
ATOM      8  O   UNL     1      54.969  38.084  72.913  0.00  0.00    +0.000 OA
ATOM      9  O   UNL     1      56.747  37.269  71.324  0.00  0.00    +0.000 OA
BRANCH   7  10
ATOM     10  N   UNL     1      56.264  39.758  71.576  0.00  0.00    +0.000 N 
ATOM     11  H   UNL     1      56.574  39.772  70.605  0.00  0.00    +0.000 HD
BRANCH  10  12
ATOM     12  C   UNL     1      55.531  40.862  72.094  0.00  0.00    +0.000 A 
ATOM     13  C   UNL     1      56.039  41.713  73.074  0.00  0.00    +0.000 A 
ATOM     14  C   UNL     1      55.313  42.827  73.487  0.00  0.00    +0.000 A 
ATOM     15  C   UNL     1      54.083  43.111  72.901  0.00  0.00    +0.000 A 
ATOM     16  C   UNL     1      53.586  42.286  71.896  0.00  0.00    +0.000 A 
ATOM     17  C   UNL     1      54.315  41.172  71.486  0.00  0.00    +0.000 A 
ENDBRANCH  10  12
ENDBRANCH   7  10
ENDBRANCH   1   7
BRANCH   3  18
ATOM     18  C   UNL     1      57.827  37.463  77.134  0.00  0.00    +0.000 C 
ATOM     19  C   UNL     1      57.600  37.008  78.222  0.00  0.00    +0.000 C 
BRANCH  19  20
ATOM     20  C   UNL     1      57.328  36.462  79.528  0.00  0.00    +0.000 C 
ATOM     21  O   UNL     1      58.247  36.170  80.284  0.00  0.00    +0.000 OA
ATOM     22  N   UNL     1      56.008  36.308  79.848  0.00  0.00    +0.000 N 
ATOM     23  H   UNL     1      55.236  36.598  79.258  0.00  0.00    +0.000 HD
BRANCH  22  24
ATOM     24  O   UNL     1      55.701  35.821  81.138  0.00  0.00    +0.000 OA
ATOM     25  H   UNL     1      56.110  36.493  81.725  0.00  0.00    +0.000 HD
ENDBRANCH  22  24
ENDBRANCH  19  20
ENDBRANCH   3  18
TORSDOF 6
ENDMDL
MODEL 4
REMARK VINA RESULT:      -5.5     55.069     58.666
REMARK  Name = Belinostat.pdbqt.pdb
REMARK  6 active torsions:
REMARK  status: ('A' for Active; 'I' for Inactive)
REMARK    1  A    between atoms: C_1  and  S_7
REMARK    2  A    between atoms: C_3  and  C_18
REMARK    3  A    between atoms: S_7  and  N_10
REMARK    4  A    between atoms: N_10  and  C_12
REMARK    5  A    between atoms: C_19  and  C_20
REMARK    6  A    between atoms: N_22  and  O_24
REMARK                            x       y       z     vdW  Elec       q    Type
REMARK                         _______ _______ _______ _____ _____    ______ ____
ROOT
ATOM      1  C   UNL     1      13.003   7.201  99.548  0.00  0.00    +0.000 A 
ATOM      2  C   UNL     1      13.739   8.301  99.973  0.00  0.00    +0.000 A 
ATOM      3  C   UNL     1      14.631   8.899  99.089  0.00  0.00    +0.000 A 
ATOM      4  C   UNL     1      13.119   6.705  98.254  0.00  0.00    +0.000 A 
ATOM      5  C   UNL     1      14.771   8.405  97.792  0.00  0.00    +0.000 A 
ATOM      6  C   UNL     1      14.013   7.310  97.375  0.00  0.00    +0.000 A 
ENDROOT
BRANCH   1   7
ATOM      7  S   UNL     1      11.845   6.464 100.643  0.00  0.00    +0.000 S 
ATOM      8  O   UNL     1      12.175   6.916 101.977  0.00  0.00    +0.000 OA
ATOM      9  O   UNL     1      11.760   5.054 100.330  0.00  0.00    +0.000 OA
BRANCH   7  10
ATOM     10  N   UNL     1      10.399   7.206 100.235  0.00  0.00    +0.000 N 
ATOM     11  H   UNL     1       9.763   6.623  99.693  0.00  0.00    +0.000 HD
BRANCH  10  12
ATOM     12  C   UNL     1       9.898   8.359 100.903  0.00  0.00    +0.000 A 
ATOM     13  C   UNL     1       9.248   8.295 102.133  0.00  0.00    +0.000 A 
ATOM     14  C   UNL     1       8.849   9.462 102.782  0.00  0.00    +0.000 A 
ATOM     15  C   UNL     1       9.125  10.702 102.213  0.00  0.00    +0.000 A 
ATOM     16  C   UNL     1       9.806  10.774 101.001  0.00  0.00    +0.000 A 
ATOM     17  C   UNL     1      10.202   9.605 100.355  0.00  0.00    +0.000 A 
ENDBRANCH  10  12
ENDBRANCH   7  10
ENDBRANCH   1   7
BRANCH   3  18
ATOM     18  C   UNL     1      15.405  10.021  99.511  0.00  0.00    +0.000 C 
ATOM     19  C   UNL     1      16.056  10.964  99.870  0.00  0.00    +0.000 C 
BRANCH  19  20
ATOM     20  C   UNL     1      16.838  12.095 100.302  0.00  0.00    +0.000 C 
ATOM     21  O   UNL     1      16.542  12.703 101.324  0.00  0.00    +0.000 OA
ATOM     22  N   UNL     1      17.905  12.420  99.512  0.00  0.00    +0.000 N 
ATOM     23  H   UNL     1      18.198  11.894  98.696  0.00  0.00    +0.000 HD
BRANCH  22  24
ATOM     24  O   UNL     1      18.723  13.494  99.929  0.00  0.00    +0.000 OA
ATOM     25  H   UNL     1      19.186  13.121 100.711  0.00  0.00    +0.000 HD
ENDBRANCH  22  24
ENDBRANCH  19  20
ENDBRANCH   3  18
TORSDOF 6
ENDMDL
MODEL 5
REMARK VINA RESULT:      -5.5     18.187     20.636
REMARK  Name = Belinostat.pdbqt.pdb
REMARK  6 active torsions:
REMARK  status: ('A' for Active; 'I' for Inactive)
REMARK    1  A    between atoms: C_1  and  S_7
REMARK    2  A    between atoms: C_3  and  C_18
REMARK    3  A    between atoms: S_7  and  N_10
REMARK    4  A    between atoms: N_10  and  C_12
REMARK    5  A    between atoms: C_19  and  C_20
REMARK    6  A    between atoms: N_22  and  O_24
REMARK                            x       y       z     vdW  Elec       q    Type
REMARK                         _______ _______ _______ _____ _____    ______ ____
ROOT
ATOM      1  C   UNL     1      45.718  24.474  84.603  0.00  0.00    +0.000 A 
ATOM      2  C   UNL     1      44.927  24.542  83.462  0.00  0.00    +0.000 A 
ATOM      3  C   UNL     1      43.749  23.803  83.413  0.00  0.00    +0.000 A 
ATOM      4  C   UNL     1      45.344  23.709  85.703  0.00  0.00    +0.000 A 
ATOM      5  C   UNL     1      43.367  23.019  84.501  0.00  0.00    +0.000 A 
ATOM      6  C   UNL     1      44.163  22.974  85.646  0.00  0.00    +0.000 A 
ENDROOT
BRANCH   1   7
ATOM      7  S   UNL     1      47.186  25.434  84.693  0.00  0.00    +0.000 S 
ATOM      8  O   UNL     1      47.686  25.572  83.342  0.00  0.00    +0.000 OA
ATOM      9  O   UNL     1      48.017  24.892  85.746  0.00  0.00    +0.000 OA
BRANCH   7  10
ATOM     10  N   UNL     1      46.633  26.947  85.151  0.00  0.00    +0.000 N 
ATOM     11  H   UNL     1      47.366  27.643  85.283  0.00  0.00    +0.000 HD
BRANCH  10  12
ATOM     12  C   UNL     1      45.286  27.373  84.976  0.00  0.00    +0.000 A 
ATOM     13  C   UNL     1      44.316  27.231  85.966  0.00  0.00    +0.000 A 
ATOM     14  C   UNL     1      43.033  27.739  85.775  0.00  0.00    +0.000 A 
ATOM     15  C   UNL     1      42.722  28.416  84.600  0.00  0.00    +0.000 A 
ATOM     16  C   UNL     1      43.697  28.593  83.622  0.00  0.00    +0.000 A 
ATOM     17  C   UNL     1      44.978  28.084  83.816  0.00  0.00    +0.000 A 
ENDBRANCH  10  12
ENDBRANCH   7  10
ENDBRANCH   1   7
BRANCH   3  18
ATOM     18  C   UNL     1      42.931  23.849  82.244  0.00  0.00    +0.000 C 
ATOM     19  C   UNL     1      42.241  23.889  81.263  0.00  0.00    +0.000 C 
BRANCH  19  20
ATOM     20  C   UNL     1      41.411  23.938  80.085  0.00  0.00    +0.000 C 
ATOM     21  O   UNL     1      40.473  24.724  80.017  0.00  0.00    +0.000 OA
ATOM     22  N   UNL     1      41.747  23.073  79.081  0.00  0.00    +0.000 N 
ATOM     23  H   UNL     1      42.552  22.459  79.098  0.00  0.00    +0.000 HD
BRANCH  22  24
ATOM     24  O   UNL     1      40.986  23.126  77.892  0.00  0.00    +0.000 OA
ATOM     25  H   UNL     1      40.707  22.192  77.773  0.00  0.00    +0.000 HD
ENDBRANCH  22  24
ENDBRANCH  19  20
ENDBRANCH   3  18
TORSDOF 6
ENDMDL
MODEL 6
REMARK VINA RESULT:      -5.2     16.465     18.615
REMARK  Name = Belinostat.pdbqt.pdb
REMARK  6 active torsions:
REMARK  status: ('A' for Active; 'I' for Inactive)
REMARK    1  A    between atoms: C_1  and  S_7
REMARK    2  A    between atoms: C_3  and  C_18
REMARK    3  A    between atoms: S_7  and  N_10
REMARK    4  A    between atoms: N_10  and  C_12
REMARK    5  A    between atoms: C_19  and  C_20
REMARK    6  A    between atoms: N_22  and  O_24
REMARK                            x       y       z     vdW  Elec       q    Type
REMARK                         _______ _______ _______ _____ _____    ______ ____
ROOT
ATOM      1  C   UNL     1      52.281  20.655  77.418  0.00  0.00    +0.000 A 
ATOM      2  C   UNL     1      51.424  19.563  77.335  0.00  0.00    +0.000 A 
ATOM      3  C   UNL     1      51.286  18.904  76.118  0.00  0.00    +0.000 A 
ATOM      4  C   UNL     1      53.021  21.083  76.321  0.00  0.00    +0.000 A 
ATOM      5  C   UNL     1      52.009  19.330  75.004  0.00  0.00    +0.000 A 
ATOM      6  C   UNL     1      52.877  20.418  75.107  0.00  0.00    +0.000 A 
ENDROOT
BRANCH   1   7
ATOM      7  S   UNL     1      52.494  21.468  78.960  0.00  0.00    +0.000 S 
ATOM      8  O   UNL     1      51.583  20.847  79.897  0.00  0.00    +0.000 OA
ATOM      9  O   UNL     1      52.468  22.895  78.726  0.00  0.00    +0.000 OA
BRANCH   7  10
ATOM     10  N   UNL     1      54.037  21.014  79.428  0.00  0.00    +0.000 N 
ATOM     11  H   UNL     1      54.769  21.674  79.168  0.00  0.00    +0.000 HD
BRANCH  10  12
ATOM     12  C   UNL     1      54.294  20.044  80.437  0.00  0.00    +0.000 A 
ATOM     13  C   UNL     1      54.500  20.382  81.773  0.00  0.00    +0.000 A 
ATOM     14  C   UNL     1      54.666  19.388  82.735  0.00  0.00    +0.000 A 
ATOM     15  C   UNL     1      54.599  18.047  82.366  0.00  0.00    +0.000 A 
ATOM     16  C   UNL     1      54.357  17.703  81.040  0.00  0.00    +0.000 A 
ATOM     17  C   UNL     1      54.192  18.699  80.081  0.00  0.00    +0.000 A 
ENDBRANCH  10  12
ENDBRANCH   7  10
ENDBRANCH   1   7
BRANCH   3  18
ATOM     18  C   UNL     1      50.401  17.790  76.010  0.00  0.00    +0.000 C 
ATOM     19  C   UNL     1      49.658  16.851  75.919  0.00  0.00    +0.000 C 
BRANCH  19  20
ATOM     20  C   UNL     1      48.768  15.723  75.809  0.00  0.00    +0.000 C 
ATOM     21  O   UNL     1      48.377  15.139  76.814  0.00  0.00    +0.000 OA
ATOM     22  N   UNL     1      48.398  15.373  74.541  0.00  0.00    +0.000 N 
ATOM     23  H   UNL     1      48.666  15.880  73.705  0.00  0.00    +0.000 HD
BRANCH  22  24
ATOM     24  O   UNL     1      47.488  14.303  74.397  0.00  0.00    +0.000 OA
ATOM     25  H   UNL     1      47.162  14.172  75.314  0.00  0.00    +0.000 HD
ENDBRANCH  22  24
ENDBRANCH  19  20
ENDBRANCH   3  18
TORSDOF 6
ENDMDL
MODEL 7
REMARK VINA RESULT:      -5.1     57.412     61.064
REMARK  Name = Belinostat.pdbqt.pdb
REMARK  6 active torsions:
REMARK  status: ('A' for Active; 'I' for Inactive)
REMARK    1  A    between atoms: C_1  and  S_7
REMARK    2  A    between atoms: C_3  and  C_18
REMARK    3  A    between atoms: S_7  and  N_10
REMARK    4  A    between atoms: N_10  and  C_12
REMARK    5  A    between atoms: C_19  and  C_20
REMARK    6  A    between atoms: N_22  and  O_24
REMARK                            x       y       z     vdW  Elec       q    Type
REMARK                         _______ _______ _______ _____ _____    ______ ____
ROOT
ATOM      1  C   UNL     1       6.562  14.873  98.134  0.00  0.00    +0.000 A 
ATOM      2  C   UNL     1       5.867  13.669  98.152  0.00  0.00    +0.000 A 
ATOM      3  C   UNL     1       5.333  13.181  96.963  0.00  0.00    +0.000 A 
ATOM      4  C   UNL     1       6.759  15.582  96.954  0.00  0.00    +0.000 A 
ATOM      5  C   UNL     1       5.508  13.886  95.773  0.00  0.00    +0.000 A 
ATOM      6  C   UNL     1       6.223  15.085  95.769  0.00  0.00    +0.000 A 
ENDROOT
BRANCH   1   7
ATOM      7  S   UNL     1       7.275  15.478  99.621  0.00  0.00    +0.000 S 
ATOM      8  O   UNL     1       8.161  14.447 100.116  0.00  0.00    +0.000 OA
ATOM      9  O   UNL     1       6.214  16.013 100.446  0.00  0.00    +0.000 OA
BRANCH   7  10
ATOM     10  N   UNL     1       8.253  16.734  99.099  0.00  0.00    +0.000 N 
ATOM     11  H   UNL     1       7.753  17.592  98.872  0.00  0.00    +0.000 HD
BRANCH  10  12
ATOM     12  C   UNL     1       9.657  16.780  99.332  0.00  0.00    +0.000 A 
ATOM     13  C   UNL     1      10.570  16.038  98.586  0.00  0.00    +0.000 A 
ATOM     14  C   UNL     1      11.939  16.182  98.800  0.00  0.00    +0.000 A 
ATOM     15  C   UNL     1      12.401  17.092  99.746  0.00  0.00    +0.000 A 
ATOM     16  C   UNL     1      11.495  17.864 100.469  0.00  0.00    +0.000 A 
ATOM     17  C   UNL     1      10.128  17.716 100.252  0.00  0.00    +0.000 A 
ENDBRANCH  10  12
ENDBRANCH   7  10
ENDBRANCH   1   7
BRANCH   3  18
ATOM     18  C   UNL     1       4.605  11.954  96.964  0.00  0.00    +0.000 C 
ATOM     19  C   UNL     1       3.994  10.920  96.967  0.00  0.00    +0.000 C 
BRANCH  19  20
ATOM     20  C   UNL     1       3.262   9.678  96.970  0.00  0.00    +0.000 C 
ATOM     21  O   UNL     1       3.384   8.887  97.898  0.00  0.00    +0.000 OA
ATOM     22  N   UNL     1       2.442   9.465  95.897  0.00  0.00    +0.000 N 
ATOM     23  H   UNL     1       2.286  10.133  95.152  0.00  0.00    +0.000 HD
BRANCH  22  24
ATOM     24  O   UNL     1       1.672   8.281  95.889  0.00  0.00    +0.000 OA
ATOM     25  H   UNL     1       1.196   8.327  96.747  0.00  0.00    +0.000 HD
ENDBRANCH  22  24
ENDBRANCH  19  20
ENDBRANCH   3  18
TORSDOF 6
ENDMDL
MODEL 8
REMARK VINA RESULT:      -5.1     21.261     24.444
REMARK  Name = Belinostat.pdbqt.pdb
REMARK  6 active torsions:
REMARK  status: ('A' for Active; 'I' for Inactive)
REMARK    1  A    between atoms: C_1  and  S_7
REMARK    2  A    between atoms: C_3  and  C_18
REMARK    3  A    between atoms: S_7  and  N_10
REMARK    4  A    between atoms: N_10  and  C_12
REMARK    5  A    between atoms: C_19  and  C_20
REMARK    6  A    between atoms: N_22  and  O_24
REMARK                            x       y       z     vdW  Elec       q    Type
REMARK                         _______ _______ _______ _____ _____    ______ ____
ROOT
ATOM      1  C   UNL     1      39.649  23.810  83.590  0.00  0.00    +0.000 A 
ATOM      2  C   UNL     1      40.671  24.673  83.970  0.00  0.00    +0.000 A 
ATOM      3  C   UNL     1      41.746  24.868  83.108  0.00  0.00    +0.000 A 
ATOM      4  C   UNL     1      39.664  23.164  82.358  0.00  0.00    +0.000 A 
ATOM      5  C   UNL     1      41.784  24.215  81.876  0.00  0.00    +0.000 A 
ATOM      6  C   UNL     1      40.742  23.365  81.501  0.00  0.00    +0.000 A 
ENDROOT
BRANCH   1   7
ATOM      7  S   UNL     1      38.269  23.588  84.653  0.00  0.00    +0.000 S 
ATOM      8  O   UNL     1      37.345  24.667  84.379  0.00  0.00    +0.000 OA
ATOM      9  O   UNL     1      38.763  23.347  85.991  0.00  0.00    +0.000 OA
BRANCH   7  10
ATOM     10  N   UNL     1      37.552  22.191  84.070  0.00  0.00    +0.000 N 
ATOM     11  H   UNL     1      38.018  21.329  84.349  0.00  0.00    +0.000 HD
BRANCH  10  12
ATOM     12  C   UNL     1      36.212  22.140  83.593  0.00  0.00    +0.000 A 
ATOM     13  C   UNL     1      35.117  21.957  84.436  0.00  0.00    +0.000 A 
ATOM     14  C   UNL     1      33.821  21.998  83.928  0.00  0.00    +0.000 A 
ATOM     15  C   UNL     1      33.613  22.251  82.575  0.00  0.00    +0.000 A 
ATOM     16  C   UNL     1      34.700  22.472  81.734  0.00  0.00    +0.000 A 
ATOM     17  C   UNL     1      35.995  22.429  82.246  0.00  0.00    +0.000 A 
ENDBRANCH  10  12
ENDBRANCH   7  10
ENDBRANCH   1   7
BRANCH   3  18
ATOM     18  C   UNL     1      42.810  25.738  83.487  0.00  0.00    +0.000 C 
ATOM     19  C   UNL     1      43.706  26.470  83.810  0.00  0.00    +0.000 C 
BRANCH  19  20
ATOM     20  C   UNL     1      44.782  27.349  84.197  0.00  0.00    +0.000 C 
ATOM     21  O   UNL     1      44.864  28.476  83.724  0.00  0.00    +0.000 OA
ATOM     22  N   UNL     1      45.666  26.845  85.109  0.00  0.00    +0.000 N 
ATOM     23  H   UNL     1      45.579  25.938  85.553  0.00  0.00    +0.000 HD
BRANCH  22  24
ATOM     24  O   UNL     1      46.705  27.694  85.549  0.00  0.00    +0.000 OA
ATOM     25  H   UNL     1      47.317  27.071  85.999  0.00  0.00    +0.000 HD
ENDBRANCH  22  24
ENDBRANCH  19  20
ENDBRANCH   3  18
TORSDOF 6
ENDMDL
MODEL 9
REMARK VINA RESULT:      -5.1      7.084      9.344
REMARK  Name = Belinostat.pdbqt.pdb
REMARK  6 active torsions:
REMARK  status: ('A' for Active; 'I' for Inactive)
REMARK    1  A    between atoms: C_1  and  S_7
REMARK    2  A    between atoms: C_3  and  C_18
REMARK    3  A    between atoms: S_7  and  N_10
REMARK    4  A    between atoms: N_10  and  C_12
REMARK    5  A    between atoms: C_19  and  C_20
REMARK    6  A    between atoms: N_22  and  O_24
REMARK                            x       y       z     vdW  Elec       q    Type
REMARK                         _______ _______ _______ _____ _____    ______ ____
ROOT
ATOM      1  C   UNL     1      56.033  39.309  73.128  0.00  0.00    +0.000 A 
ATOM      2  C   UNL     1      56.006  40.688  73.302  0.00  0.00    +0.000 A 
ATOM      3  C   UNL     1      55.246  41.463  72.432  0.00  0.00    +0.000 A 
ATOM      4  C   UNL     1      55.295  38.688  72.126  0.00  0.00    +0.000 A 
ATOM      5  C   UNL     1      54.512  40.858  71.412  0.00  0.00    +0.000 A 
ATOM      6  C   UNL     1      54.536  39.471  71.261  0.00  0.00    +0.000 A 
ENDROOT
BRANCH   1   7
ATOM      7  S   UNL     1      56.957  38.317  74.245  0.00  0.00    +0.000 S 
ATOM      8  O   UNL     1      58.338  38.739  74.145  0.00  0.00    +0.000 OA
ATOM      9  O   UNL     1      56.580  36.935  74.041  0.00  0.00    +0.000 OA
BRANCH   7  10
ATOM     10  N   UNL     1      56.416  38.819  75.749  0.00  0.00    +0.000 N 
ATOM     11  H   UNL     1      55.699  39.542  75.720  0.00  0.00    +0.000 HD
BRANCH  10  12
ATOM     12  C   UNL     1      56.600  38.060  76.939  0.00  0.00    +0.000 A 
ATOM     13  C   UNL     1      57.799  38.046  77.647  0.00  0.00    +0.000 A 
ATOM     14  C   UNL     1      57.900  37.352  78.851  0.00  0.00    +0.000 A 
ATOM     15  C   UNL     1      56.789  36.689  79.365  0.00  0.00    +0.000 A 
ATOM     16  C   UNL     1      55.578  36.729  78.680  0.00  0.00    +0.000 A 
ATOM     17  C   UNL     1      55.482  37.424  77.478  0.00  0.00    +0.000 A 
ENDBRANCH  10  12
ENDBRANCH   7  10
ENDBRANCH   1   7
BRANCH   3  18
ATOM     18  C   UNL     1      55.218  42.881  72.586  0.00  0.00    +0.000 C 
ATOM     19  C   UNL     1      55.194  44.075  72.713  0.00  0.00    +0.000 C 
BRANCH  19  20
ATOM     20  C   UNL     1      55.164  45.509  72.864  0.00  0.00    +0.000 C 
ATOM     21  O   UNL     1      54.497  46.027  73.752  0.00  0.00    +0.000 OA
ATOM     22  N   UNL     1      55.921  46.219  71.975  0.00  0.00    +0.000 N 
ATOM     23  H   UNL     1      56.523  45.805  71.273  0.00  0.00    +0.000 HD
BRANCH  22  24
ATOM     24  O   UNL     1      55.955  47.624  72.122  0.00  0.00    +0.000 OA
ATOM     25  H   UNL     1      55.013  47.875  72.009  0.00  0.00    +0.000 HD
ENDBRANCH  22  24
ENDBRANCH  19  20
ENDBRANCH   3  18
TORSDOF 6
ENDMDL
