MODEL 1
REMARK VINA RESULT:      -7.4      0.000      0.000
REMARK  Name = Benzo[a]pyrene.pdbqt.pdb
REMARK  0 active torsions:
REMARK  status: ('A' for Active; 'I' for Inactive)
REMARK                            x       y       z     vdW  Elec       q    Type
REMARK                         _______ _______ _______ _____ _____    ______ ____
ROOT
ATOM      1  C   UNL     1      51.992  20.038  77.445  0.00  0.00    +0.000 A 
ATOM      2  C   UNL     1      52.596  21.248  77.036  0.00  0.00    +0.000 A 
ATOM      3  C   UNL     1      51.651  19.052  76.492  0.00  0.00    +0.000 A 
ATOM      4  C   UNL     1      51.735  19.827  78.816  0.00  0.00    +0.000 A 
ATOM      5  C   UNL     1      51.046  17.848  76.930  0.00  0.00    +0.000 A 
ATOM      6  C   UNL     1      52.862  21.479  75.672  0.00  0.00    +0.000 A 
ATOM      7  C   UNL     1      52.935  22.229  77.992  0.00  0.00    +0.000 A 
ATOM      8  C   UNL     1      50.797  17.656  78.308  0.00  0.00    +0.000 A 
ATOM      9  C   UNL     1      51.141  18.640  79.231  0.00  0.00    +0.000 A 
ATOM     10  C   UNL     1      51.930  19.316  75.140  0.00  0.00    +0.000 A 
ATOM     11  C   UNL     1      52.076  20.805  79.749  0.00  0.00    +0.000 A 
ATOM     12  C   UNL     1      52.526  20.508  74.732  0.00  0.00    +0.000 A 
ATOM     13  C   UNL     1      52.671  21.998  79.342  0.00  0.00    +0.000 A 
ATOM     14  C   UNL     1      53.458  22.676  75.278  0.00  0.00    +0.000 A 
ATOM     15  C   UNL     1      53.530  23.420  77.578  0.00  0.00    +0.000 A 
ATOM     16  C   UNL     1      50.677  16.820  76.045  0.00  0.00    +0.000 A 
ATOM     17  C   UNL     1      50.203  16.478  78.761  0.00  0.00    +0.000 A 
ATOM     18  C   UNL     1      53.791  23.642  76.226  0.00  0.00    +0.000 A 
ATOM     19  C   UNL     1      50.084  15.646  76.504  0.00  0.00    +0.000 A 
ATOM     20  C   UNL     1      49.847  15.475  77.863  0.00  0.00    +0.000 A 
ENDROOT
TORSDOF 0
ENDMDL
MODEL 2
REMARK VINA RESULT:      -7.1      0.773      6.148
REMARK  Name = Benzo[a]pyrene.pdbqt.pdb
REMARK  0 active torsions:
REMARK  status: ('A' for Active; 'I' for Inactive)
REMARK                            x       y       z     vdW  Elec       q    Type
REMARK                         _______ _______ _______ _____ _____    ______ ____
ROOT
ATOM      1  C   UNL     1      52.018  19.483  76.784  0.00  0.00    +0.000 A 
ATOM      2  C   UNL     1      51.515  18.277  77.321  0.00  0.00    +0.000 A 
ATOM      3  C   UNL     1      52.326  20.570  77.633  0.00  0.00    +0.000 A 
ATOM      4  C   UNL     1      52.208  19.587  75.390  0.00  0.00    +0.000 A 
ATOM      5  C   UNL     1      52.830  21.767  77.067  0.00  0.00    +0.000 A 
ATOM      6  C   UNL     1      51.317  18.151  78.711  0.00  0.00    +0.000 A 
ATOM      7  C   UNL     1      51.208  17.195  76.469  0.00  0.00    +0.000 A 
ATOM      8  C   UNL     1      53.013  21.851  75.668  0.00  0.00    +0.000 A 
ATOM      9  C   UNL     1      52.703  20.769  74.849  0.00  0.00    +0.000 A 
ATOM     10  C   UNL     1      52.117  20.410  79.014  0.00  0.00    +0.000 A 
ATOM     11  C   UNL     1      51.901  18.510  74.561  0.00  0.00    +0.000 A 
ATOM     12  C   UNL     1      51.621  19.221  79.548  0.00  0.00    +0.000 A 
ATOM     13  C   UNL     1      51.405  17.321  75.095  0.00  0.00    +0.000 A 
ATOM     14  C   UNL     1      50.820  16.957  79.232  0.00  0.00    +0.000 A 
ATOM     15  C   UNL     1      50.712  16.009  77.010  0.00  0.00    +0.000 A 
ATOM     16  C   UNL     1      53.160  22.891  77.843  0.00  0.00    +0.000 A 
ATOM     17  C   UNL     1      53.507  23.020  75.090  0.00  0.00    +0.000 A 
ATOM     18  C   UNL     1      50.519  15.891  78.386  0.00  0.00    +0.000 A 
ATOM     19  C   UNL     1      53.653  24.056  77.259  0.00  0.00    +0.000 A 
ATOM     20  C   UNL     1      53.826  24.120  75.882  0.00  0.00    +0.000 A 
ENDROOT
TORSDOF 0
ENDMDL
MODEL 3
REMARK VINA RESULT:      -6.8     44.163     46.649
REMARK  Name = Benzo[a]pyrene.pdbqt.pdb
REMARK  0 active torsions:
REMARK  status: ('A' for Active; 'I' for Inactive)
REMARK                            x       y       z     vdW  Elec       q    Type
REMARK                         _______ _______ _______ _____ _____    ______ ____
ROOT
ATOM      1  C   UNL     1      13.008   5.216  98.684  0.00  0.00    +0.000 A 
ATOM      2  C   UNL     1      13.373   6.580  98.666  0.00  0.00    +0.000 A 
ATOM      3  C   UNL     1      13.344   4.371  97.602  0.00  0.00    +0.000 A 
ATOM      4  C   UNL     1      12.305   4.708  99.797  0.00  0.00    +0.000 A 
ATOM      5  C   UNL     1      12.965   3.007  97.648  0.00  0.00    +0.000 A 
ATOM      6  C   UNL     1      14.076   7.108  97.564  0.00  0.00    +0.000 A 
ATOM      7  C   UNL     1      13.036   7.419  99.749  0.00  0.00    +0.000 A 
ATOM      8  C   UNL     1      12.261   2.518  98.772  0.00  0.00    +0.000 A 
ATOM      9  C   UNL     1      11.940   3.366  99.828  0.00  0.00    +0.000 A 
ATOM     10  C   UNL     1      14.045   4.931  96.520  0.00  0.00    +0.000 A 
ATOM     11  C   UNL     1      11.979   5.549 100.860  0.00  0.00    +0.000 A 
ATOM     12  C   UNL     1      14.407   6.277  96.497  0.00  0.00    +0.000 A 
ATOM     13  C   UNL     1      12.341   6.895 100.838  0.00  0.00    +0.000 A 
ATOM     14  C   UNL     1      14.432   8.456  97.554  0.00  0.00    +0.000 A 
ATOM     15  C   UNL     1      13.402   8.765  99.719  0.00  0.00    +0.000 A 
ATOM     16  C   UNL     1      13.261   2.103  96.613  0.00  0.00    +0.000 A 
ATOM     17  C   UNL     1      11.878   1.178  98.838  0.00  0.00    +0.000 A 
ATOM     18  C   UNL     1      14.097   9.281  98.626  0.00  0.00    +0.000 A 
ATOM     19  C   UNL     1      12.876   0.767  96.685  0.00  0.00    +0.000 A 
ATOM     20  C   UNL     1      12.184   0.304  97.798  0.00  0.00    +0.000 A 
ENDROOT
TORSDOF 0
ENDMDL
MODEL 4
REMARK VINA RESULT:      -6.6     15.365     16.852
REMARK  Name = Benzo[a]pyrene.pdbqt.pdb
REMARK  0 active torsions:
REMARK  status: ('A' for Active; 'I' for Inactive)
REMARK                            x       y       z     vdW  Elec       q    Type
REMARK                         _______ _______ _______ _____ _____    ______ ____
ROOT
ATOM      1  C   UNL     1      60.010  31.972  70.069  0.00  0.00    +0.000 A 
ATOM      2  C   UNL     1      60.474  32.698  71.189  0.00  0.00    +0.000 A 
ATOM      3  C   UNL     1      59.285  32.622  69.045  0.00  0.00    +0.000 A 
ATOM      4  C   UNL     1      60.280  30.589  69.988  0.00  0.00    +0.000 A 
ATOM      5  C   UNL     1      58.832  31.868  67.934  0.00  0.00    +0.000 A 
ATOM      6  C   UNL     1      60.215  34.080  71.290  0.00  0.00    +0.000 A 
ATOM      7  C   UNL     1      61.197  32.044  72.208  0.00  0.00    +0.000 A 
ATOM      8  C   UNL     1      59.114  30.484  67.871  0.00  0.00    +0.000 A 
ATOM      9  C   UNL     1      59.830  29.862  68.891  0.00  0.00    +0.000 A 
ATOM     10  C   UNL     1      59.045  34.000  69.179  0.00  0.00    +0.000 A 
ATOM     11  C   UNL     1      60.997  29.956  71.003  0.00  0.00    +0.000 A 
ATOM     12  C   UNL     1      59.500  34.721  70.282  0.00  0.00    +0.000 A 
ATOM     13  C   UNL     1      61.452  30.677  72.106  0.00  0.00    +0.000 A 
ATOM     14  C   UNL     1      60.676  34.789  72.399  0.00  0.00    +0.000 A 
ATOM     15  C   UNL     1      61.650  32.771  73.309  0.00  0.00    +0.000 A 
ATOM     16  C   UNL     1      58.106  32.440  66.876  0.00  0.00    +0.000 A 
ATOM     17  C   UNL     1      58.678  29.724  66.787  0.00  0.00    +0.000 A 
ATOM     18  C   UNL     1      61.390  34.138  73.403  0.00  0.00    +0.000 A 
ATOM     19  C   UNL     1      57.673  31.675  65.796  0.00  0.00    +0.000 A 
ATOM     20  C   UNL     1      57.959  30.316  65.752  0.00  0.00    +0.000 A 
ENDROOT
TORSDOF 0
ENDMDL
MODEL 5
REMARK VINA RESULT:      -6.5     15.561     16.661
REMARK  Name = Benzo[a]pyrene.pdbqt.pdb
REMARK  0 active torsions:
REMARK  status: ('A' for Active; 'I' for Inactive)
REMARK                            x       y       z     vdW  Elec       q    Type
REMARK                         _______ _______ _______ _____ _____    ______ ____
ROOT
ATOM      1  C   UNL     1      60.658  33.193  73.393  0.00  0.00    +0.000 A 
ATOM      2  C   UNL     1      60.096  34.280  74.100  0.00  0.00    +0.000 A 
ATOM      3  C   UNL     1      59.982  32.636  72.284  0.00  0.00    +0.000 A 
ATOM      4  C   UNL     1      61.902  32.673  73.809  0.00  0.00    +0.000 A 
ATOM      5  C   UNL     1      60.569  31.547  71.594  0.00  0.00    +0.000 A 
ATOM      6  C   UNL     1      58.855  34.815  73.701  0.00  0.00    +0.000 A 
ATOM      7  C   UNL     1      60.774  34.832  75.206  0.00  0.00    +0.000 A 
ATOM      8  C   UNL     1      61.816  31.040  72.027  0.00  0.00    +0.000 A 
ATOM      9  C   UNL     1      62.466  31.603  73.122  0.00  0.00    +0.000 A 
ATOM     10  C   UNL     1      58.747  33.195  71.914  0.00  0.00    +0.000 A 
ATOM     11  C   UNL     1      62.560  33.229  74.905  0.00  0.00    +0.000 A 
ATOM     12  C   UNL     1      58.189  34.267  72.609  0.00  0.00    +0.000 A 
ATOM     13  C   UNL     1      62.002  34.301  75.599  0.00  0.00    +0.000 A 
ATOM     14  C   UNL     1      58.308  35.888  74.405  0.00  0.00    +0.000 A 
ATOM     15  C   UNL     1      60.210  35.905  75.897  0.00  0.00    +0.000 A 
ATOM     16  C   UNL     1      59.962  30.938  70.483  0.00  0.00    +0.000 A 
ATOM     17  C   UNL     1      62.412  29.969  71.362  0.00  0.00    +0.000 A 
ATOM     18  C   UNL     1      58.982  36.430  75.498  0.00  0.00    +0.000 A 
ATOM     19  C   UNL     1      60.562  29.868  69.823  0.00  0.00    +0.000 A 
ATOM     20  C   UNL     1      61.788  29.383  70.263  0.00  0.00    +0.000 A 
ENDROOT
TORSDOF 0
ENDMDL
MODEL 6
REMARK VINA RESULT:      -6.5     44.460     46.861
REMARK  Name = Benzo[a]pyrene.pdbqt.pdb
REMARK  0 active torsions:
REMARK  status: ('A' for Active; 'I' for Inactive)
REMARK                            x       y       z     vdW  Elec       q    Type
REMARK                         _______ _______ _______ _____ _____    ______ ____
ROOT
ATOM      1  C   UNL     1      13.197   5.857  98.669  0.00  0.00    +0.000 A 
ATOM      2  C   UNL     1      13.027   4.499  98.319  0.00  0.00    +0.000 A 
ATOM      3  C   UNL     1      12.739   6.336  99.917  0.00  0.00    +0.000 A 
ATOM      4  C   UNL     1      13.828   6.728  97.756  0.00  0.00    +0.000 A 
ATOM      5  C   UNL     1      12.922   7.703 100.241  0.00  0.00    +0.000 A 
ATOM      6  C   UNL     1      12.399   3.612  99.216  0.00  0.00    +0.000 A 
ATOM      7  C   UNL     1      13.486   4.026  97.071  0.00  0.00    +0.000 A 
ATOM      8  C   UNL     1      13.557   8.559  99.313  0.00  0.00    +0.000 A 
ATOM      9  C   UNL     1      14.001   8.067  98.088  0.00  0.00    +0.000 A 
ATOM     10  C   UNL     1      12.117   5.424 100.787  0.00  0.00    +0.000 A 
ATOM     11  C   UNL     1      14.276   6.246  96.526  0.00  0.00    +0.000 A 
ATOM     12  C   UNL     1      11.948   4.082 100.446  0.00  0.00    +0.000 A 
ATOM     13  C   UNL     1      14.107   4.904  96.185  0.00  0.00    +0.000 A 
ATOM     14  C   UNL     1      12.236   2.273  98.862  0.00  0.00    +0.000 A 
ATOM     15  C   UNL     1      13.313   2.683  96.737  0.00  0.00    +0.000 A 
ATOM     16  C   UNL     1      12.496   8.256 101.461  0.00  0.00    +0.000 A 
ATOM     17  C   UNL     1      13.748   9.908  99.611  0.00  0.00    +0.000 A 
ATOM     18  C   UNL     1      12.691   1.810  97.628  0.00  0.00    +0.000 A 
ATOM     19  C   UNL     1      12.689   9.604 101.753  0.00  0.00    +0.000 A 
ATOM     20  C   UNL     1      13.316  10.430 100.828  0.00  0.00    +0.000 A 
ENDROOT
TORSDOF 0
ENDMDL
MODEL 7
REMARK VINA RESULT:      -6.2     50.210     52.661
REMARK  Name = Benzo[a]pyrene.pdbqt.pdb
REMARK  0 active torsions:
REMARK  status: ('A' for Active; 'I' for Inactive)
REMARK                            x       y       z     vdW  Elec       q    Type
REMARK                         _______ _______ _______ _____ _____    ______ ____
ROOT
ATOM      1  C   UNL     1       3.207  13.327  95.837  0.00  0.00    +0.000 A 
ATOM      2  C   UNL     1       4.329  14.163  96.030  0.00  0.00    +0.000 A 
ATOM      3  C   UNL     1       3.283  11.948  96.134  0.00  0.00    +0.000 A 
ATOM      4  C   UNL     1       2.010  13.888  95.343  0.00  0.00    +0.000 A 
ATOM      5  C   UNL     1       2.142  11.133  95.931  0.00  0.00    +0.000 A 
ATOM      6  C   UNL     1       5.535  13.624  96.522  0.00  0.00    +0.000 A 
ATOM      7  C   UNL     1       4.247  15.539  95.731  0.00  0.00    +0.000 A 
ATOM      8  C   UNL     1       0.952  11.714  95.436  0.00  0.00    +0.000 A 
ATOM      9  C   UNL     1       0.897  13.075  95.149  0.00  0.00    +0.000 A 
ATOM     10  C   UNL     1       4.501  11.444  96.623  0.00  0.00    +0.000 A 
ATOM     11  C   UNL     1       1.944  15.250  95.053  0.00  0.00    +0.000 A 
ATOM     12  C   UNL     1       5.611  12.265  96.815  0.00  0.00    +0.000 A 
ATOM     13  C   UNL     1       3.054  16.071  95.244  0.00  0.00    +0.000 A 
ATOM     14  C   UNL     1       6.638  14.456  96.709  0.00  0.00    +0.000 A 
ATOM     15  C   UNL     1       5.362  16.355  95.925  0.00  0.00    +0.000 A 
ATOM     16  C   UNL     1       2.137   9.754  96.203  0.00  0.00    +0.000 A 
ATOM     17  C   UNL     1      -0.183  10.931  95.229  0.00  0.00    +0.000 A 
ATOM     18  C   UNL     1       6.552  15.816  96.412  0.00  0.00    +0.000 A 
ATOM     19  C   UNL     1       1.000   8.978  95.994  0.00  0.00    +0.000 A 
ATOM     20  C   UNL     1      -0.160   9.566  95.506  0.00  0.00    +0.000 A 
ENDROOT
TORSDOF 0
ENDMDL
MODEL 8
REMARK VINA RESULT:      -6.1     44.164     47.083
REMARK  Name = Benzo[a]pyrene.pdbqt.pdb
REMARK  0 active torsions:
REMARK  status: ('A' for Active; 'I' for Inactive)
REMARK                            x       y       z     vdW  Elec       q    Type
REMARK                         _______ _______ _______ _____ _____    ______ ____
ROOT
ATOM      1  C   UNL     1      12.987   7.412  99.588  0.00  0.00    +0.000 A 
ATOM      2  C   UNL     1      13.278   6.386  98.662  0.00  0.00    +0.000 A 
ATOM      3  C   UNL     1      12.272   7.125 100.773  0.00  0.00    +0.000 A 
ATOM      4  C   UNL     1      13.419   8.727  99.315  0.00  0.00    +0.000 A 
ATOM      5  C   UNL     1      11.994   8.173 101.684  0.00  0.00    +0.000 A 
ATOM      6  C   UNL     1      12.855   5.066  98.916  0.00  0.00    +0.000 A 
ATOM      7  C   UNL     1      13.992   6.679  97.482  0.00  0.00    +0.000 A 
ATOM      8  C   UNL     1      12.436   9.484 101.392  0.00  0.00    +0.000 A 
ATOM      9  C   UNL     1      13.139   9.747 100.219  0.00  0.00    +0.000 A 
ATOM     10  C   UNL     1      11.866   5.797 100.993  0.00  0.00    +0.000 A 
ATOM     11  C   UNL     1      14.124   9.001  98.144  0.00  0.00    +0.000 A 
ATOM     12  C   UNL     1      12.151   4.781 100.082  0.00  0.00    +0.000 A 
ATOM     13  C   UNL     1      14.410   7.985  97.233  0.00  0.00    +0.000 A 
ATOM     14  C   UNL     1      13.147   4.059  97.996  0.00  0.00    +0.000 A 
ATOM     15  C   UNL     1      14.274   5.658  96.574  0.00  0.00    +0.000 A 
ATOM     16  C   UNL     1      11.289   7.969 102.882  0.00  0.00    +0.000 A 
ATOM     17  C   UNL     1      12.173  10.531 102.274  0.00  0.00    +0.000 A 
ATOM     18  C   UNL     1      13.853   4.354  96.831  0.00  0.00    +0.000 A 
ATOM     19  C   UNL     1      11.030   9.019 103.760  0.00  0.00    +0.000 A 
ATOM     20  C   UNL     1      11.472  10.301 103.455  0.00  0.00    +0.000 A 
ENDROOT
TORSDOF 0
ENDMDL
MODEL 9
REMARK VINA RESULT:      -6.0      8.691     11.236
REMARK  Name = Benzo[a]pyrene.pdbqt.pdb
REMARK  0 active torsions:
REMARK  status: ('A' for Active; 'I' for Inactive)
REMARK                            x       y       z     vdW  Elec       q    Type
REMARK                         _______ _______ _______ _____ _____    ______ ____
ROOT
ATOM      1  C   UNL     1      47.518  24.869  84.996  0.00  0.00    +0.000 A 
ATOM      2  C   UNL     1      48.422  23.784  84.963  0.00  0.00    +0.000 A 
ATOM      3  C   UNL     1      46.351  24.851  84.199  0.00  0.00    +0.000 A 
ATOM      4  C   UNL     1      47.796  25.969  85.835  0.00  0.00    +0.000 A 
ATOM      5  C   UNL     1      45.462  25.953  84.252  0.00  0.00    +0.000 A 
ATOM      6  C   UNL     1      48.164  22.675  84.132  0.00  0.00    +0.000 A 
ATOM      7  C   UNL     1      49.586  23.806  85.760  0.00  0.00    +0.000 A 
ATOM      8  C   UNL     1      45.758  27.045  85.099  0.00  0.00    +0.000 A 
ATOM      9  C   UNL     1      46.913  27.043  85.876  0.00  0.00    +0.000 A 
ATOM     10  C   UNL     1      46.126  23.730  83.383  0.00  0.00    +0.000 A 
ATOM     11  C   UNL     1      48.949  25.977  86.617  0.00  0.00    +0.000 A 
ATOM     12  C   UNL     1      47.015  22.657  83.347  0.00  0.00    +0.000 A 
ATOM     13  C   UNL     1      49.839  24.904  86.581  0.00  0.00    +0.000 A 
ATOM     14  C   UNL     1      49.063  21.609  84.106  0.00  0.00    +0.000 A 
ATOM     15  C   UNL     1      50.472  22.730  85.720  0.00  0.00    +0.000 A 
ATOM     16  C   UNL     1      44.282  26.011  83.491  0.00  0.00    +0.000 A 
ATOM     17  C   UNL     1      44.897  28.140  85.167  0.00  0.00    +0.000 A 
ATOM     18  C   UNL     1      50.211  21.636  84.896  0.00  0.00    +0.000 A 
ATOM     19  C   UNL     1      43.426  27.108  83.564  0.00  0.00    +0.000 A 
ATOM     20  C   UNL     1      43.734  28.173  84.402  0.00  0.00    +0.000 A 
ENDROOT
TORSDOF 0
ENDMDL
