MODEL 1
REMARK VINA RESULT:      -6.4      0.000      0.000
REMARK  Name = Bicalutamide.pdbqt.pdb
REMARK  8 active torsions:
REMARK  status: ('A' for Active; 'I' for Inactive)
REMARK    1  A    between atoms: C_2  and  N_13
REMARK    2  A    between atoms: C_5  and  C_9
REMARK    3  A    between atoms: C_6  and  C_8
REMARK    4  A    between atoms: C_14  and  C_17
REMARK    5  A    between atoms: C_17  and  O_19
REMARK    6  A    between atoms: C_17  and  C_21
REMARK    7  A    between atoms: C_21  and  S_22
REMARK    8  A    between atoms: S_22  and  C_25
REMARK                            x       y       z     vdW  Elec       q    Type
REMARK                         _______ _______ _______ _____ _____    ______ ____
ROOT
ATOM      1  N   UNL     1      59.513  34.506  86.361  0.00  0.00    +0.000 N 
ATOM      2  C   UNL     1      58.559  34.536  87.375  0.00  0.00    +0.000 C 
ATOM      3  O   UNL     1      58.787  34.287  88.563  0.00  0.00    +0.000 OA
ATOM      4  H   UNL     1      59.212  34.832  85.442  0.00  0.00    +0.000 HD
ENDROOT
BRANCH   1   5
ATOM      5  C   UNL     1      60.864  34.151  86.510  0.00  0.00    +0.000 A 
ATOM      6  C   UNL     1      61.156  32.823  86.820  0.00  0.00    +0.000 A 
ATOM      7  C   UNL     1      61.906  35.063  86.375  0.00  0.00    +0.000 A 
ATOM      8  C   UNL     1      62.476  32.391  86.993  0.00  0.00    +0.000 A 
ATOM      9  C   UNL     1      63.517  33.320  86.852  0.00  0.00    +0.000 A 
ATOM     10  C   UNL     1      63.225  34.650  86.545  0.00  0.00    +0.000 A 
BRANCH   8  11
ATOM     11  C   UNL     1      62.734  30.950  87.325  0.00  0.00    +0.000 C 
ATOM     12  F   UNL     1      61.595  30.213  87.444  0.00  0.00    +0.000 F 
ATOM     13  F   UNL     1      63.481  30.327  86.376  0.00  0.00    +0.000 F 
ATOM     14  F   UNL     1      63.398  30.799  88.502  0.00  0.00    +0.000 F 
ENDBRANCH   8  11
BRANCH   9  16
ATOM     15  N   UNL     1      66.003  32.649  87.144  0.00  0.00    +0.000 NA
ATOM     16  C   UNL     1      64.892  32.957  87.014  0.00  0.00    +0.000 C 
ENDBRANCH   9  16
ENDBRANCH   1   5
BRANCH   2  17
ATOM     17  C   UNL     1      57.087  34.879  86.905  0.00  0.00    +0.000 C 
ATOM     18  C   UNL     1      56.335  35.724  87.972  0.00  0.00    +0.000 C 
BRANCH  17  19
ATOM     19  O   UNL     1      56.341  33.688  86.714  0.00  0.00    +0.000 OA
ATOM     20  H   UNL     1      57.007  33.016  86.472  0.00  0.00    +0.000 HD
ENDBRANCH  17  19
BRANCH  17  21
ATOM     21  C   UNL     1      57.170  35.579  85.660  0.00  0.00    +0.000 C 
BRANCH  21  22
ATOM     22  S   UNL     1      57.327  36.603  84.281  0.00  0.00    +0.000 S 
ATOM     23  O   UNL     1      58.576  37.226  84.637  0.00  0.00    +0.000 OA
ATOM     24  O   UNL     1      56.024  37.215  84.378  0.00  0.00    +0.000 OA
BRANCH  22  25
ATOM     25  C   UNL     1      57.475  35.625  82.859  0.00  0.00    +0.000 A 
ATOM     26  C   UNL     1      58.115  34.396  82.973  0.00  0.00    +0.000 A 
ATOM     27  C   UNL     1      58.267  33.602  81.840  0.00  0.00    +0.000 A 
ATOM     28  C   UNL     1      57.781  34.055  80.617  0.00  0.00    +0.000 A 
ATOM     29  F   UNL     1      57.928  33.291  79.526  0.00  0.00    +0.000 F 
ATOM     30  C   UNL     1      57.147  35.290  80.506  0.00  0.00    +0.000 A 
ATOM     31  C   UNL     1      56.994  36.085  81.637  0.00  0.00    +0.000 A 
ENDBRANCH  22  25
ENDBRANCH  21  22
ENDBRANCH  17  21
ENDBRANCH   2  17
TORSDOF 8
ENDMDL
MODEL 2
REMARK VINA RESULT:      -6.1     17.012     19.752
REMARK  Name = Bicalutamide.pdbqt.pdb
REMARK  8 active torsions:
REMARK  status: ('A' for Active; 'I' for Inactive)
REMARK    1  A    between atoms: C_2  and  N_13
REMARK    2  A    between atoms: C_5  and  C_9
REMARK    3  A    between atoms: C_6  and  C_8
REMARK    4  A    between atoms: C_14  and  C_17
REMARK    5  A    between atoms: C_17  and  O_19
REMARK    6  A    between atoms: C_17  and  C_21
REMARK    7  A    between atoms: C_21  and  S_22
REMARK    8  A    between atoms: S_22  and  C_25
REMARK                            x       y       z     vdW  Elec       q    Type
REMARK                         _______ _______ _______ _____ _____    ______ ____
ROOT
ATOM      1  N   UNL     1      43.425  25.570  84.189  0.00  0.00    +0.000 N 
ATOM      2  C   UNL     1      43.660  26.942  84.164  0.00  0.00    +0.000 C 
ATOM      3  O   UNL     1      42.817  27.794  83.864  0.00  0.00    +0.000 OA
ATOM      4  H   UNL     1      44.179  24.986  84.553  0.00  0.00    +0.000 HD
ENDROOT
BRANCH   1   5
ATOM      5  C   UNL     1      42.223  24.932  83.841  0.00  0.00    +0.000 A 
ATOM      6  C   UNL     1      42.036  24.586  82.503  0.00  0.00    +0.000 A 
ATOM      7  C   UNL     1      41.222  24.648  84.764  0.00  0.00    +0.000 A 
ATOM      8  C   UNL     1      40.862  23.956  82.073  0.00  0.00    +0.000 A 
ATOM      9  C   UNL     1      39.861  23.673  83.015  0.00  0.00    +0.000 A 
ATOM     10  C   UNL     1      40.047  24.021  84.354  0.00  0.00    +0.000 A 
BRANCH   8  11
ATOM     11  C   UNL     1      40.712  23.605  80.622  0.00  0.00    +0.000 C 
ATOM     12  F   UNL     1      39.698  24.276  80.009  0.00  0.00    +0.000 F 
ATOM     13  F   UNL     1      41.830  23.886  79.903  0.00  0.00    +0.000 F 
ATOM     14  F   UNL     1      40.451  22.284  80.431  0.00  0.00    +0.000 F 
ENDBRANCH   8  11
BRANCH   9  16
ATOM     15  N   UNL     1      37.638  22.520  82.352  0.00  0.00    +0.000 NA
ATOM     16  C   UNL     1      38.633  23.031  82.655  0.00  0.00    +0.000 C 
ENDBRANCH   9  16
ENDBRANCH   1   5
BRANCH   2  17
ATOM     17  C   UNL     1      45.140  27.380  84.513  0.00  0.00    +0.000 C 
ATOM     18  C   UNL     1      45.288  27.721  86.023  0.00  0.00    +0.000 C 
BRANCH  17  19
ATOM     19  O   UNL     1      45.493  28.545  83.785  0.00  0.00    +0.000 OA
ATOM     20  H   UNL     1      45.683  29.215  84.468  0.00  0.00    +0.000 HD
ENDBRANCH  17  19
BRANCH  17  21
ATOM     21  C   UNL     1      46.018  26.315  84.139  0.00  0.00    +0.000 C 
BRANCH  21  22
ATOM     22  S   UNL     1      46.909  24.956  83.559  0.00  0.00    +0.000 S 
ATOM     23  O   UNL     1      47.371  25.535  82.323  0.00  0.00    +0.000 OA
ATOM     24  O   UNL     1      45.845  23.991  83.688  0.00  0.00    +0.000 OA
BRANCH  22  25
ATOM     25  C   UNL     1      48.216  24.625  84.645  0.00  0.00    +0.000 A 
ATOM     26  C   UNL     1      48.615  23.303  84.807  0.00  0.00    +0.000 A 
ATOM     27  C   UNL     1      49.648  23.009  85.693  0.00  0.00    +0.000 A 
ATOM     28  C   UNL     1      50.257  24.041  86.401  0.00  0.00    +0.000 A 
ATOM     29  F   UNL     1      51.251  23.758  87.253  0.00  0.00    +0.000 F 
ATOM     30  C   UNL     1      49.849  25.363  86.240  0.00  0.00    +0.000 A 
ATOM     31  C   UNL     1      48.817  25.659  85.357  0.00  0.00    +0.000 A 
ENDBRANCH  22  25
ENDBRANCH  21  22
ENDBRANCH  17  21
ENDBRANCH   2  17
TORSDOF 8
ENDMDL
MODEL 3
REMARK VINA RESULT:      -6.0     55.227     57.166
REMARK  Name = Bicalutamide.pdbqt.pdb
REMARK  8 active torsions:
REMARK  status: ('A' for Active; 'I' for Inactive)
REMARK    1  A    between atoms: C_2  and  N_13
REMARK    2  A    between atoms: C_5  and  C_9
REMARK    3  A    between atoms: C_6  and  C_8
REMARK    4  A    between atoms: C_14  and  C_17
REMARK    5  A    between atoms: C_17  and  O_19
REMARK    6  A    between atoms: C_17  and  C_21
REMARK    7  A    between atoms: C_21  and  S_22
REMARK    8  A    between atoms: S_22  and  C_25
REMARK                            x       y       z     vdW  Elec       q    Type
REMARK                         _______ _______ _______ _____ _____    ______ ____
ROOT
ATOM      1  N   UNL     1      13.844   4.368  97.562  0.00  0.00    +0.000 N 
ATOM      2  C   UNL     1      13.023   5.002  98.491  0.00  0.00    +0.000 C 
ATOM      3  O   UNL     1      11.915   4.587  98.849  0.00  0.00    +0.000 OA
ATOM      4  H   UNL     1      14.776   4.764  97.433  0.00  0.00    +0.000 HD
ENDROOT
BRANCH   1   5
ATOM      5  C   UNL     1      13.537   3.194  96.855  0.00  0.00    +0.000 A 
ATOM      6  C   UNL     1      13.373   3.291  95.474  0.00  0.00    +0.000 A 
ATOM      7  C   UNL     1      13.379   1.958  97.473  0.00  0.00    +0.000 A 
ATOM      8  C   UNL     1      13.058   2.169  94.699  0.00  0.00    +0.000 A 
ATOM      9  C   UNL     1      12.904   0.928  95.335  0.00  0.00    +0.000 A 
ATOM     10  C   UNL     1      13.065   0.830  96.718  0.00  0.00    +0.000 A 
BRANCH   8  11
ATOM     11  C   UNL     1      12.894   2.329  93.216  0.00  0.00    +0.000 C 
ATOM     12  F   UNL     1      13.820   1.639  92.495  0.00  0.00    +0.000 F 
ATOM     13  F   UNL     1      11.683   1.892  92.779  0.00  0.00    +0.000 F 
ATOM     14  F   UNL     1      13.004   3.624  92.818  0.00  0.00    +0.000 F 
ENDBRANCH   8  11
BRANCH   9  16
ATOM     15  N   UNL     1      12.310  -1.225  94.022  0.00  0.00    +0.000 NA
ATOM     16  C   UNL     1      12.582  -0.265  94.613  0.00  0.00    +0.000 C 
ENDBRANCH   9  16
ENDBRANCH   1   5
BRANCH   2  17
ATOM     17  C   UNL     1      13.581   6.368  99.064  0.00  0.00    +0.000 C 
ATOM     18  C   UNL     1      13.774   7.418  97.934  0.00  0.00    +0.000 C 
BRANCH  17  19
ATOM     19  O   UNL     1      14.848   6.166  99.669  0.00  0.00    +0.000 OA
ATOM     20  H   UNL     1      15.109   5.265  99.399  0.00  0.00    +0.000 HD
ENDBRANCH  17  19
BRANCH  17  21
ATOM     21  C   UNL     1      12.664   6.842 100.054  0.00  0.00    +0.000 C 
BRANCH  21  22
ATOM     22  S   UNL     1      11.705   7.338 101.400  0.00  0.00    +0.000 S 
ATOM     23  O   UNL     1      12.699   7.158 102.428  0.00  0.00    +0.000 OA
ATOM     24  O   UNL     1      10.591   6.458 101.144  0.00  0.00    +0.000 OA
BRANCH  22  25
ATOM     25  C   UNL     1      11.270   9.003 101.207  0.00  0.00    +0.000 A 
ATOM     26  C   UNL     1      12.275   9.959 101.310  0.00  0.00    +0.000 A 
ATOM     27  C   UNL     1      11.947  11.306 101.181  0.00  0.00    +0.000 A 
ATOM     28  C   UNL     1      10.621  11.668 100.958  0.00  0.00    +0.000 A 
ATOM     29  F   UNL     1      10.306  12.964 100.834  0.00  0.00    +0.000 F 
ATOM     30  C   UNL     1       9.618  10.708 100.862  0.00  0.00    +0.000 A 
ATOM     31  C   UNL     1       9.944   9.362 100.991  0.00  0.00    +0.000 A 
ENDBRANCH  22  25
ENDBRANCH  21  22
ENDBRANCH  17  21
ENDBRANCH   2  17
TORSDOF 8
ENDMDL
MODEL 4
REMARK VINA RESULT:      -6.0     17.609     20.007
REMARK  Name = Bicalutamide.pdbqt.pdb
REMARK  8 active torsions:
REMARK  status: ('A' for Active; 'I' for Inactive)
REMARK    1  A    between atoms: C_2  and  N_13
REMARK    2  A    between atoms: C_5  and  C_9
REMARK    3  A    between atoms: C_6  and  C_8
REMARK    4  A    between atoms: C_14  and  C_17
REMARK    5  A    between atoms: C_17  and  O_19
REMARK    6  A    between atoms: C_17  and  C_21
REMARK    7  A    between atoms: C_21  and  S_22
REMARK    8  A    between atoms: S_22  and  C_25
REMARK                            x       y       z     vdW  Elec       q    Type
REMARK                         _______ _______ _______ _____ _____    ______ ____
ROOT
ATOM      1  N   UNL     1      51.784  18.077  75.946  0.00  0.00    +0.000 N 
ATOM      2  C   UNL     1      52.496  17.022  75.382  0.00  0.00    +0.000 C 
ATOM      3  O   UNL     1      53.649  17.107  74.946  0.00  0.00    +0.000 OA
ATOM      4  H   UNL     1      50.878  17.846  76.358  0.00  0.00    +0.000 HD
ENDROOT
BRANCH   1   5
ATOM      5  C   UNL     1      52.232  19.401  76.073  0.00  0.00    +0.000 A 
ATOM      6  C   UNL     1      52.271  19.955  77.353  0.00  0.00    +0.000 A 
ATOM      7  C   UNL     1      52.622  20.176  74.985  0.00  0.00    +0.000 A 
ATOM      8  C   UNL     1      52.697  21.272  77.562  0.00  0.00    +0.000 A 
ATOM      9  C   UNL     1      53.089  22.041  76.457  0.00  0.00    +0.000 A 
ATOM     10  C   UNL     1      53.048  21.488  75.175  0.00  0.00    +0.000 A 
BRANCH   8  11
ATOM     11  C   UNL     1      52.720  21.817  78.960  0.00  0.00    +0.000 C 
ATOM     12  F   UNL     1      51.891  21.151  79.811  0.00  0.00    +0.000 F 
ATOM     13  F   UNL     1      53.956  21.752  79.521  0.00  0.00    +0.000 F 
ATOM     14  F   UNL     1      52.338  23.120  79.015  0.00  0.00    +0.000 F 
ENDBRANCH   8  11
BRANCH   9  16
ATOM     15  N   UNL     1      53.913  24.485  76.697  0.00  0.00    +0.000 NA
ATOM     16  C   UNL     1      53.537  23.394  76.588  0.00  0.00    +0.000 C 
ENDBRANCH   9  16
ENDBRANCH   1   5
BRANCH   2  17
ATOM     17  C   UNL     1      51.708  15.653  75.279  0.00  0.00    +0.000 C 
ATOM     18  C   UNL     1      52.679  14.454  75.090  0.00  0.00    +0.000 C 
BRANCH  17  19
ATOM     19  O   UNL     1      50.839  15.669  74.158  0.00  0.00    +0.000 OA
ATOM     20  H   UNL     1      49.953  15.495  74.530  0.00  0.00    +0.000 HD
ENDBRANCH  17  19
BRANCH  17  21
ATOM     21  C   UNL     1      50.928  15.500  76.469  0.00  0.00    +0.000 C 
BRANCH  21  22
ATOM     22  S   UNL     1      50.180  15.269  78.006  0.00  0.00    +0.000 S 
ATOM     23  O   UNL     1      50.671  13.940  78.267  0.00  0.00    +0.000 OA
ATOM     24  O   UNL     1      48.840  15.604  77.591  0.00  0.00    +0.000 OA
BRANCH  22  25
ATOM     25  C   UNL     1      50.816  16.425  79.128  0.00  0.00    +0.000 A 
ATOM     26  C   UNL     1      52.191  16.447  79.338  0.00  0.00    +0.000 A 
ATOM     27  C   UNL     1      52.723  17.352  80.252  0.00  0.00    +0.000 A 
ATOM     28  C   UNL     1      51.870  18.209  80.942  0.00  0.00    +0.000 A 
ATOM     29  F   UNL     1      52.383  19.080  81.822  0.00  0.00    +0.000 F 
ATOM     30  C   UNL     1      50.494  18.178  80.734  0.00  0.00    +0.000 A 
ATOM     31  C   UNL     1      49.960  17.275  79.821  0.00  0.00    +0.000 A 
ENDBRANCH  22  25
ENDBRANCH  21  22
ENDBRANCH  17  21
ENDBRANCH   2  17
TORSDOF 8
ENDMDL
MODEL 5
REMARK VINA RESULT:      -5.7     43.154     44.873
REMARK  Name = Bicalutamide.pdbqt.pdb
REMARK  8 active torsions:
REMARK  status: ('A' for Active; 'I' for Inactive)
REMARK    1  A    between atoms: C_2  and  N_13
REMARK    2  A    between atoms: C_5  and  C_9
REMARK    3  A    between atoms: C_6  and  C_8
REMARK    4  A    between atoms: C_14  and  C_17
REMARK    5  A    between atoms: C_17  and  O_19
REMARK    6  A    between atoms: C_17  and  C_21
REMARK    7  A    between atoms: C_21  and  S_22
REMARK    8  A    between atoms: S_22  and  C_25
REMARK                            x       y       z     vdW  Elec       q    Type
REMARK                         _______ _______ _______ _____ _____    ______ ____
ROOT
ATOM      1  N   UNL     1      24.774   9.312  86.866  0.00  0.00    +0.000 N 
ATOM      2  C   UNL     1      24.330  10.193  87.848  0.00  0.00    +0.000 C 
ATOM      3  O   UNL     1      23.832   9.851  88.926  0.00  0.00    +0.000 OA
ATOM      4  H   UNL     1      25.257   9.727  86.068  0.00  0.00    +0.000 HD
ENDROOT
BRANCH   1   5
ATOM      5  C   UNL     1      24.691   7.911  86.915  0.00  0.00    +0.000 A 
ATOM      6  C   UNL     1      23.453   7.324  86.654  0.00  0.00    +0.000 A 
ATOM      7  C   UNL     1      25.777   7.099  87.223  0.00  0.00    +0.000 A 
ATOM      8  C   UNL     1      23.285   5.935  86.692  0.00  0.00    +0.000 A 
ATOM      9  C   UNL     1      24.390   5.127  87.002  0.00  0.00    +0.000 A 
ATOM     10  C   UNL     1      25.629   5.715  87.266  0.00  0.00    +0.000 A 
BRANCH   8  11
ATOM     11  C   UNL     1      21.932   5.355  86.402  0.00  0.00    +0.000 C 
ATOM     12  F   UNL     1      21.566   4.379  87.279  0.00  0.00    +0.000 F 
ATOM     13  F   UNL     1      20.946   6.290  86.457  0.00  0.00    +0.000 F 
ATOM     14  F   UNL     1      21.862   4.790  85.168  0.00  0.00    +0.000 F 
ENDBRANCH   8  11
BRANCH   9  16
ATOM     15  N   UNL     1      24.214   2.544  87.102  0.00  0.00    +0.000 NA
ATOM     16  C   UNL     1      24.300   3.700  87.060  0.00  0.00    +0.000 C 
ENDBRANCH   9  16
ENDBRANCH   1   5
BRANCH   2  17
ATOM     17  C   UNL     1      24.459  11.729  87.487  0.00  0.00    +0.000 C 
ATOM     18  C   UNL     1      25.927  12.106  87.139  0.00  0.00    +0.000 C 
BRANCH  17  19
ATOM     19  O   UNL     1      24.072  12.529  88.592  0.00  0.00    +0.000 OA
ATOM     20  H   UNL     1      23.218  12.920  88.326  0.00  0.00    +0.000 HD
ENDBRANCH  17  19
BRANCH  17  21
ATOM     21  C   UNL     1      23.585  12.001  86.387  0.00  0.00    +0.000 C 
BRANCH  21  22
ATOM     22  S   UNL     1      22.493  12.109  85.056  0.00  0.00    +0.000 S 
ATOM     23  O   UNL     1      23.368  12.791  84.137  0.00  0.00    +0.000 OA
ATOM     24  O   UNL     1      21.403  12.712  85.784  0.00  0.00    +0.000 OA
BRANCH  22  25
ATOM     25  C   UNL     1      22.100  10.514  84.510  0.00  0.00    +0.000 A 
ATOM     26  C   UNL     1      23.046   9.827  83.757  0.00  0.00    +0.000 A 
ATOM     27  C   UNL     1      22.745   8.551  83.287  0.00  0.00    +0.000 A 
ATOM     28  C   UNL     1      21.503   7.993  83.575  0.00  0.00    +0.000 A 
ATOM     29  F   UNL     1      21.213   6.765  83.122  0.00  0.00    +0.000 F 
ATOM     30  C   UNL     1      20.555   8.687  84.323  0.00  0.00    +0.000 A 
ATOM     31  C   UNL     1      20.855   9.961  84.794  0.00  0.00    +0.000 A 
ENDBRANCH  22  25
ENDBRANCH  21  22
ENDBRANCH  17  21
ENDBRANCH   2  17
TORSDOF 8
ENDMDL
MODEL 6
REMARK VINA RESULT:      -5.7     19.202     21.296
REMARK  Name = Bicalutamide.pdbqt.pdb
REMARK  8 active torsions:
REMARK  status: ('A' for Active; 'I' for Inactive)
REMARK    1  A    between atoms: C_2  and  N_13
REMARK    2  A    between atoms: C_5  and  C_9
REMARK    3  A    between atoms: C_6  and  C_8
REMARK    4  A    between atoms: C_14  and  C_17
REMARK    5  A    between atoms: C_17  and  O_19
REMARK    6  A    between atoms: C_17  and  C_21
REMARK    7  A    between atoms: C_21  and  S_22
REMARK    8  A    between atoms: S_22  and  C_25
REMARK                            x       y       z     vdW  Elec       q    Type
REMARK                         _______ _______ _______ _____ _____    ______ ____
ROOT
ATOM      1  N   UNL     1      42.299  23.595  82.037  0.00  0.00    +0.000 N 
ATOM      2  C   UNL     1      41.984  23.732  80.688  0.00  0.00    +0.000 C 
ATOM      3  O   UNL     1      42.443  24.605  79.944  0.00  0.00    +0.000 OA
ATOM      4  H   UNL     1      41.928  22.771  82.511  0.00  0.00    +0.000 HD
ENDROOT
BRANCH   1   5
ATOM      5  C   UNL     1      43.144  24.439  82.777  0.00  0.00    +0.000 A 
ATOM      6  C   UNL     1      42.560  25.500  83.468  0.00  0.00    +0.000 A 
ATOM      7  C   UNL     1      44.523  24.268  82.835  0.00  0.00    +0.000 A 
ATOM      8  C   UNL     1      43.333  26.392  84.220  0.00  0.00    +0.000 A 
ATOM      9  C   UNL     1      44.723  26.206  84.272  0.00  0.00    +0.000 A 
ATOM     10  C   UNL     1      45.309  25.145  83.578  0.00  0.00    +0.000 A 
BRANCH   8  11
ATOM     11  C   UNL     1      42.653  27.516  84.945  0.00  0.00    +0.000 C 
ATOM     12  F   UNL     1      42.811  28.723  84.334  0.00  0.00    +0.000 F 
ATOM     13  F   UNL     1      41.312  27.327  85.050  0.00  0.00    +0.000 F 
ATOM     14  F   UNL     1      43.122  27.677  86.210  0.00  0.00    +0.000 F 
ENDBRANCH   8  11
BRANCH   9  16
ATOM     15  N   UNL     1      46.283  27.782  85.611  0.00  0.00    +0.000 NA
ATOM     16  C   UNL     1      45.583  27.073  85.018  0.00  0.00    +0.000 C 
ENDBRANCH   9  16
ENDBRANCH   1   5
BRANCH   2  17
ATOM     17  C   UNL     1      40.925  22.693  80.134  0.00  0.00    +0.000 C 
ATOM     18  C   UNL     1      39.964  22.212  81.258  0.00  0.00    +0.000 C 
BRANCH  17  19
ATOM     19  O   UNL     1      41.583  21.545  79.625  0.00  0.00    +0.000 OA
ATOM     20  H   UNL     1      41.671  21.715  78.668  0.00  0.00    +0.000 HD
ENDBRANCH  17  19
BRANCH  17  21
ATOM     21  C   UNL     1      40.201  23.322  79.073  0.00  0.00    +0.000 C 
BRANCH  21  22
ATOM     22  S   UNL     1      39.301  24.252  77.932  0.00  0.00    +0.000 S 
ATOM     23  O   UNL     1      39.805  25.552  78.295  0.00  0.00    +0.000 OA
ATOM     24  O   UNL     1      38.002  23.728  78.278  0.00  0.00    +0.000 OA
BRANCH  22  25
ATOM     25  C   UNL     1      39.773  23.800  76.329  0.00  0.00    +0.000 A 
ATOM     26  C   UNL     1      39.769  24.782  75.343  0.00  0.00    +0.000 A 
ATOM     27  C   UNL     1      40.122  24.438  74.042  0.00  0.00    +0.000 A 
ATOM     28  C   UNL     1      40.467  23.121  73.751  0.00  0.00    +0.000 A 
ATOM     29  F   UNL     1      40.807  22.791  72.498  0.00  0.00    +0.000 F 
ATOM     30  C   UNL     1      40.462  22.140  74.740  0.00  0.00    +0.000 A 
ATOM     31  C   UNL     1      40.109  22.481  76.041  0.00  0.00    +0.000 A 
ENDBRANCH  22  25
ENDBRANCH  21  22
ENDBRANCH  17  21
ENDBRANCH   2  17
TORSDOF 8
ENDMDL
MODEL 7
REMARK VINA RESULT:      -5.6     10.873     14.387
REMARK  Name = Bicalutamide.pdbqt.pdb
REMARK  8 active torsions:
REMARK  status: ('A' for Active; 'I' for Inactive)
REMARK    1  A    between atoms: C_2  and  N_13
REMARK    2  A    between atoms: C_5  and  C_9
REMARK    3  A    between atoms: C_6  and  C_8
REMARK    4  A    between atoms: C_14  and  C_17
REMARK    5  A    between atoms: C_17  and  O_19
REMARK    6  A    between atoms: C_17  and  C_21
REMARK    7  A    between atoms: C_21  and  S_22
REMARK    8  A    between atoms: S_22  and  C_25
REMARK                            x       y       z     vdW  Elec       q    Type
REMARK                         _______ _______ _______ _____ _____    ______ ____
ROOT
ATOM      1  N   UNL     1      59.994  33.822  72.311  0.00  0.00    +0.000 N 
ATOM      2  C   UNL     1      59.996  34.530  71.112  0.00  0.00    +0.000 C 
ATOM      3  O   UNL     1      59.883  35.757  71.021  0.00  0.00    +0.000 OA
ATOM      4  H   UNL     1      60.197  32.823  72.250  0.00  0.00    +0.000 HD
ENDROOT
BRANCH   1   5
ATOM      5  C   UNL     1      59.822  34.370  73.593  0.00  0.00    +0.000 A 
ATOM      6  C   UNL     1      58.691  35.152  73.819  0.00  0.00    +0.000 A 
ATOM      7  C   UNL     1      60.732  34.175  74.627  0.00  0.00    +0.000 A 
ATOM      8  C   UNL     1      58.452  35.741  75.066  0.00  0.00    +0.000 A 
ATOM      9  C   UNL     1      59.376  35.535  76.101  0.00  0.00    +0.000 A 
ATOM     10  C   UNL     1      60.511  34.753  75.875  0.00  0.00    +0.000 A 
BRANCH   8  11
ATOM     11  C   UNL     1      57.217  36.574  75.255  0.00  0.00    +0.000 C 
ATOM     12  F   UNL     1      56.582  36.866  74.087  0.00  0.00    +0.000 F 
ATOM     13  F   UNL     1      56.292  35.957  76.036  0.00  0.00    +0.000 F 
ATOM     14  F   UNL     1      57.483  37.771  75.842  0.00  0.00    +0.000 F 
ENDBRANCH   8  11
BRANCH   9  16
ATOM     15  N   UNL     1      59.078  36.564  78.460  0.00  0.00    +0.000 NA
ATOM     16  C   UNL     1      59.203  36.102  77.404  0.00  0.00    +0.000 C 
ENDBRANCH   9  16
ENDBRANCH   1   5
BRANCH   2  17
ATOM     17  C   UNL     1      60.111  33.644  69.806  0.00  0.00    +0.000 C 
ATOM     18  C   UNL     1      61.400  33.984  69.004  0.00  0.00    +0.000 C 
BRANCH  17  19
ATOM     19  O   UNL     1      59.008  33.888  68.948  0.00  0.00    +0.000 OA
ATOM     20  H   UNL     1      59.354  34.499  68.269  0.00  0.00    +0.000 HD
ENDBRANCH  17  19
BRANCH  17  21
ATOM     21  C   UNL     1      60.098  32.269  70.199  0.00  0.00    +0.000 C 
BRANCH  21  22
ATOM     22  S   UNL     1      60.279  30.593  70.567  0.00  0.00    +0.000 S 
ATOM     23  O   UNL     1      59.952  30.068  69.266  0.00  0.00    +0.000 OA
ATOM     24  O   UNL     1      59.412  30.582  71.720  0.00  0.00    +0.000 OA
BRANCH  22  25
ATOM     25  C   UNL     1      61.926  30.278  70.996  0.00  0.00    +0.000 A 
ATOM     26  C   UNL     1      62.643  29.372  70.221  0.00  0.00    +0.000 A 
ATOM     27  C   UNL     1      63.963  29.084  70.559  0.00  0.00    +0.000 A 
ATOM     28  C   UNL     1      64.535  29.703  71.667  0.00  0.00    +0.000 A 
ATOM     29  F   UNL     1      65.805  29.426  71.992  0.00  0.00    +0.000 F 
ATOM     30  C   UNL     1      63.812  30.604  72.444  0.00  0.00    +0.000 A 
ATOM     31  C   UNL     1      62.493  30.893  72.108  0.00  0.00    +0.000 A 
ENDBRANCH  22  25
ENDBRANCH  21  22
ENDBRANCH  17  21
ENDBRANCH   2  17
TORSDOF 8
ENDMDL
MODEL 8
REMARK VINA RESULT:      -5.6     10.607     14.120
REMARK  Name = Bicalutamide.pdbqt.pdb
REMARK  8 active torsions:
REMARK  status: ('A' for Active; 'I' for Inactive)
REMARK    1  A    between atoms: C_2  and  N_13
REMARK    2  A    between atoms: C_5  and  C_9
REMARK    3  A    between atoms: C_6  and  C_8
REMARK    4  A    between atoms: C_14  and  C_17
REMARK    5  A    between atoms: C_17  and  O_19
REMARK    6  A    between atoms: C_17  and  C_21
REMARK    7  A    between atoms: C_21  and  S_22
REMARK    8  A    between atoms: S_22  and  C_25
REMARK                            x       y       z     vdW  Elec       q    Type
REMARK                         _______ _______ _______ _____ _____    ______ ____
ROOT
ATOM      1  N   UNL     1      59.719  33.981  72.310  0.00  0.00    +0.000 N 
ATOM      2  C   UNL     1      59.920  34.540  71.050  0.00  0.00    +0.000 C 
ATOM      3  O   UNL     1      59.882  35.750  70.805  0.00  0.00    +0.000 OA
ATOM      4  H   UNL     1      59.879  32.976  72.392  0.00  0.00    +0.000 HD
ENDROOT
BRANCH   1   5
ATOM      5  C   UNL     1      59.400  34.683  73.483  0.00  0.00    +0.000 A 
ATOM      6  C   UNL     1      60.366  34.744  74.487  0.00  0.00    +0.000 A 
ATOM      7  C   UNL     1      58.170  35.301  73.685  0.00  0.00    +0.000 A 
ATOM      8  C   UNL     1      60.123  35.416  75.690  0.00  0.00    +0.000 A 
ATOM      9  C   UNL     1      58.879  36.037  75.879  0.00  0.00    +0.000 A 
ATOM     10  C   UNL     1      57.910  35.975  74.876  0.00  0.00    +0.000 A 
BRANCH   8  11
ATOM     11  C   UNL     1      61.197  35.451  76.737  0.00  0.00    +0.000 C 
ATOM     12  F   UNL     1      61.809  36.664  76.840  0.00  0.00    +0.000 F 
ATOM     13  F   UNL     1      60.720  35.170  77.978  0.00  0.00    +0.000 F 
ATOM     14  F   UNL     1      62.190  34.555  76.492  0.00  0.00    +0.000 F 
ENDBRANCH   8  11
BRANCH   9  16
ATOM     15  N   UNL     1      58.278  37.324  78.047  0.00  0.00    +0.000 NA
ATOM     16  C   UNL     1      58.553  36.744  77.081  0.00  0.00    +0.000 C 
ENDBRANCH   9  16
ENDBRANCH   1   5
BRANCH   2  17
ATOM     17  C   UNL     1      60.170  33.501  69.883  0.00  0.00    +0.000 C 
ATOM     18  C   UNL     1      61.377  33.924  68.998  0.00  0.00    +0.000 C 
BRANCH  17  19
ATOM     19  O   UNL     1      59.035  33.431  69.035  0.00  0.00    +0.000 OA
ATOM     20  H   UNL     1      58.777  32.490  69.046  0.00  0.00    +0.000 HD
ENDBRANCH  17  19
BRANCH  17  21
ATOM     21  C   UNL     1      60.390  32.216  70.471  0.00  0.00    +0.000 C 
BRANCH  21  22
ATOM     22  S   UNL     1      60.541  30.584  71.007  0.00  0.00    +0.000 S 
ATOM     23  O   UNL     1      59.892  29.947  69.890  0.00  0.00    +0.000 OA
ATOM     24  O   UNL     1      59.962  30.783  72.314  0.00  0.00    +0.000 OA
BRANCH  22  25
ATOM     25  C   UNL     1      62.219  30.168  71.102  0.00  0.00    +0.000 A 
ATOM     26  C   UNL     1      62.750  29.353  70.108  0.00  0.00    +0.000 A 
ATOM     27  C   UNL     1      64.091  28.986  70.174  0.00  0.00    +0.000 A 
ATOM     28  C   UNL     1      64.871  29.436  71.235  0.00  0.00    +0.000 A 
ATOM     29  F   UNL     1      66.162  29.083  71.299  0.00  0.00    +0.000 F 
ATOM     30  C   UNL     1      64.334  30.246  72.233  0.00  0.00    +0.000 A 
ATOM     31  C   UNL     1      62.995  30.614  72.168  0.00  0.00    +0.000 A 
ENDBRANCH  22  25
ENDBRANCH  21  22
ENDBRANCH  17  21
ENDBRANCH   2  17
TORSDOF 8
ENDMDL
MODEL 9
REMARK VINA RESULT:      -5.5     17.664     20.261
REMARK  Name = Bicalutamide.pdbqt.pdb
REMARK  8 active torsions:
REMARK  status: ('A' for Active; 'I' for Inactive)
REMARK    1  A    between atoms: C_2  and  N_13
REMARK    2  A    between atoms: C_5  and  C_9
REMARK    3  A    between atoms: C_6  and  C_8
REMARK    4  A    between atoms: C_14  and  C_17
REMARK    5  A    between atoms: C_17  and  O_19
REMARK    6  A    between atoms: C_17  and  C_21
REMARK    7  A    between atoms: C_21  and  S_22
REMARK    8  A    between atoms: S_22  and  C_25
REMARK                            x       y       z     vdW  Elec       q    Type
REMARK                         _______ _______ _______ _____ _____    ______ ____
ROOT
ATOM      1  N   UNL     1      43.538  25.610  84.054  0.00  0.00    +0.000 N 
ATOM      2  C   UNL     1      43.705  26.991  84.117  0.00  0.00    +0.000 C 
ATOM      3  O   UNL     1      42.832  27.818  83.833  0.00  0.00    +0.000 OA
ATOM      4  H   UNL     1      44.306  25.042  84.413  0.00  0.00    +0.000 HD
ENDROOT
BRANCH   1   5
ATOM      5  C   UNL     1      42.383  24.938  83.623  0.00  0.00    +0.000 A 
ATOM      6  C   UNL     1      42.303  24.581  82.277  0.00  0.00    +0.000 A 
ATOM      7  C   UNL     1      41.324  24.630  84.472  0.00  0.00    +0.000 A 
ATOM      8  C   UNL     1      41.182  23.917  81.767  0.00  0.00    +0.000 A 
ATOM      9  C   UNL     1      40.123  23.610  82.634  0.00  0.00    +0.000 A 
ATOM     10  C   UNL     1      40.201  23.970  83.981  0.00  0.00    +0.000 A 
BRANCH   8  11
ATOM     11  C   UNL     1      41.148  23.555  80.310  0.00  0.00    +0.000 C 
ATOM     12  F   UNL     1      41.072  22.213  80.091  0.00  0.00    +0.000 F 
ATOM     13  F   UNL     1      40.080  24.097  79.668  0.00  0.00    +0.000 F 
ATOM     14  F   UNL     1      42.255  23.977  79.645  0.00  0.00    +0.000 F 
ENDBRANCH   8  11
BRANCH   9  16
ATOM     15  N   UNL     1      37.988  22.391  81.817  0.00  0.00    +0.000 NA
ATOM     16  C   UNL     1      38.942  22.933  82.190  0.00  0.00    +0.000 C 
ENDBRANCH   9  16
ENDBRANCH   1   5
BRANCH   2  17
ATOM     17  C   UNL     1      45.148  27.477  84.548  0.00  0.00    +0.000 C 
ATOM     18  C   UNL     1      45.214  27.771  86.074  0.00  0.00    +0.000 C 
BRANCH  17  19
ATOM     19  O   UNL     1      45.483  28.680  83.876  0.00  0.00    +0.000 OA
ATOM     20  H   UNL     1      44.665  29.212  83.899  0.00  0.00    +0.000 HD
ENDBRANCH  17  19
BRANCH  17  21
ATOM     21  C   UNL     1      46.087  26.463  84.180  0.00  0.00    +0.000 C 
BRANCH  21  22
ATOM     22  S   UNL     1      47.207  25.172  83.948  0.00  0.00    +0.000 S 
ATOM     23  O   UNL     1      48.180  25.575  84.932  0.00  0.00    +0.000 OA
ATOM     24  O   UNL     1      47.343  25.324  82.520  0.00  0.00    +0.000 OA
BRANCH  22  25
ATOM     25  C   UNL     1      46.447  23.674  84.368  0.00  0.00    +0.000 A 
ATOM     26  C   UNL     1      45.949  23.531  85.659  0.00  0.00    +0.000 A 
ATOM     27  C   UNL     1      45.354  22.328  86.027  0.00  0.00    +0.000 A 
ATOM     28  C   UNL     1      45.273  21.292  85.100  0.00  0.00    +0.000 A 
ATOM     29  F   UNL     1      44.700  20.134  85.455  0.00  0.00    +0.000 F 
ATOM     30  C   UNL     1      45.779  21.438  83.811  0.00  0.00    +0.000 A 
ATOM     31  C   UNL     1      46.374  22.639  83.441  0.00  0.00    +0.000 A 
ENDBRANCH  22  25
ENDBRANCH  21  22
ENDBRANCH  17  21
ENDBRANCH   2  17
TORSDOF 8
ENDMDL
