MODEL 1
REMARK VINA RESULT:      -6.1      0.000      0.000
REMARK  Name = Bisphenol_A.pdbqt.pdb
REMARK  4 active torsions:
REMARK  status: ('A' for Active; 'I' for Inactive)
REMARK    1  A    between atoms: C_1  and  C_4
REMARK    2  A    between atoms: C_1  and  C_12
REMARK    3  A    between atoms: C_7  and  O_10
REMARK    4  A    between atoms: C_15  and  O_18
REMARK                            x       y       z     vdW  Elec       q    Type
REMARK                         _______ _______ _______ _____ _____    ______ ____
ROOT
ATOM      1  C   UNL     1      56.320  35.922  78.003  0.00  0.00    +0.000 C 
ATOM      2  C   UNL     1      55.406  37.156  78.327  0.00  0.00    +0.000 C 
ATOM      3  C   UNL     1      55.394  34.727  77.580  0.00  0.00    +0.000 C 
ENDROOT
BRANCH   1   4
ATOM      4  C   UNL     1      57.255  36.349  76.862  0.00  0.00    +0.000 A 
ATOM      5  C   UNL     1      58.279  37.282  77.105  0.00  0.00    +0.000 A 
ATOM      6  C   UNL     1      59.134  37.705  76.089  0.00  0.00    +0.000 A 
ATOM      7  C   UNL     1      58.967  37.199  74.806  0.00  0.00    +0.000 A 
ATOM      8  C   UNL     1      57.961  36.282  74.528  0.00  0.00    +0.000 A 
ATOM      9  C   UNL     1      57.111  35.869  75.552  0.00  0.00    +0.000 A 
BRANCH   7  10
ATOM     10  O   UNL     1      59.788  37.588  73.790  0.00  0.00    +0.000 OA
ATOM     11  H   UNL     1      59.287  37.554  72.956  0.00  0.00    +0.000 HD
ENDBRANCH   7  10
ENDBRANCH   1   4
BRANCH   1  12
ATOM     12  C   UNL     1      57.109  35.458  79.235  0.00  0.00    +0.000 A 
ATOM     13  C   UNL     1      57.874  34.278  79.177  0.00  0.00    +0.000 A 
ATOM     14  C   UNL     1      58.587  33.818  80.281  0.00  0.00    +0.000 A 
ATOM     15  C   UNL     1      58.540  34.539  81.468  0.00  0.00    +0.000 A 
ATOM     16  C   UNL     1      57.790  35.705  81.564  0.00  0.00    +0.000 A 
ATOM     17  C   UNL     1      57.078  36.153  80.454  0.00  0.00    +0.000 A 
BRANCH  15  18
ATOM     18  O   UNL     1      59.231  34.121  82.567  0.00  0.00    +0.000 OA
ATOM     19  H   UNL     1      58.599  33.750  83.208  0.00  0.00    +0.000 HD
ENDBRANCH  15  18
ENDBRANCH   1  12
TORSDOF 4
ENDMDL
MODEL 2
REMARK VINA RESULT:      -6.0      0.594      5.536
REMARK  Name = Bisphenol_A.pdbqt.pdb
REMARK  4 active torsions:
REMARK  status: ('A' for Active; 'I' for Inactive)
REMARK    1  A    between atoms: C_1  and  C_4
REMARK    2  A    between atoms: C_1  and  C_12
REMARK    3  A    between atoms: C_7  and  O_10
REMARK    4  A    between atoms: C_15  and  O_18
REMARK                            x       y       z     vdW  Elec       q    Type
REMARK                         _______ _______ _______ _____ _____    ______ ____
ROOT
ATOM      1  C   UNL     1      56.342  36.237  77.740  0.00  0.00    +0.000 C 
ATOM      2  C   UNL     1      55.528  35.031  77.150  0.00  0.00    +0.000 C 
ATOM      3  C   UNL     1      55.323  37.359  78.149  0.00  0.00    +0.000 C 
ENDROOT
BRANCH   1   4
ATOM      4  C   UNL     1      57.114  35.699  78.955  0.00  0.00    +0.000 A 
ATOM      5  C   UNL     1      56.743  36.093  80.253  0.00  0.00    +0.000 A 
ATOM      6  C   UNL     1      57.432  35.639  81.375  0.00  0.00    +0.000 A 
ATOM      7  C   UNL     1      58.514  34.784  81.208  0.00  0.00    +0.000 A 
ATOM      8  C   UNL     1      58.914  34.381  79.940  0.00  0.00    +0.000 A 
ATOM      9  C   UNL     1      58.218  34.844  78.825  0.00  0.00    +0.000 A 
BRANCH   7  10
ATOM     10  O   UNL     1      59.209  34.318  82.285  0.00  0.00    +0.000 OA
ATOM     11  H   UNL     1      59.449  33.389  82.120  0.00  0.00    +0.000 HD
ENDBRANCH   7  10
ENDBRANCH   1   4
BRANCH   1  12
ATOM     12  C   UNL     1      57.287  36.853  76.698  0.00  0.00    +0.000 A 
ATOM     13  C   UNL     1      57.474  36.218  75.457  0.00  0.00    +0.000 A 
ATOM     14  C   UNL     1      58.336  36.740  74.496  0.00  0.00    +0.000 A 
ATOM     15  C   UNL     1      59.030  37.912  74.771  0.00  0.00    +0.000 A 
ATOM     16  C   UNL     1      58.875  38.562  75.989  0.00  0.00    +0.000 A 
ATOM     17  C   UNL     1      58.012  38.028  76.944  0.00  0.00    +0.000 A 
BRANCH  15  18
ATOM     18  O   UNL     1      59.878  38.454  73.851  0.00  0.00    +0.000 OA
ATOM     19  H   UNL     1      59.911  39.417  73.989  0.00  0.00    +0.000 HD
ENDBRANCH  15  18
ENDBRANCH   1  12
TORSDOF 4
ENDMDL
MODEL 3
REMARK VINA RESULT:      -5.3      2.361      5.985
REMARK  Name = Bisphenol_A.pdbqt.pdb
REMARK  4 active torsions:
REMARK  status: ('A' for Active; 'I' for Inactive)
REMARK    1  A    between atoms: C_1  and  C_4
REMARK    2  A    between atoms: C_1  and  C_12
REMARK    3  A    between atoms: C_7  and  O_10
REMARK    4  A    between atoms: C_15  and  O_18
REMARK                            x       y       z     vdW  Elec       q    Type
REMARK                         _______ _______ _______ _____ _____    ______ ____
ROOT
ATOM      1  C   UNL     1      58.733  35.972  78.788  0.00  0.00    +0.000 C 
ATOM      2  C   UNL     1      59.670  37.230  78.864  0.00  0.00    +0.000 C 
ATOM      3  C   UNL     1      59.492  34.847  77.999  0.00  0.00    +0.000 C 
ENDROOT
BRANCH   1   4
ATOM      4  C   UNL     1      58.435  35.551  80.235  0.00  0.00    +0.000 A 
ATOM      5  C   UNL     1      58.907  34.317  80.718  0.00  0.00    +0.000 A 
ATOM      6  C   UNL     1      58.639  33.896  82.019  0.00  0.00    +0.000 A 
ATOM      7  C   UNL     1      57.885  34.710  82.855  0.00  0.00    +0.000 A 
ATOM      8  C   UNL     1      57.396  35.931  82.408  0.00  0.00    +0.000 A 
ATOM      9  C   UNL     1      57.668  36.340  81.104  0.00  0.00    +0.000 A 
BRANCH   7  10
ATOM     10  O   UNL     1      57.608  34.330  84.135  0.00  0.00    +0.000 OA
ATOM     11  H   UNL     1      58.012  33.460  84.294  0.00  0.00    +0.000 HD
ENDBRANCH   7  10
ENDBRANCH   1   4
BRANCH   1  12
ATOM     12  C   UNL     1      57.443  36.268  78.009  0.00  0.00    +0.000 A 
ATOM     13  C   UNL     1      56.608  35.210  77.604  0.00  0.00    +0.000 A 
ATOM     14  C   UNL     1      55.441  35.442  76.881  0.00  0.00    +0.000 A 
ATOM     15  C   UNL     1      55.095  36.746  76.548  0.00  0.00    +0.000 A 
ATOM     16  C   UNL     1      55.900  37.814  76.925  0.00  0.00    +0.000 A 
ATOM     17  C   UNL     1      57.067  37.570  77.646  0.00  0.00    +0.000 A 
BRANCH  15  18
ATOM     18  O   UNL     1      53.956  37.009  75.846  0.00  0.00    +0.000 OA
ATOM     19  H   UNL     1      53.287  36.342  76.081  0.00  0.00    +0.000 HD
ENDBRANCH  15  18
ENDBRANCH   1  12
TORSDOF 4
ENDMDL
MODEL 4
REMARK VINA RESULT:      -5.2     15.453     17.703
REMARK  Name = Bisphenol_A.pdbqt.pdb
REMARK  4 active torsions:
REMARK  status: ('A' for Active; 'I' for Inactive)
REMARK    1  A    between atoms: C_1  and  C_4
REMARK    2  A    between atoms: C_1  and  C_12
REMARK    3  A    between atoms: C_7  and  O_10
REMARK    4  A    between atoms: C_15  and  O_18
REMARK                            x       y       z     vdW  Elec       q    Type
REMARK                         _______ _______ _______ _____ _____    ______ ____
ROOT
ATOM      1  C   UNL     1      52.252  19.144  76.633  0.00  0.00    +0.000 C 
ATOM      2  C   UNL     1      53.484  18.205  76.381  0.00  0.00    +0.000 C 
ATOM      3  C   UNL     1      51.210  18.899  75.485  0.00  0.00    +0.000 C 
ENDROOT
BRANCH   1   4
ATOM      4  C   UNL     1      51.681  18.770  78.009  0.00  0.00    +0.000 A 
ATOM      5  C   UNL     1      50.302  18.898  78.255  0.00  0.00    +0.000 A 
ATOM      6  C   UNL     1      49.753  18.585  79.497  0.00  0.00    +0.000 A 
ATOM      7  C   UNL     1      50.587  18.142  80.516  0.00  0.00    +0.000 A 
ATOM      8  C   UNL     1      51.955  18.012  80.311  0.00  0.00    +0.000 A 
ATOM      9  C   UNL     1      52.492  18.331  79.065  0.00  0.00    +0.000 A 
BRANCH   7  10
ATOM     10  O   UNL     1      50.083  17.823  81.742  0.00  0.00    +0.000 OA
ATOM     11  H   UNL     1      50.794  17.430  82.277  0.00  0.00    +0.000 HD
ENDBRANCH   7  10
ENDBRANCH   1   4
BRANCH   1  12
ATOM     12  C   UNL     1      52.643  20.628  76.568  0.00  0.00    +0.000 A 
ATOM     13  C   UNL     1      52.978  21.213  75.334  0.00  0.00    +0.000 A 
ATOM     14  C   UNL     1      53.354  22.551  75.242  0.00  0.00    +0.000 A 
ATOM     15  C   UNL     1      53.404  23.323  76.396  0.00  0.00    +0.000 A 
ATOM     16  C   UNL     1      53.086  22.777  77.633  0.00  0.00    +0.000 A 
ATOM     17  C   UNL     1      52.714  21.436  77.713  0.00  0.00    +0.000 A 
BRANCH  15  18
ATOM     18  O   UNL     1      53.762  24.638  76.341  0.00  0.00    +0.000 OA
ATOM     19  H   UNL     1      53.066  25.130  75.871  0.00  0.00    +0.000 HD
ENDBRANCH  15  18
ENDBRANCH   1  12
TORSDOF 4
ENDMDL
MODEL 5
REMARK VINA RESULT:      -5.2     15.703     17.615
REMARK  Name = Bisphenol_A.pdbqt.pdb
REMARK  4 active torsions:
REMARK  status: ('A' for Active; 'I' for Inactive)
REMARK    1  A    between atoms: C_1  and  C_4
REMARK    2  A    between atoms: C_1  and  C_12
REMARK    3  A    between atoms: C_7  and  O_10
REMARK    4  A    between atoms: C_15  and  O_18
REMARK                            x       y       z     vdW  Elec       q    Type
REMARK                         _______ _______ _______ _____ _____    ______ ____
ROOT
ATOM      1  C   UNL     1      51.967  19.281  77.005  0.00  0.00    +0.000 C 
ATOM      2  C   UNL     1      50.886  18.859  75.948  0.00  0.00    +0.000 C 
ATOM      3  C   UNL     1      51.275  19.333  78.414  0.00  0.00    +0.000 C 
ENDROOT
BRANCH   1   4
ATOM      4  C   UNL     1      53.076  18.219  76.955  0.00  0.00    +0.000 A 
ATOM      5  C   UNL     1      53.457  17.547  78.131  0.00  0.00    +0.000 A 
ATOM      6  C   UNL     1      54.472  16.592  78.125  0.00  0.00    +0.000 A 
ATOM      7  C   UNL     1      55.124  16.301  76.933  0.00  0.00    +0.000 A 
ATOM      8  C   UNL     1      54.779  16.952  75.755  0.00  0.00    +0.000 A 
ATOM      9  C   UNL     1      53.765  17.907  75.775  0.00  0.00    +0.000 A 
BRANCH   7  10
ATOM     10  O   UNL     1      56.119  15.369  76.891  0.00  0.00    +0.000 OA
ATOM     11  H   UNL     1      56.810  15.681  76.282  0.00  0.00    +0.000 HD
ENDBRANCH   7  10
ENDBRANCH   1   4
BRANCH   1  12
ATOM     12  C   UNL     1      52.518  20.687  76.729  0.00  0.00    +0.000 A 
ATOM     13  C   UNL     1      52.684  21.598  77.788  0.00  0.00    +0.000 A 
ATOM     14  C   UNL     1      53.165  22.886  77.571  0.00  0.00    +0.000 A 
ATOM     15  C   UNL     1      53.484  23.283  76.277  0.00  0.00    +0.000 A 
ATOM     16  C   UNL     1      53.326  22.412  75.206  0.00  0.00    +0.000 A 
ATOM     17  C   UNL     1      52.841  21.127  75.436  0.00  0.00    +0.000 A 
BRANCH  15  18
ATOM     18  O   UNL     1      53.962  24.535  76.029  0.00  0.00    +0.000 OA
ATOM     19  H   UNL     1      53.659  24.814  75.147  0.00  0.00    +0.000 HD
ENDBRANCH  15  18
ENDBRANCH   1  12
TORSDOF 4
ENDMDL
MODEL 6
REMARK VINA RESULT:      -5.1     15.646     17.007
REMARK  Name = Bisphenol_A.pdbqt.pdb
REMARK  4 active torsions:
REMARK  status: ('A' for Active; 'I' for Inactive)
REMARK    1  A    between atoms: C_1  and  C_4
REMARK    2  A    between atoms: C_1  and  C_12
REMARK    3  A    between atoms: C_7  and  O_10
REMARK    4  A    between atoms: C_15  and  O_18
REMARK                            x       y       z     vdW  Elec       q    Type
REMARK                         _______ _______ _______ _____ _____    ______ ____
ROOT
ATOM      1  C   UNL     1      45.721  25.086  84.558  0.00  0.00    +0.000 C 
ATOM      2  C   UNL     1      44.851  23.952  85.207  0.00  0.00    +0.000 C 
ATOM      3  C   UNL     1      46.257  24.560  83.180  0.00  0.00    +0.000 C 
ENDROOT
BRANCH   1   4
ATOM      4  C   UNL     1      44.803  26.306  84.384  0.00  0.00    +0.000 A 
ATOM      5  C   UNL     1      45.315  27.497  83.837  0.00  0.00    +0.000 A 
ATOM      6  C   UNL     1      44.516  28.628  83.682  0.00  0.00    +0.000 A 
ATOM      7  C   UNL     1      43.186  28.579  84.081  0.00  0.00    +0.000 A 
ATOM      8  C   UNL     1      42.649  27.423  84.632  0.00  0.00    +0.000 A 
ATOM      9  C   UNL     1      43.460  26.299  84.785  0.00  0.00    +0.000 A 
BRANCH   7  10
ATOM     10  O   UNL     1      42.375  29.666  83.939  0.00  0.00    +0.000 OA
ATOM     11  H   UNL     1      42.329  30.132  84.792  0.00  0.00    +0.000 HD
ENDBRANCH   7  10
ENDBRANCH   1   4
BRANCH   1  12
ATOM     12  C   UNL     1      46.951  25.423  85.414  0.00  0.00    +0.000 A 
ATOM     13  C   UNL     1      48.243  25.223  84.896  0.00  0.00    +0.000 A 
ATOM     14  C   UNL     1      49.380  25.501  85.651  0.00  0.00    +0.000 A 
ATOM     15  C   UNL     1      49.234  25.982  86.946  0.00  0.00    +0.000 A 
ATOM     16  C   UNL     1      47.973  26.185  87.493  0.00  0.00    +0.000 A 
ATOM     17  C   UNL     1      46.843  25.900  86.729  0.00  0.00    +0.000 A 
BRANCH  15  18
ATOM     18  O   UNL     1      50.326  26.270  87.712  0.00  0.00    +0.000 OA
ATOM     19  H   UNL     1      51.099  26.355  87.127  0.00  0.00    +0.000 HD
ENDBRANCH  15  18
ENDBRANCH   1  12
TORSDOF 4
ENDMDL
MODEL 7
REMARK VINA RESULT:      -5.1     15.868     17.494
REMARK  Name = Bisphenol_A.pdbqt.pdb
REMARK  4 active torsions:
REMARK  status: ('A' for Active; 'I' for Inactive)
REMARK    1  A    between atoms: C_1  and  C_4
REMARK    2  A    between atoms: C_1  and  C_12
REMARK    3  A    between atoms: C_7  and  O_10
REMARK    4  A    between atoms: C_15  and  O_18
REMARK                            x       y       z     vdW  Elec       q    Type
REMARK                         _______ _______ _______ _____ _____    ______ ____
ROOT
ATOM      1  C   UNL     1      52.430  19.418  77.623  0.00  0.00    +0.000 C 
ATOM      2  C   UNL     1      53.282  19.252  78.931  0.00  0.00    +0.000 C 
ATOM      3  C   UNL     1      50.915  19.263  78.005  0.00  0.00    +0.000 C 
ENDROOT
BRANCH   1   4
ATOM      4  C   UNL     1      52.736  20.818  77.068  0.00  0.00    +0.000 A 
ATOM      5  C   UNL     1      52.946  20.996  75.689  0.00  0.00    +0.000 A 
ATOM      6  C   UNL     1      53.243  22.248  75.154  0.00  0.00    +0.000 A 
ATOM      7  C   UNL     1      53.340  23.343  76.003  0.00  0.00    +0.000 A 
ATOM      8  C   UNL     1      53.146  23.203  77.372  0.00  0.00    +0.000 A 
ATOM      9  C   UNL     1      52.851  21.945  77.894  0.00  0.00    +0.000 A 
BRANCH   7  10
ATOM     10  O   UNL     1      53.625  24.583  75.513  0.00  0.00    +0.000 OA
ATOM     11  H   UNL     1      54.240  25.024  76.124  0.00  0.00    +0.000 HD
ENDBRANCH   7  10
ENDBRANCH   1   4
BRANCH   1  12
ATOM     12  C   UNL     1      52.743  18.323  76.594  0.00  0.00    +0.000 A 
ATOM     13  C   UNL     1      51.727  17.839  75.750  0.00  0.00    +0.000 A 
ATOM     14  C   UNL     1      51.972  16.834  74.818  0.00  0.00    +0.000 A 
ATOM     15  C   UNL     1      53.249  16.293  74.723  0.00  0.00    +0.000 A 
ATOM     16  C   UNL     1      54.276  16.742  75.545  0.00  0.00    +0.000 A 
ATOM     17  C   UNL     1      54.017  17.746  76.475  0.00  0.00    +0.000 A 
BRANCH  15  18
ATOM     18  O   UNL     1      53.526  15.312  73.817  0.00  0.00    +0.000 OA
ATOM     19  H   UNL     1      54.317  15.570  73.313  0.00  0.00    +0.000 HD
ENDBRANCH  15  18
ENDBRANCH   1  12
TORSDOF 4
ENDMDL
MODEL 8
REMARK VINA RESULT:      -5.1     15.593     17.494
REMARK  Name = Bisphenol_A.pdbqt.pdb
REMARK  4 active torsions:
REMARK  status: ('A' for Active; 'I' for Inactive)
REMARK    1  A    between atoms: C_1  and  C_4
REMARK    2  A    between atoms: C_1  and  C_12
REMARK    3  A    between atoms: C_7  and  O_10
REMARK    4  A    between atoms: C_15  and  O_18
REMARK                            x       y       z     vdW  Elec       q    Type
REMARK                         _______ _______ _______ _____ _____    ______ ____
ROOT
ATOM      1  C   UNL     1      45.509  25.182  84.929  0.00  0.00    +0.000 C 
ATOM      2  C   UNL     1      45.906  24.417  83.617  0.00  0.00    +0.000 C 
ATOM      3  C   UNL     1      44.604  24.233  85.792  0.00  0.00    +0.000 C 
ENDROOT
BRANCH   1   4
ATOM      4  C   UNL     1      46.818  25.533  85.652  0.00  0.00    +0.000 A 
ATOM      5  C   UNL     1      48.051  25.351  84.999  0.00  0.00    +0.000 A 
ATOM      6  C   UNL     1      49.258  25.642  85.632  0.00  0.00    +0.000 A 
ATOM      7  C   UNL     1      49.244  26.116  86.938  0.00  0.00    +0.000 A 
ATOM      8  C   UNL     1      48.045  26.300  87.615  0.00  0.00    +0.000 A 
ATOM      9  C   UNL     1      46.844  26.003  86.973  0.00  0.00    +0.000 A 
BRANCH   7  10
ATOM     10  O   UNL     1      50.406  26.415  87.585  0.00  0.00    +0.000 OA
ATOM     11  H   UNL     1      51.149  26.052  87.071  0.00  0.00    +0.000 HD
ENDBRANCH   7  10
ENDBRANCH   1   4
BRANCH   1  12
ATOM     12  C   UNL     1      44.677  26.437  84.628  0.00  0.00    +0.000 A 
ATOM     13  C   UNL     1      43.314  26.476  84.975  0.00  0.00    +0.000 A 
ATOM     14  C   UNL     1      42.525  27.591  84.701  0.00  0.00    +0.000 A 
ATOM     15  C   UNL     1      43.097  28.688  84.067  0.00  0.00    +0.000 A 
ATOM     16  C   UNL     1      44.438  28.682  83.705  0.00  0.00    +0.000 A 
ATOM     17  C   UNL     1      45.216  27.559  83.981  0.00  0.00    +0.000 A 
BRANCH  15  18
ATOM     18  O   UNL     1      42.356  29.798  83.790  0.00  0.00    +0.000 OA
ATOM     19  H   UNL     1      42.484  30.030  82.853  0.00  0.00    +0.000 HD
ENDBRANCH  15  18
ENDBRANCH   1  12
TORSDOF 4
ENDMDL
MODEL 9
REMARK VINA RESULT:      -5.0      3.981      6.576
REMARK  Name = Bisphenol_A.pdbqt.pdb
REMARK  4 active torsions:
REMARK  status: ('A' for Active; 'I' for Inactive)
REMARK    1  A    between atoms: C_1  and  C_4
REMARK    2  A    between atoms: C_1  and  C_12
REMARK    3  A    between atoms: C_7  and  O_10
REMARK    4  A    between atoms: C_15  and  O_18
REMARK                            x       y       z     vdW  Elec       q    Type
REMARK                         _______ _______ _______ _____ _____    ______ ____
ROOT
ATOM      1  C   UNL     1      61.234  35.006  75.007  0.00  0.00    +0.000 C 
ATOM      2  C   UNL     1      61.515  36.265  74.111  0.00  0.00    +0.000 C 
ATOM      3  C   UNL     1      62.589  34.568  75.669  0.00  0.00    +0.000 C 
ENDROOT
BRANCH   1   4
ATOM      4  C   UNL     1      60.198  35.431  76.059  0.00  0.00    +0.000 A 
ATOM      5  C   UNL     1      60.520  35.367  77.426  0.00  0.00    +0.000 A 
ATOM      6  C   UNL     1      59.598  35.727  78.407  0.00  0.00    +0.000 A 
ATOM      7  C   UNL     1      58.332  36.153  78.026  0.00  0.00    +0.000 A 
ATOM      8  C   UNL     1      57.977  36.220  76.684  0.00  0.00    +0.000 A 
ATOM      9  C   UNL     1      58.907  35.855  75.713  0.00  0.00    +0.000 A 
BRANCH   7  10
ATOM     10  O   UNL     1      57.407  36.517  78.959  0.00  0.00    +0.000 OA
ATOM     11  H   UNL     1      56.921  35.722  79.240  0.00  0.00    +0.000 HD
ENDBRANCH   7  10
ENDBRANCH   1   4
BRANCH   1  12
ATOM     12  C   UNL     1      60.740  33.814  74.176  0.00  0.00    +0.000 A 
ATOM     13  C   UNL     1      61.085  32.503  74.553  0.00  0.00    +0.000 A 
ATOM     14  C   UNL     1      60.668  31.400  73.812  0.00  0.00    +0.000 A 
ATOM     15  C   UNL     1      59.897  31.598  72.673  0.00  0.00    +0.000 A 
ATOM     16  C   UNL     1      59.543  32.879  72.268  0.00  0.00    +0.000 A 
ATOM     17  C   UNL     1      59.969  33.975  73.015  0.00  0.00    +0.000 A 
BRANCH  15  18
ATOM     18  O   UNL     1      59.467  30.540  71.928  0.00  0.00    +0.000 OA
ATOM     19  H   UNL     1      58.929  30.879  71.191  0.00  0.00    +0.000 HD
ENDBRANCH  15  18
ENDBRANCH   1  12
TORSDOF 4
ENDMDL
