MODEL 1
REMARK VINA RESULT:      -5.0      0.000      0.000
REMARK  Name = BX795.pdbqt.pdb
REMARK  7 active torsions:
REMARK  status: ('A' for Active; 'I' for Inactive)
REMARK    1  A    between atoms: C_4  and  N_25
REMARK    2  A    between atoms: N_8  and  C_10
REMARK    3  A    between atoms: C_12  and  N_16
REMARK    4  A    between atoms: N_25  and  C_27
REMARK    5  A    between atoms: C_27  and  C_28
REMARK    6  A    between atoms: C_29  and  N_30
REMARK    7  A    between atoms: C_31  and  C_34
REMARK                            x       y       z     vdW  Elec       q    Type
REMARK                         _______ _______ _______ _____ _____    ______ ____
ROOT
ATOM      1  I   UNL     1      14.192  10.182 104.777  0.00  0.00    +0.000 I 
ATOM      2  N   UNL     1      14.049   7.748 101.205  0.00  0.00    +0.000 NA
ATOM      3  N   UNL     1      12.152   9.141 101.161  0.00  0.00    +0.000 NA
ATOM      4  C   UNL     1      14.436   8.257 102.393  0.00  0.00    +0.000 A 
ATOM      5  C   UNL     1      12.925   8.195 100.624  0.00  0.00    +0.000 A 
ATOM      6  C   UNL     1      13.716   9.274 102.989  0.00  0.00    +0.000 A 
ATOM      7  C   UNL     1      12.580   9.666 102.324  0.00  0.00    +0.000 A 
ATOM      8  N   UNL     1      12.486   7.641  99.426  0.00  0.00    +0.000 N 
ATOM      9  H   UNL     1      11.594   8.022  99.149  0.00  0.00    +0.000 HD
ENDROOT
BRANCH   8  10
ATOM     10  C   UNL     1      13.160   6.829  98.507  0.00  0.00    +0.000 A 
ATOM     11  C   UNL     1      13.095   5.433  98.551  0.00  0.00    +0.000 A 
ATOM     12  C   UNL     1      13.688   4.634  97.574  0.00  0.00    +0.000 A 
ATOM     13  C   UNL     1      14.341   5.240  96.507  0.00  0.00    +0.000 A 
ATOM     14  C   UNL     1      14.411   6.629  96.432  0.00  0.00    +0.000 A 
ATOM     15  C   UNL     1      13.822   7.413  97.424  0.00  0.00    +0.000 A 
BRANCH  12  16
ATOM     16  N   UNL     1      13.628   3.240  97.752  0.00  0.00    +0.000 N 
ATOM     17  C   UNL     1      13.276   2.310  96.789  0.00  0.00    +0.000 C 
ATOM     18  O   UNL     1      12.832   2.600  95.679  0.00  0.00    +0.000 OA
ATOM     19  N   UNL     1      13.443   0.988  97.201  0.00  0.00    +0.000 N 
ATOM     20  C   UNL     1      13.883   0.437  98.367  0.00  0.00    +0.000 A 
ATOM     21  C   UNL     1      13.187  -0.157  96.510  0.00  0.00    +0.000 A 
ATOM     22  C   UNL     1      13.938  -1.085  98.534  0.00  0.00    +0.000 A 
ATOM     23  C   UNL     1      13.421  -1.527  97.157  0.00  0.00    +0.000 A 
ATOM     24  H   UNL     1      13.788   2.897  98.691  0.00  0.00    +0.000 HD
ENDBRANCH  12  16
ENDBRANCH   8  10
BRANCH   4  25
ATOM     25  N   UNL     1      15.635   7.776 102.981  0.00  0.00    +0.000 N 
ATOM     26  H   UNL     1      15.608   7.928 103.987  0.00  0.00    +0.000 HD
BRANCH  25  27
ATOM     27  C   UNL     1      16.044   6.432 102.586  0.00  0.00    +0.000 C 
BRANCH  27  28
ATOM     28  C   UNL     1      16.379   4.985 102.209  0.00  0.00    +0.000 C 
ATOM     29  C   UNL     1      16.760   3.572 101.757  0.00  0.00    +0.000 C 
BRANCH  29  30
ATOM     30  N   UNL     1      17.143   2.346 101.335  0.00  0.00    +0.000 N 
ATOM     31  C   UNL     1      18.186   2.004 100.486  0.00  0.00    +0.000 C 
ATOM     32  O   UNL     1      18.937   2.862 100.025  0.00  0.00    +0.000 OA
ATOM     33  H   UNL     1      16.530   1.602 101.648  0.00  0.00    +0.000 HD
BRANCH  31  34
ATOM     34  C   UNL     1      18.291   0.586 100.186  0.00  0.00    +0.000 A 
ATOM     35  S   UNL     1      19.631  -0.320 100.772  0.00  0.00    +0.000 S 
ATOM     36  C   UNL     1      19.064  -1.738 100.037  0.00  0.00    +0.000 A 
ATOM     37  C   UNL     1      17.890  -1.561  99.360  0.00  0.00    +0.000 A 
ATOM     38  C   UNL     1      17.448  -0.222  99.449  0.00  0.00    +0.000 A 
ENDBRANCH  31  34
ENDBRANCH  29  30
ENDBRANCH  27  28
ENDBRANCH  25  27
ENDBRANCH   4  25
TORSDOF 7
ENDMDL
MODEL 2
REMARK VINA RESULT:      -5.0     36.102     38.011
REMARK  Name = BX795.pdbqt.pdb
REMARK  7 active torsions:
REMARK  status: ('A' for Active; 'I' for Inactive)
REMARK    1  A    between atoms: C_4  and  N_25
REMARK    2  A    between atoms: N_8  and  C_10
REMARK    3  A    between atoms: C_12  and  N_16
REMARK    4  A    between atoms: N_25  and  C_27
REMARK    5  A    between atoms: C_27  and  C_28
REMARK    6  A    between atoms: C_29  and  N_30
REMARK    7  A    between atoms: C_31  and  C_34
REMARK                            x       y       z     vdW  Elec       q    Type
REMARK                         _______ _______ _______ _____ _____    ______ ____
ROOT
ATOM      1  I   UNL     1      50.097  21.527  85.184  0.00  0.00    +0.000 I 
ATOM      2  N   UNL     1      46.764  24.267  84.897  0.00  0.00    +0.000 NA
ATOM      3  N   UNL     1      48.222  25.131  86.530  0.00  0.00    +0.000 NA
ATOM      4  C   UNL     1      47.560  23.194  84.705  0.00  0.00    +0.000 A 
ATOM      5  C   UNL     1      47.108  25.199  85.798  0.00  0.00    +0.000 A 
ATOM      6  C   UNL     1      48.754  23.077  85.389  0.00  0.00    +0.000 A 
ATOM      7  C   UNL     1      49.024  24.076  86.291  0.00  0.00    +0.000 A 
ATOM      8  N   UNL     1      46.269  26.281  86.043  0.00  0.00    +0.000 N 
ATOM      9  H   UNL     1      46.620  26.857  86.794  0.00  0.00    +0.000 HD
ENDROOT
BRANCH   8  10
ATOM     10  C   UNL     1      45.181  26.765  85.307  0.00  0.00    +0.000 A 
ATOM     11  C   UNL     1      43.963  26.083  85.234  0.00  0.00    +0.000 A 
ATOM     12  C   UNL     1      42.854  26.619  84.581  0.00  0.00    +0.000 A 
ATOM     13  C   UNL     1      42.950  27.883  84.008  0.00  0.00    +0.000 A 
ATOM     14  C   UNL     1      44.148  28.589  84.076  0.00  0.00    +0.000 A 
ATOM     15  C   UNL     1      45.252  28.033  84.723  0.00  0.00    +0.000 A 
BRANCH  12  16
ATOM     16  N   UNL     1      41.699  25.820  84.501  0.00  0.00    +0.000 N 
ATOM     17  C   UNL     1      41.304  25.067  83.410  0.00  0.00    +0.000 C 
ATOM     18  O   UNL     1      41.849  25.109  82.307  0.00  0.00    +0.000 OA
ATOM     19  N   UNL     1      40.195  24.259  83.660  0.00  0.00    +0.000 N 
ATOM     20  C   UNL     1      39.426  24.071  84.770  0.00  0.00    +0.000 A 
ATOM     21  C   UNL     1      39.552  23.410  82.812  0.00  0.00    +0.000 A 
ATOM     22  C   UNL     1      38.233  23.110  84.733  0.00  0.00    +0.000 A 
ATOM     23  C   UNL     1      38.325  22.619  83.281  0.00  0.00    +0.000 A 
ATOM     24  H   UNL     1      41.066  25.861  85.290  0.00  0.00    +0.000 HD
ENDBRANCH  12  16
ENDBRANCH   8  10
BRANCH   4  25
ATOM     25  N   UNL     1      47.180  22.228  83.738  0.00  0.00    +0.000 N 
ATOM     26  H   UNL     1      47.829  21.444  83.763  0.00  0.00    +0.000 HD
BRANCH  25  27
ATOM     27  C   UNL     1      45.771  21.844  83.740  0.00  0.00    +0.000 C 
BRANCH  27  28
ATOM     28  C   UNL     1      44.304  21.412  83.637  0.00  0.00    +0.000 C 
ATOM     29  C   UNL     1      42.867  20.892  83.543  0.00  0.00    +0.000 C 
BRANCH  29  30
ATOM     30  N   UNL     1      41.614  20.388  83.491  0.00  0.00    +0.000 N 
ATOM     31  C   UNL     1      41.038  19.585  82.517  0.00  0.00    +0.000 C 
ATOM     32  O   UNL     1      41.686  19.206  81.542  0.00  0.00    +0.000 OA
ATOM     33  H   UNL     1      41.020  20.705  84.248  0.00  0.00    +0.000 HD
BRANCH  31  34
ATOM     34  C   UNL     1      39.639  19.262  82.738  0.00  0.00    +0.000 A 
ATOM     35  S   UNL     1      38.561  19.149  81.400  0.00  0.00    +0.000 S 
ATOM     36  C   UNL     1      37.252  18.796  82.416  0.00  0.00    +0.000 A 
ATOM     37  C   UNL     1      37.592  18.754  83.739  0.00  0.00    +0.000 A 
ATOM     38  C   UNL     1      38.967  19.023  83.919  0.00  0.00    +0.000 A 
ENDBRANCH  31  34
ENDBRANCH  29  30
ENDBRANCH  27  28
ENDBRANCH  25  27
ENDBRANCH   4  25
TORSDOF 7
ENDMDL
MODEL 3
REMARK VINA RESULT:      -5.0     16.580     19.582
REMARK  Name = BX795.pdbqt.pdb
REMARK  7 active torsions:
REMARK  status: ('A' for Active; 'I' for Inactive)
REMARK    1  A    between atoms: C_4  and  N_25
REMARK    2  A    between atoms: N_8  and  C_10
REMARK    3  A    between atoms: C_12  and  N_16
REMARK    4  A    between atoms: N_25  and  C_27
REMARK    5  A    between atoms: C_27  and  C_28
REMARK    6  A    between atoms: C_29  and  N_30
REMARK    7  A    between atoms: C_31  and  C_34
REMARK                            x       y       z     vdW  Elec       q    Type
REMARK                         _______ _______ _______ _____ _____    ______ ____
ROOT
ATOM      1  I   UNL     1      17.235  12.971  78.646  0.00  0.00    +0.000 I 
ATOM      2  N   UNL     1      18.846  10.295  81.637  0.00  0.00    +0.000 NA
ATOM      3  N   UNL     1      20.358  10.296  79.833  0.00  0.00    +0.000 NA
ATOM      4  C   UNL     1      18.020  11.143  80.989  0.00  0.00    +0.000 A 
ATOM      5  C   UNL     1      19.983   9.893  81.049  0.00  0.00    +0.000 A 
ATOM      6  C   UNL     1      18.363  11.644  79.749  0.00  0.00    +0.000 A 
ATOM      7  C   UNL     1      19.542  11.176  79.223  0.00  0.00    +0.000 A 
ATOM      8  N   UNL     1      20.816   8.978  81.684  0.00  0.00    +0.000 N 
ATOM      9  H   UNL     1      21.591   8.713  81.094  0.00  0.00    +0.000 HD
ENDROOT
BRANCH   8  10
ATOM     10  C   UNL     1      20.840   8.552  83.017  0.00  0.00    +0.000 A 
ATOM     11  C   UNL     1      21.846   8.937  83.909  0.00  0.00    +0.000 A 
ATOM     12  C   UNL     1      21.809   8.589  85.258  0.00  0.00    +0.000 A 
ATOM     13  C   UNL     1      20.727   7.862  85.742  0.00  0.00    +0.000 A 
ATOM     14  C   UNL     1      19.706   7.476  84.878  0.00  0.00    +0.000 A 
ATOM     15  C   UNL     1      19.764   7.822  83.528  0.00  0.00    +0.000 A 
BRANCH  12  16
ATOM     16  N   UNL     1      22.907   8.962  86.055  0.00  0.00    +0.000 N 
ATOM     17  C   UNL     1      23.025  10.132  86.784  0.00  0.00    +0.000 C 
ATOM     18  O   UNL     1      22.231  11.070  86.718  0.00  0.00    +0.000 OA
ATOM     19  N   UNL     1      24.158  10.173  87.596  0.00  0.00    +0.000 N 
ATOM     20  C   UNL     1      25.170   9.286  87.808  0.00  0.00    +0.000 A 
ATOM     21  C   UNL     1      24.574  11.169  88.426  0.00  0.00    +0.000 A 
ATOM     22  C   UNL     1      26.316   9.628  88.766  0.00  0.00    +0.000 A 
ATOM     23  C   UNL     1      25.874  11.026  89.226  0.00  0.00    +0.000 A 
ATOM     24  H   UNL     1      23.712   8.348  86.030  0.00  0.00    +0.000 HD
ENDBRANCH  12  16
ENDBRANCH   8  10
BRANCH   4  25
ATOM     25  N   UNL     1      16.830  11.562  81.637  0.00  0.00    +0.000 N 
ATOM     26  H   UNL     1      16.320  10.749  81.977  0.00  0.00    +0.000 HD
BRANCH  25  27
ATOM     27  C   UNL     1      16.980  12.633  82.618  0.00  0.00    +0.000 C 
BRANCH  27  28
ATOM     28  C   UNL     1      17.160  13.680  83.723  0.00  0.00    +0.000 C 
ATOM     29  C   UNL     1      17.346  14.656  84.888  0.00  0.00    +0.000 C 
BRANCH  29  30
ATOM     30  N   UNL     1      17.540  15.478  85.944  0.00  0.00    +0.000 N 
ATOM     31  C   UNL     1      18.643  15.575  86.780  0.00  0.00    +0.000 C 
ATOM     32  O   UNL     1      19.640  14.878  86.601  0.00  0.00    +0.000 OA
ATOM     33  H   UNL     1      16.731  16.046  86.167  0.00  0.00    +0.000 HD
BRANCH  31  34
ATOM     34  C   UNL     1      18.505  16.532  87.866  0.00  0.00    +0.000 A 
ATOM     35  S   UNL     1      18.211  18.192  87.516  0.00  0.00    +0.000 S 
ATOM     36  C   UNL     1      18.203  18.592  89.163  0.00  0.00    +0.000 A 
ATOM     37  C   UNL     1      18.411  17.516  89.980  0.00  0.00    +0.000 A 
ATOM     38  C   UNL     1      18.584  16.332  89.229  0.00  0.00    +0.000 A 
ENDBRANCH  31  34
ENDBRANCH  29  30
ENDBRANCH  27  28
ENDBRANCH  25  27
ENDBRANCH   4  25
TORSDOF 7
ENDMDL
MODEL 4
REMARK VINA RESULT:      -4.8     19.308     22.788
REMARK  Name = BX795.pdbqt.pdb
REMARK  7 active torsions:
REMARK  status: ('A' for Active; 'I' for Inactive)
REMARK    1  A    between atoms: C_4  and  N_25
REMARK    2  A    between atoms: N_8  and  C_10
REMARK    3  A    between atoms: C_12  and  N_16
REMARK    4  A    between atoms: N_25  and  C_27
REMARK    5  A    between atoms: C_27  and  C_28
REMARK    6  A    between atoms: C_29  and  N_30
REMARK    7  A    between atoms: C_31  and  C_34
REMARK                            x       y       z     vdW  Elec       q    Type
REMARK                         _______ _______ _______ _____ _____    ______ ____
ROOT
ATOM      1  I   UNL     1       4.243   7.458  87.460  0.00  0.00    +0.000 I 
ATOM      2  N   UNL     1       2.871  11.089  85.552  0.00  0.00    +0.000 NA
ATOM      3  N   UNL     1       1.369  10.626  87.304  0.00  0.00    +0.000 NA
ATOM      4  C   UNL     1       3.584   9.975  85.824  0.00  0.00    +0.000 A 
ATOM      5  C   UNL     1       1.790  11.384  86.289  0.00  0.00    +0.000 A 
ATOM      6  C   UNL     1       3.241   9.167  86.890  0.00  0.00    +0.000 A 
ATOM      7  C   UNL     1       2.119   9.544  87.586  0.00  0.00    +0.000 A 
ATOM      8  N   UNL     1       1.016  12.499  85.985  0.00  0.00    +0.000 N 
ATOM      9  H   UNL     1       0.198  12.552  86.574  0.00  0.00    +0.000 HD
ENDROOT
BRANCH   8  10
ATOM     10  C   UNL     1       1.299  13.598  85.166  0.00  0.00    +0.000 A 
ATOM     11  C   UNL     1       2.117  14.652  85.583  0.00  0.00    +0.000 A 
ATOM     12  C   UNL     1       2.473  15.694  84.727  0.00  0.00    +0.000 A 
ATOM     13  C   UNL     1       2.026  15.672  83.410  0.00  0.00    +0.000 A 
ATOM     14  C   UNL     1       1.219  14.628  82.966  0.00  0.00    +0.000 A 
ATOM     15  C   UNL     1       0.863  13.600  83.839  0.00  0.00    +0.000 A 
BRANCH  12  16
ATOM     16  N   UNL     1       3.239  16.744  85.265  0.00  0.00    +0.000 N 
ATOM     17  C   UNL     1       2.748  17.843  85.947  0.00  0.00    +0.000 C 
ATOM     18  O   UNL     1       1.553  18.115  86.050  0.00  0.00    +0.000 OA
ATOM     19  N   UNL     1       3.745  18.651  86.495  0.00  0.00    +0.000 N 
ATOM     20  C   UNL     1       5.105  18.567  86.487  0.00  0.00    +0.000 A 
ATOM     21  C   UNL     1       3.609  19.801  87.212  0.00  0.00    +0.000 A 
ATOM     22  C   UNL     1       5.953  19.642  87.174  0.00  0.00    +0.000 A 
ATOM     23  C   UNL     1       4.844  20.559  87.712  0.00  0.00    +0.000 A 
ATOM     24  H   UNL     1       4.233  16.724  85.070  0.00  0.00    +0.000 HD
ENDBRANCH  12  16
ENDBRANCH   8  10
BRANCH   4  25
ATOM     25  N   UNL     1       4.730   9.692  85.037  0.00  0.00    +0.000 N 
ATOM     26  H   UNL     1       4.614   8.793  84.575  0.00  0.00    +0.000 HD
BRANCH  25  27
ATOM     27  C   UNL     1       5.183  10.767  84.159  0.00  0.00    +0.000 C 
BRANCH  27  28
ATOM     28  C   UNL     1       5.757  11.851  83.241  0.00  0.00    +0.000 C 
ATOM     29  C   UNL     1       6.244  12.969  82.314  0.00  0.00    +0.000 C 
BRANCH  29  30
ATOM     30  N   UNL     1       6.631  13.987  81.513  0.00  0.00    +0.000 N 
ATOM     31  C   UNL     1       7.042  15.265  81.867  0.00  0.00    +0.000 C 
ATOM     32  O   UNL     1       7.122  15.603  83.047  0.00  0.00    +0.000 OA
ATOM     33  H   UNL     1       6.542  13.780  80.526  0.00  0.00    +0.000 HD
BRANCH  31  34
ATOM     34  C   UNL     1       7.337  16.144  80.748  0.00  0.00    +0.000 A 
ATOM     35  S   UNL     1       6.054  16.790  79.801  0.00  0.00    +0.000 S 
ATOM     36  C   UNL     1       7.140  17.610  78.791  0.00  0.00    +0.000 A 
ATOM     37  C   UNL     1       8.448  17.420  79.140  0.00  0.00    +0.000 A 
ATOM     38  C   UNL     1       8.557  16.575  80.267  0.00  0.00    +0.000 A 
ENDBRANCH  31  34
ENDBRANCH  29  30
ENDBRANCH  27  28
ENDBRANCH  25  27
ENDBRANCH   4  25
TORSDOF 7
ENDMDL
MODEL 5
REMARK VINA RESULT:      -4.5     17.486     19.462
REMARK  Name = BX795.pdbqt.pdb
REMARK  7 active torsions:
REMARK  status: ('A' for Active; 'I' for Inactive)
REMARK    1  A    between atoms: C_4  and  N_25
REMARK    2  A    between atoms: N_8  and  C_10
REMARK    3  A    between atoms: C_12  and  N_16
REMARK    4  A    between atoms: N_25  and  C_27
REMARK    5  A    between atoms: C_27  and  C_28
REMARK    6  A    between atoms: C_29  and  N_30
REMARK    7  A    between atoms: C_31  and  C_34
REMARK                            x       y       z     vdW  Elec       q    Type
REMARK                         _______ _______ _______ _____ _____    ______ ____
ROOT
ATOM      1  I   UNL     1      15.264  25.172  91.483  0.00  0.00    +0.000 I 
ATOM      2  N   UNL     1      17.912  21.754  91.556  0.00  0.00    +0.000 NA
ATOM      3  N   UNL     1      18.964  23.461  92.787  0.00  0.00    +0.000 NA
ATOM      4  C   UNL     1      16.864  22.557  91.273  0.00  0.00    +0.000 A 
ATOM      5  C   UNL     1      18.928  22.221  92.295  0.00  0.00    +0.000 A 
ATOM      6  C   UNL     1      16.805  23.837  91.787  0.00  0.00    +0.000 A 
ATOM      7  C   UNL     1      17.890  24.231  92.531  0.00  0.00    +0.000 A 
ATOM      8  N   UNL     1      20.038  21.421  92.549  0.00  0.00    +0.000 N 
ATOM      9  H   UNL     1      20.751  21.928  93.052  0.00  0.00    +0.000 HD
ENDROOT
BRANCH   8  10
ATOM     10  C   UNL     1      20.212  20.041  92.390  0.00  0.00    +0.000 A 
ATOM     11  C   UNL     1      20.744  19.482  91.224  0.00  0.00    +0.000 A 
ATOM     12  C   UNL     1      21.005  18.117  91.112  0.00  0.00    +0.000 A 
ATOM     13  C   UNL     1      20.755  17.287  92.200  0.00  0.00    +0.000 A 
ATOM     14  C   UNL     1      20.235  17.820  93.376  0.00  0.00    +0.000 A 
ATOM     15  C   UNL     1      19.969  19.187  93.468  0.00  0.00    +0.000 A 
BRANCH  12  16
ATOM     16  N   UNL     1      21.471  17.645  89.872  0.00  0.00    +0.000 N 
ATOM     17  C   UNL     1      20.692  17.356  88.765  0.00  0.00    +0.000 C 
ATOM     18  O   UNL     1      19.461  17.344  88.771  0.00  0.00    +0.000 OA
ATOM     19  N   UNL     1      21.433  17.044  87.626  0.00  0.00    +0.000 N 
ATOM     20  C   UNL     1      22.774  16.967  87.393  0.00  0.00    +0.000 A 
ATOM     21  C   UNL     1      20.985  16.707  86.385  0.00  0.00    +0.000 A 
ATOM     22  C   UNL     1      23.301  16.570  86.010  0.00  0.00    +0.000 A 
ATOM     23  C   UNL     1      21.974  16.377  85.261  0.00  0.00    +0.000 A 
ATOM     24  H   UNL     1      22.459  17.431  89.812  0.00  0.00    +0.000 HD
ENDBRANCH  12  16
ENDBRANCH   8  10
BRANCH   4  25
ATOM     25  N   UNL     1      15.797  22.035  90.498  0.00  0.00    +0.000 N 
ATOM     26  H   UNL     1      15.173  22.790  90.222  0.00  0.00    +0.000 HD
BRANCH  25  27
ATOM     27  C   UNL     1      16.176  21.138  89.410  0.00  0.00    +0.000 C 
BRANCH  27  28
ATOM     28  C   UNL     1      16.513  20.121  88.315  0.00  0.00    +0.000 C 
ATOM     29  C   UNL     1      16.931  19.089  87.264  0.00  0.00    +0.000 C 
BRANCH  29  30
ATOM     30  N   UNL     1      17.330  18.151  86.376  0.00  0.00    +0.000 N 
ATOM     31  C   UNL     1      17.016  16.799  86.336  0.00  0.00    +0.000 C 
ATOM     32  O   UNL     1      16.258  16.299  87.166  0.00  0.00    +0.000 OA
ATOM     33  H   UNL     1      17.994  18.498  85.694  0.00  0.00    +0.000 HD
BRANCH  31  34
ATOM     34  C   UNL     1      17.664  16.052  85.272  0.00  0.00    +0.000 A 
ATOM     35  S   UNL     1      18.098  16.844  83.807  0.00  0.00    +0.000 S 
ATOM     36  C   UNL     1      18.718  15.409  83.151  0.00  0.00    +0.000 A 
ATOM     37  C   UNL     1      18.615  14.342  83.999  0.00  0.00    +0.000 A 
ATOM     38  C   UNL     1      18.008  14.716  85.218  0.00  0.00    +0.000 A 
ENDBRANCH  31  34
ENDBRANCH  29  30
ENDBRANCH  27  28
ENDBRANCH  25  27
ENDBRANCH   4  25
TORSDOF 7
ENDMDL
MODEL 6
REMARK VINA RESULT:      -4.4     61.435     63.272
REMARK  Name = BX795.pdbqt.pdb
REMARK  7 active torsions:
REMARK  status: ('A' for Active; 'I' for Inactive)
REMARK    1  A    between atoms: C_4  and  N_25
REMARK    2  A    between atoms: N_8  and  C_10
REMARK    3  A    between atoms: C_12  and  N_16
REMARK    4  A    between atoms: N_25  and  C_27
REMARK    5  A    between atoms: C_27  and  C_28
REMARK    6  A    between atoms: C_29  and  N_30
REMARK    7  A    between atoms: C_31  and  C_34
REMARK                            x       y       z     vdW  Elec       q    Type
REMARK                         _______ _______ _______ _____ _____    ______ ____
ROOT
ATOM      1  I   UNL     1      69.906  24.346  75.880  0.00  0.00    +0.000 I 
ATOM      2  N   UNL     1      69.002  28.281  77.427  0.00  0.00    +0.000 NA
ATOM      3  N   UNL     1      68.773  26.772  79.218  0.00  0.00    +0.000 NA
ATOM      4  C   UNL     1      69.310  27.279  76.578  0.00  0.00    +0.000 A 
ATOM      5  C   UNL     1      68.740  28.007  78.714  0.00  0.00    +0.000 A 
ATOM      6  C   UNL     1      69.411  25.980  77.034  0.00  0.00    +0.000 A 
ATOM      7  C   UNL     1      69.124  25.792  78.364  0.00  0.00    +0.000 A 
ATOM      8  N   UNL     1      68.370  29.025  79.587  0.00  0.00    +0.000 N 
ATOM      9  H   UNL     1      68.133  28.661  80.498  0.00  0.00    +0.000 HD
ENDROOT
BRANCH   8  10
ATOM     10  C   UNL     1      68.467  30.414  79.448  0.00  0.00    +0.000 A 
ATOM     11  C   UNL     1      67.427  31.189  78.927  0.00  0.00    +0.000 A 
ATOM     12  C   UNL     1      67.494  32.581  78.883  0.00  0.00    +0.000 A 
ATOM     13  C   UNL     1      68.615  33.223  79.397  0.00  0.00    +0.000 A 
ATOM     14  C   UNL     1      69.661  32.475  79.932  0.00  0.00    +0.000 A 
ATOM     15  C   UNL     1      69.583  31.082  79.958  0.00  0.00    +0.000 A 
BRANCH  12  16
ATOM     16  N   UNL     1      66.426  33.264  78.272  0.00  0.00    +0.000 N 
ATOM     17  C   UNL     1      66.341  33.613  76.936  0.00  0.00    +0.000 C 
ATOM     18  O   UNL     1      67.263  33.491  76.130  0.00  0.00    +0.000 OA
ATOM     19  N   UNL     1      65.106  34.153  76.577  0.00  0.00    +0.000 N 
ATOM     20  C   UNL     1      63.971  34.405  77.288  0.00  0.00    +0.000 A 
ATOM     21  C   UNL     1      64.696  34.603  75.359  0.00  0.00    +0.000 A 
ATOM     22  C   UNL     1      62.753  35.040  76.607  0.00  0.00    +0.000 A 
ATOM     23  C   UNL     1      63.290  35.187  75.176  0.00  0.00    +0.000 A 
ATOM     24  H   UNL     1      65.689  33.589  78.885  0.00  0.00    +0.000 HD
ENDBRANCH  12  16
ENDBRANCH   8  10
BRANCH   4  25
ATOM     25  N   UNL     1      69.594  27.596  75.224  0.00  0.00    +0.000 N 
ATOM     26  H   UNL     1      70.132  26.844  74.801  0.00  0.00    +0.000 HD
BRANCH  25  27
ATOM     27  C   UNL     1      68.460  28.050  74.424  0.00  0.00    +0.000 C 
BRANCH  27  28
ATOM     28  C   UNL     1      67.327  28.501  73.495  0.00  0.00    +0.000 C 
ATOM     29  C   UNL     1      66.140  28.887  72.609  0.00  0.00    +0.000 C 
BRANCH  29  30
ATOM     30  N   UNL     1      65.057  29.213  71.867  0.00  0.00    +0.000 N 
ATOM     31  C   UNL     1      64.416  30.438  71.754  0.00  0.00    +0.000 C 
ATOM     32  O   UNL     1      64.831  31.430  72.353  0.00  0.00    +0.000 OA
ATOM     33  H   UNL     1      64.645  28.422  71.386  0.00  0.00    +0.000 HD
BRANCH  31  34
ATOM     34  C   UNL     1      63.234  30.435  70.908  0.00  0.00    +0.000 A 
ATOM     35  S   UNL     1      63.338  30.998  69.285  0.00  0.00    +0.000 S 
ATOM     36  C   UNL     1      61.689  30.710  69.023  0.00  0.00    +0.000 A 
ATOM     37  C   UNL     1      61.051  30.198  70.118  0.00  0.00    +0.000 A 
ATOM     38  C   UNL     1      61.944  30.041  71.201  0.00  0.00    +0.000 A 
ENDBRANCH  31  34
ENDBRANCH  29  30
ENDBRANCH  27  28
ENDBRANCH  25  27
ENDBRANCH   4  25
TORSDOF 7
ENDMDL
MODEL 7
REMARK VINA RESULT:      -4.4     57.318     59.182
REMARK  Name = BX795.pdbqt.pdb
REMARK  7 active torsions:
REMARK  status: ('A' for Active; 'I' for Inactive)
REMARK    1  A    between atoms: C_4  and  N_25
REMARK    2  A    between atoms: N_8  and  C_10
REMARK    3  A    between atoms: C_12  and  N_16
REMARK    4  A    between atoms: N_25  and  C_27
REMARK    5  A    between atoms: C_27  and  C_28
REMARK    6  A    between atoms: C_29  and  N_30
REMARK    7  A    between atoms: C_31  and  C_34
REMARK                            x       y       z     vdW  Elec       q    Type
REMARK                         _______ _______ _______ _____ _____    ______ ____
ROOT
ATOM      1  I   UNL     1      57.956  37.263  91.978  0.00  0.00    +0.000 I 
ATOM      2  N   UNL     1      61.959  37.890  90.467  0.00  0.00    +0.000 NA
ATOM      3  N   UNL     1      62.137  36.400  92.280  0.00  0.00    +0.000 NA
ATOM      4  C   UNL     1      60.624  37.991  90.638  0.00  0.00    +0.000 A 
ATOM      5  C   UNL     1      62.678  37.108  91.286  0.00  0.00    +0.000 A 
ATOM      6  C   UNL     1      59.985  37.252  91.613  0.00  0.00    +0.000 A 
ATOM      7  C   UNL     1      60.800  36.481  92.405  0.00  0.00    +0.000 A 
ATOM      8  N   UNL     1      64.061  37.037  91.154  0.00  0.00    +0.000 N 
ATOM      9  H   UNL     1      64.472  36.471  91.882  0.00  0.00    +0.000 HD
ENDROOT
BRANCH   8  10
ATOM     10  C   UNL     1      64.890  37.449  90.104  0.00  0.00    +0.000 A 
ATOM     11  C   UNL     1      65.250  36.598  89.055  0.00  0.00    +0.000 A 
ATOM     12  C   UNL     1      65.995  37.043  87.964  0.00  0.00    +0.000 A 
ATOM     13  C   UNL     1      66.369  38.381  87.900  0.00  0.00    +0.000 A 
ATOM     14  C   UNL     1      66.015  39.253  88.926  0.00  0.00    +0.000 A 
ATOM     15  C   UNL     1      65.279  38.788  90.016  0.00  0.00    +0.000 A 
BRANCH  12  16
ATOM     16  N   UNL     1      66.367  36.090  86.999  0.00  0.00    +0.000 N 
ATOM     17  C   UNL     1      67.611  35.497  86.878  0.00  0.00    +0.000 C 
ATOM     18  O   UNL     1      68.603  35.834  87.523  0.00  0.00    +0.000 OA
ATOM     19  N   UNL     1      67.655  34.481  85.923  0.00  0.00    +0.000 N 
ATOM     20  C   UNL     1      66.711  33.963  85.087  0.00  0.00    +0.000 A 
ATOM     21  C   UNL     1      68.712  33.707  85.552  0.00  0.00    +0.000 A 
ATOM     22  C   UNL     1      67.072  32.839  84.110  0.00  0.00    +0.000 A 
ATOM     23  C   UNL     1      68.557  32.648  84.455  0.00  0.00    +0.000 A 
ATOM     24  H   UNL     1      65.679  35.877  86.287  0.00  0.00    +0.000 HD
ENDBRANCH  12  16
ENDBRANCH   8  10
BRANCH   4  25
ATOM     25  N   UNL     1      59.885  38.816  89.751  0.00  0.00    +0.000 N 
ATOM     26  H   UNL     1      60.371  39.701  89.621  0.00  0.00    +0.000 HD
BRANCH  25  27
ATOM     27  C   UNL     1      59.442  38.185  88.511  0.00  0.00    +0.000 C 
BRANCH  27  28
ATOM     28  C   UNL     1      59.082  37.503  87.187  0.00  0.00    +0.000 C 
ATOM     29  C   UNL     1      58.814  36.818  85.844  0.00  0.00    +0.000 C 
BRANCH  29  30
ATOM     30  N   UNL     1      58.627  36.189  84.662  0.00  0.00    +0.000 N 
ATOM     31  C   UNL     1      57.513  36.202  83.835  0.00  0.00    +0.000 C 
ATOM     32  O   UNL     1      56.519  36.870  84.119  0.00  0.00    +0.000 OA
ATOM     33  H   UNL     1      59.398  35.586  84.399  0.00  0.00    +0.000 HD
BRANCH  31  34
ATOM     34  C   UNL     1      57.618  35.364  82.652  0.00  0.00    +0.000 A 
ATOM     35  S   UNL     1      56.889  35.865  81.176  0.00  0.00    +0.000 S 
ATOM     36  C   UNL     1      57.404  34.460  80.382  0.00  0.00    +0.000 A 
ATOM     37  C   UNL     1      58.115  33.615  81.188  0.00  0.00    +0.000 A 
ATOM     38  C   UNL     1      58.236  34.140  82.494  0.00  0.00    +0.000 A 
ENDBRANCH  31  34
ENDBRANCH  29  30
ENDBRANCH  27  28
ENDBRANCH  25  27
ENDBRANCH   4  25
TORSDOF 7
ENDMDL
MODEL 8
REMARK VINA RESULT:      -4.4     16.188     18.765
REMARK  Name = BX795.pdbqt.pdb
REMARK  7 active torsions:
REMARK  status: ('A' for Active; 'I' for Inactive)
REMARK    1  A    between atoms: C_4  and  N_25
REMARK    2  A    between atoms: N_8  and  C_10
REMARK    3  A    between atoms: C_12  and  N_16
REMARK    4  A    between atoms: N_25  and  C_27
REMARK    5  A    between atoms: C_27  and  C_28
REMARK    6  A    between atoms: C_29  and  N_30
REMARK    7  A    between atoms: C_31  and  C_34
REMARK                            x       y       z     vdW  Elec       q    Type
REMARK                         _______ _______ _______ _____ _____    ______ ____
ROOT
ATOM      1  I   UNL     1      30.110   4.453  88.829  0.00  0.00    +0.000 I 
ATOM      2  N   UNL     1      26.152   5.371  87.347  0.00  0.00    +0.000 NA
ATOM      3  N   UNL     1      26.934   3.525  86.114  0.00  0.00    +0.000 NA
ATOM      4  C   UNL     1      27.308   5.439  88.041  0.00  0.00    +0.000 A 
ATOM      5  C   UNL     1      25.995   4.428  86.407  0.00  0.00    +0.000 A 
ATOM      6  C   UNL     1      28.308   4.511  87.830  0.00  0.00    +0.000 A 
ATOM      7  C   UNL     1      28.061   3.583  86.848  0.00  0.00    +0.000 A 
ATOM      8  N   UNL     1      24.830   4.380  85.649  0.00  0.00    +0.000 N 
ATOM      9  H   UNL     1      24.884   3.669  84.934  0.00  0.00    +0.000 HD
ENDROOT
BRANCH   8  10
ATOM     10  C   UNL     1      23.594   5.004  85.852  0.00  0.00    +0.000 A 
ATOM     11  C   UNL     1      23.381   6.355  85.565  0.00  0.00    +0.000 A 
ATOM     12  C   UNL     1      22.122   6.945  85.677  0.00  0.00    +0.000 A 
ATOM     13  C   UNL     1      21.038   6.162  86.059  0.00  0.00    +0.000 A 
ATOM     14  C   UNL     1      21.221   4.810  86.340  0.00  0.00    +0.000 A 
ATOM     15  C   UNL     1      22.489   4.239  86.234  0.00  0.00    +0.000 A 
BRANCH  12  16
ATOM     16  N   UNL     1      22.029   8.328  85.437  0.00  0.00    +0.000 N 
ATOM     17  C   UNL     1      21.339   8.929  84.399  0.00  0.00    +0.000 C 
ATOM     18  O   UNL     1      20.827   8.317  83.464  0.00  0.00    +0.000 OA
ATOM     19  N   UNL     1      21.297  10.321  84.490  0.00  0.00    +0.000 N 
ATOM     20  C   UNL     1      21.805  11.200  85.399  0.00  0.00    +0.000 A 
ATOM     21  C   UNL     1      20.714  11.211  83.640  0.00  0.00    +0.000 A 
ATOM     22  C   UNL     1      21.609  12.708  85.215  0.00  0.00    +0.000 A 
ATOM     23  C   UNL     1      20.800  12.718  83.909  0.00  0.00    +0.000 A 
ATOM     24  H   UNL     1      22.579   8.928  86.039  0.00  0.00    +0.000 HD
ENDBRANCH  12  16
ENDBRANCH   8  10
BRANCH   4  25
ATOM     25  N   UNL     1      27.445   6.440  89.038  0.00  0.00    +0.000 N 
ATOM     26  H   UNL     1      28.376   6.391  89.446  0.00  0.00    +0.000 HD
BRANCH  25  27
ATOM     27  C   UNL     1      27.024   7.784  88.655  0.00  0.00    +0.000 C 
BRANCH  27  28
ATOM     28  C   UNL     1      26.658   9.234  88.321  0.00  0.00    +0.000 C 
ATOM     29  C   UNL     1      26.321  10.667  87.899  0.00  0.00    +0.000 C 
BRANCH  29  30
ATOM     30  N   UNL     1      26.014  11.913  87.474  0.00  0.00    +0.000 N 
ATOM     31  C   UNL     1      24.807  12.593  87.568  0.00  0.00    +0.000 C 
ATOM     32  O   UNL     1      23.833  12.083  88.119  0.00  0.00    +0.000 OA
ATOM     33  H   UNL     1      26.768  12.365  86.970  0.00  0.00    +0.000 HD
BRANCH  31  34
ATOM     34  C   UNL     1      24.798  13.910  86.954  0.00  0.00    +0.000 A 
ATOM     35  S   UNL     1      24.574  15.311  87.929  0.00  0.00    +0.000 S 
ATOM     36  C   UNL     1      24.661  16.330  86.579  0.00  0.00    +0.000 A 
ATOM     37  C   UNL     1      24.856  15.656  85.406  0.00  0.00    +0.000 A 
ATOM     38  C   UNL     1      24.935  14.263  85.627  0.00  0.00    +0.000 A 
ENDBRANCH  31  34
ENDBRANCH  29  30
ENDBRANCH  27  28
ENDBRANCH  25  27
ENDBRANCH   4  25
TORSDOF 7
ENDMDL
MODEL 9
REMARK VINA RESULT:      -4.3     41.435     43.290
REMARK  Name = BX795.pdbqt.pdb
REMARK  7 active torsions:
REMARK  status: ('A' for Active; 'I' for Inactive)
REMARK    1  A    between atoms: C_4  and  N_25
REMARK    2  A    between atoms: N_8  and  C_10
REMARK    3  A    between atoms: C_12  and  N_16
REMARK    4  A    between atoms: N_25  and  C_27
REMARK    5  A    between atoms: C_27  and  C_28
REMARK    6  A    between atoms: C_29  and  N_30
REMARK    7  A    between atoms: C_31  and  C_34
REMARK                            x       y       z     vdW  Elec       q    Type
REMARK                         _______ _______ _______ _____ _____    ______ ____
ROOT
ATOM      1  I   UNL     1      54.333  33.435  91.380  0.00  0.00    +0.000 I 
ATOM      2  N   UNL     1      51.548  30.322  90.262  0.00  0.00    +0.000 NA
ATOM      3  N   UNL     1      53.682  29.333  90.349  0.00  0.00    +0.000 NA
ATOM      4  C   UNL     1      52.058  31.530  90.580  0.00  0.00    +0.000 A 
ATOM      5  C   UNL     1      52.363  29.263  90.152  0.00  0.00    +0.000 A 
ATOM      6  C   UNL     1      53.405  31.674  90.847  0.00  0.00    +0.000 A 
ATOM      7  C   UNL     1      54.164  30.538  90.708  0.00  0.00    +0.000 A 
ATOM      8  N   UNL     1      51.858  28.023  89.773  0.00  0.00    +0.000 N 
ATOM      9  H   UNL     1      52.595  27.343  89.660  0.00  0.00    +0.000 HD
ENDROOT
BRANCH   8  10
ATOM     10  C   UNL     1      50.537  27.564  89.725  0.00  0.00    +0.000 A 
ATOM     11  C   UNL     1      49.910  27.208  88.527  0.00  0.00    +0.000 A 
ATOM     12  C   UNL     1      48.629  26.659  88.497  0.00  0.00    +0.000 A 
ATOM     13  C   UNL     1      47.962  26.430  89.696  0.00  0.00    +0.000 A 
ATOM     14  C   UNL     1      48.568  26.764  90.904  0.00  0.00    +0.000 A 
ATOM     15  C   UNL     1      49.846  27.324  90.915  0.00  0.00    +0.000 A 
BRANCH  12  16
ATOM     16  N   UNL     1      48.060  26.405  87.236  0.00  0.00    +0.000 N 
ATOM     17  C   UNL     1      48.319  25.310  86.431  0.00  0.00    +0.000 C 
ATOM     18  O   UNL     1      49.195  24.477  86.659  0.00  0.00    +0.000 OA
ATOM     19  N   UNL     1      47.505  25.243  85.301  0.00  0.00    +0.000 N 
ATOM     20  C   UNL     1      46.508  26.048  84.836  0.00  0.00    +0.000 A 
ATOM     21  C   UNL     1      47.502  24.310  84.308  0.00  0.00    +0.000 A 
ATOM     22  C   UNL     1      45.794  25.720  83.520  0.00  0.00    +0.000 A 
ATOM     23  C   UNL     1      46.531  24.430  83.128  0.00  0.00    +0.000 A 
ATOM     24  H   UNL     1      47.463  27.130  86.857  0.00  0.00    +0.000 HD
ENDBRANCH  12  16
ENDBRANCH   8  10
BRANCH   4  25
ATOM     25  N   UNL     1      51.172  32.632  90.701  0.00  0.00    +0.000 N 
ATOM     26  H   UNL     1      51.409  33.340  90.009  0.00  0.00    +0.000 HD
BRANCH  25  27
ATOM     27  C   UNL     1      49.751  32.304  90.765  0.00  0.00    +0.000 C 
BRANCH  27  28
ATOM     28  C   UNL     1      48.288  31.861  90.865  0.00  0.00    +0.000 C 
ATOM     29  C   UNL     1      46.826  31.404  90.872  0.00  0.00    +0.000 C 
BRANCH  29  30
ATOM     30  N   UNL     1      45.546  30.969  90.833  0.00  0.00    +0.000 N 
ATOM     31  C   UNL     1      44.899  30.259  89.833  0.00  0.00    +0.000 C 
ATOM     32  O   UNL     1      45.494  29.908  88.815  0.00  0.00    +0.000 OA
ATOM     33  H   UNL     1      44.994  31.269  91.628  0.00  0.00    +0.000 HD
BRANCH  31  34
ATOM     34  C   UNL     1      43.491  29.995  90.082  0.00  0.00    +0.000 A 
ATOM     35  S   UNL     1      42.851  30.177  91.669  0.00  0.00    +0.000 S 
ATOM     36  C   UNL     1      41.306  29.706  91.158  0.00  0.00    +0.000 A 
ATOM     37  C   UNL     1      41.245  29.416  89.824  0.00  0.00    +0.000 A 
ATOM     38  C   UNL     1      42.505  29.584  89.208  0.00  0.00    +0.000 A 
ENDBRANCH  31  34
ENDBRANCH  29  30
ENDBRANCH  27  28
ENDBRANCH  25  27
ENDBRANCH   4  25
TORSDOF 7
ENDMDL
