MODEL 1
REMARK VINA RESULT:      -2.9      0.000      0.000
REMARK  Name = CadmiumAcetate.pdbqt.pdb
REMARK  1 active torsions:
REMARK  status: ('A' for Active; 'I' for Inactive)
REMARK    1  A    between atoms: C_3  and  O_4
REMARK                            x       y       z     vdW  Elec       q    Type
REMARK                         _______ _______ _______ _____ _____    ______ ____
ROOT
ATOM      1  O   UNL     1      53.553  23.417  77.250  0.00  0.00    +0.000 OA
ATOM      2  C   UNL     1      53.280  24.298  75.144  0.00  0.00    +0.000 C 
ATOM      3  C   UNL     1      54.122  23.846  76.268  0.00  0.00    +0.000 C 
ENDROOT
BRANCH   3   4
ATOM      4  O   UNL     1      55.438  23.951  76.094  0.00  0.00    +0.000 OA
ATOM      5  H   UNL     1      55.506  24.588  75.359  0.00  0.00    +0.000 HD
ENDBRANCH   3   4
TORSDOF 1
ENDMDL
MODEL 2
REMARK VINA RESULT:      -2.8     11.246     11.401
REMARK  Name = CadmiumAcetate.pdbqt.pdb
REMARK  1 active torsions:
REMARK  status: ('A' for Active; 'I' for Inactive)
REMARK    1  A    between atoms: C_3  and  O_4
REMARK                            x       y       z     vdW  Elec       q    Type
REMARK                         _______ _______ _______ _____ _____    ______ ____
ROOT
ATOM      1  O   UNL     1      54.922  34.333  76.977  0.00  0.00    +0.000 OA
ATOM      2  C   UNL     1      56.733  35.540  77.718  0.00  0.00    +0.000 C 
ATOM      3  C   UNL     1      55.452  34.844  77.942  0.00  0.00    +0.000 C 
ENDROOT
BRANCH   3   4
ATOM      4  O   UNL     1      54.996  34.841  79.193  0.00  0.00    +0.000 OA
ATOM      5  H   UNL     1      55.703  35.307  79.678  0.00  0.00    +0.000 HD
ENDBRANCH   3   4
TORSDOF 1
ENDMDL
MODEL 3
REMARK VINA RESULT:      -2.7     11.792     12.111
REMARK  Name = CadmiumAcetate.pdbqt.pdb
REMARK  1 active torsions:
REMARK  status: ('A' for Active; 'I' for Inactive)
REMARK    1  A    between atoms: C_3  and  O_4
REMARK                            x       y       z     vdW  Elec       q    Type
REMARK                         _______ _______ _______ _____ _____    ______ ____
ROOT
ATOM      1  O   UNL     1      59.612  33.430  80.400  0.00  0.00    +0.000 OA
ATOM      2  C   UNL     1      57.402  33.633  81.003  0.00  0.00    +0.000 C 
ATOM      3  C   UNL     1      58.845  33.685  81.305  0.00  0.00    +0.000 C 
ENDROOT
BRANCH   3   4
ATOM      4  O   UNL     1      59.171  34.012  82.555  0.00  0.00    +0.000 OA
ATOM      5  H   UNL     1      60.058  33.618  82.653  0.00  0.00    +0.000 HD
ENDBRANCH   3   4
TORSDOF 1
ENDMDL
MODEL 4
REMARK VINA RESULT:      -2.7     11.540     11.828
REMARK  Name = CadmiumAcetate.pdbqt.pdb
REMARK  1 active torsions:
REMARK  status: ('A' for Active; 'I' for Inactive)
REMARK    1  A    between atoms: C_3  and  O_4
REMARK                            x       y       z     vdW  Elec       q    Type
REMARK                         _______ _______ _______ _____ _____    ______ ____
ROOT
ATOM      1  O   UNL     1      56.020  35.429  75.318  0.00  0.00    +0.000 OA
ATOM      2  C   UNL     1      55.707  36.573  77.288  0.00  0.00    +0.000 C 
ATOM      3  C   UNL     1      55.549  35.380  76.436  0.00  0.00    +0.000 C 
ENDROOT
BRANCH   3   4
ATOM      4  O   UNL     1      54.898  34.352  76.979  0.00  0.00    +0.000 OA
ATOM      5  H   UNL     1      54.705  34.675  77.879  0.00  0.00    +0.000 HD
ENDBRANCH   3   4
TORSDOF 1
ENDMDL
MODEL 5
REMARK VINA RESULT:      -2.5     12.397     12.663
REMARK  Name = CadmiumAcetate.pdbqt.pdb
REMARK  1 active torsions:
REMARK  status: ('A' for Active; 'I' for Inactive)
REMARK    1  A    between atoms: C_3  and  O_4
REMARK                            x       y       z     vdW  Elec       q    Type
REMARK                         _______ _______ _______ _____ _____    ______ ____
ROOT
ATOM      1  O   UNL     1      59.612  33.597  80.351  0.00  0.00    +0.000 OA
ATOM      2  C   UNL     1      58.367  34.915  78.936  0.00  0.00    +0.000 C 
ATOM      3  C   UNL     1      59.209  34.721  80.132  0.00  0.00    +0.000 C 
ENDROOT
BRANCH   3   4
ATOM      4  O   UNL     1      59.449  35.808  80.863  0.00  0.00    +0.000 OA
ATOM      5  H   UNL     1      59.978  36.359  80.258  0.00  0.00    +0.000 HD
ENDBRANCH   3   4
TORSDOF 1
ENDMDL
MODEL 6
REMARK VINA RESULT:      -2.5     14.061     14.619
REMARK  Name = CadmiumAcetate.pdbqt.pdb
REMARK  1 active torsions:
REMARK  status: ('A' for Active; 'I' for Inactive)
REMARK    1  A    between atoms: C_3  and  O_4
REMARK                            x       y       z     vdW  Elec       q    Type
REMARK                         _______ _______ _______ _____ _____    ______ ____
ROOT
ATOM      1  O   UNL     1      42.759  29.689  83.275  0.00  0.00    +0.000 OA
ATOM      2  C   UNL     1      43.815  27.686  83.674  0.00  0.00    +0.000 C 
ATOM      3  C   UNL     1      42.908  28.781  84.066  0.00  0.00    +0.000 C 
ENDROOT
BRANCH   3   4
ATOM      4  O   UNL     1      42.334  28.667  85.263  0.00  0.00    +0.000 OA
ATOM      5  H   UNL     1      42.079  27.726  85.287  0.00  0.00    +0.000 HD
ENDBRANCH   3   4
TORSDOF 1
ENDMDL
MODEL 7
REMARK VINA RESULT:      -2.4     13.369     13.753
REMARK  Name = CadmiumAcetate.pdbqt.pdb
REMARK  1 active torsions:
REMARK  status: ('A' for Active; 'I' for Inactive)
REMARK    1  A    between atoms: C_3  and  O_4
REMARK                            x       y       z     vdW  Elec       q    Type
REMARK                         _______ _______ _______ _____ _____    ______ ____
ROOT
ATOM      1  O   UNL     1      43.002  29.391  83.468  0.00  0.00    +0.000 OA
ATOM      2  C   UNL     1      44.838  28.308  84.331  0.00  0.00    +0.000 C 
ATOM      3  C   UNL     1      43.544  28.316  83.622  0.00  0.00    +0.000 C 
ENDROOT
BRANCH   3   4
ATOM      4  O   UNL     1      43.092  27.132  83.213  0.00  0.00    +0.000 OA
ATOM      5  H   UNL     1      43.373  26.537  83.933  0.00  0.00    +0.000 HD
ENDBRANCH   3   4
TORSDOF 1
ENDMDL
MODEL 8
REMARK VINA RESULT:      -2.3     48.159     48.745
REMARK  Name = CadmiumAcetate.pdbqt.pdb
REMARK  1 active torsions:
REMARK  status: ('A' for Active; 'I' for Inactive)
REMARK    1  A    between atoms: C_3  and  O_4
REMARK                            x       y       z     vdW  Elec       q    Type
REMARK                         _______ _______ _______ _____ _____    ______ ____
ROOT
ATOM      1  O   UNL     1      14.828   5.575  96.627  0.00  0.00    +0.000 OA
ATOM      2  C   UNL     1      13.947   7.572  97.350  0.00  0.00    +0.000 C 
ATOM      3  C   UNL     1      13.963   6.098  97.298  0.00  0.00    +0.000 C 
ENDROOT
BRANCH   3   4
ATOM      4  O   UNL     1      13.017   5.476  98.001  0.00  0.00    +0.000 OA
ATOM      5  H   UNL     1      12.872   4.660  97.487  0.00  0.00    +0.000 HD
ENDBRANCH   3   4
TORSDOF 1
ENDMDL
MODEL 9
REMARK VINA RESULT:      -2.3     11.884     12.149
REMARK  Name = CadmiumAcetate.pdbqt.pdb
REMARK  1 active torsions:
REMARK  status: ('A' for Active; 'I' for Inactive)
REMARK    1  A    between atoms: C_3  and  O_4
REMARK                            x       y       z     vdW  Elec       q    Type
REMARK                         _______ _______ _______ _____ _____    ______ ____
ROOT
ATOM      1  O   UNL     1      57.658  34.043  79.436  0.00  0.00    +0.000 OA
ATOM      2  C   UNL     1      59.064  35.642  80.306  0.00  0.00    +0.000 C 
ATOM      3  C   UNL     1      58.684  34.239  80.054  0.00  0.00    +0.000 C 
ENDROOT
BRANCH   3   4
ATOM      4  O   UNL     1      59.512  33.312  80.533  0.00  0.00    +0.000 OA
ATOM      5  H   UNL     1      60.202  33.847  80.966  0.00  0.00    +0.000 HD
ENDBRANCH   3   4
TORSDOF 1
ENDMDL
