REMARK  Name = CadmiumAcetate.pdbqt.pdb
REMARK  1 active torsions:
REMARK  status: ('A' for Active; 'I' for Inactive)
REMARK    1  A    between atoms: C_3  and  O_4
REMARK                            x       y       z     vdW  Elec       q    Type
REMARK                         _______ _______ _______ _____ _____    ______ ____
ROOT
ATOM      1  O   UNL     1      -0.937  -0.843   0.000  0.00  0.00    +0.000 OA
ATOM      2  C   UNL     1       1.322  -0.414   0.001  0.00  0.00    +0.000 C 
ATOM      3  C   UNL     1      -0.087   0.023   0.000  0.00  0.00    +0.000 C 
ENDROOT
BRANCH   3   4
ATOM      4  O   UNL     1      -0.293   1.339   0.000  0.00  0.00    +0.000 OA
ATOM      5  H   UNL     1      -1.266   1.402   0.000  0.00  0.00    +0.000 HD
ENDBRANCH   3   4
TORSDOF 1
