MODEL 1
REMARK VINA RESULT:      -6.5      0.000      0.000
REMARK  Name = Calcitriol.pdbqt.pdb
REMARK  9 active torsions:
REMARK  status: ('A' for Active; 'I' for Inactive)
REMARK    1  A    between atoms: C_2  and  C_24
REMARK    2  A    between atoms: C_7  and  C_11
REMARK    3  A    between atoms: C_12  and  C_13
REMARK    4  A    between atoms: C_16  and  O_20
REMARK    5  A    between atoms: C_18  and  O_22
REMARK    6  A    between atoms: C_24  and  C_26
REMARK    7  A    between atoms: C_27  and  C_28
REMARK    8  A    between atoms: C_28  and  C_29
REMARK    9  A    between atoms: C_29  and  O_32
REMARK                            x       y       z     vdW  Elec       q    Type
REMARK                         _______ _______ _______ _____ _____    ______ ____
ROOT
ATOM      1  C   UNL     1      63.511  36.805  74.308  0.00  0.00    +0.000 C 
ATOM      2  C   UNL     1      63.706  38.281  73.970  0.00  0.00    +0.000 C 
ATOM      3  C   UNL     1      62.068  36.791  75.052  0.00  0.00    +0.000 C 
ATOM      4  C   UNL     1      62.523  39.008  74.296  0.00  0.00    +0.000 C 
ATOM      5  C   UNL     1      61.506  38.101  74.932  0.00  0.00    +0.000 C 
ATOM      6  C   UNL     1      64.485  36.268  75.271  0.00  0.00    +0.000 C 
ATOM      7  C   UNL     1      61.852  35.984  76.259  0.00  0.00    +0.000 C 
ATOM      8  C   UNL     1      63.356  35.954  73.016  0.00  0.00    +0.000 C 
ATOM      9  C   UNL     1      64.520  35.532  76.599  0.00  0.00    +0.000 C 
ATOM     10  C   UNL     1      63.032  35.491  76.877  0.00  0.00    +0.000 C 
ENDROOT
BRANCH   7  11
ATOM     11  C   UNL     1      60.703  35.827  76.840  0.00  0.00    +0.000 C 
ATOM     12  C   UNL     1      59.343  35.655  77.526  0.00  0.00    +0.000 C 
BRANCH  12  13
ATOM     13  C   UNL     1      58.189  35.518  78.105  0.00  0.00    +0.000 A 
ATOM     14  C   UNL     1      57.015  35.328  77.307  0.00  0.00    +0.000 A 
ATOM     15  C   UNL     1      57.908  35.594  79.574  0.00  0.00    +0.000 A 
ATOM     16  C   UNL     1      55.632  35.195  77.624  0.00  0.00    +0.000 A 
ATOM     17  C   UNL     1      55.512  35.293  79.039  0.00  0.00    +0.000 A 
ATOM     18  C   UNL     1      56.495  35.476  80.054  0.00  0.00    +0.000 A 
ATOM     19  C   UNL     1      58.888  35.756  80.482  0.00  0.00    +0.000 C 
BRANCH  16  20
ATOM     20  O   UNL     1      54.808  34.401  76.880  0.00  0.00    +0.000 OA
ATOM     21  H   UNL     1      53.937  34.305  77.301  0.00  0.00    +0.000 HD
ENDBRANCH  16  20
BRANCH  18  22
ATOM     22  O   UNL     1      56.177  35.530  81.389  0.00  0.00    +0.000 OA
ATOM     23  H   UNL     1      55.963  34.637  81.722  0.00  0.00    +0.000 HD
ENDBRANCH  18  22
ENDBRANCH  12  13
ENDBRANCH   7  11
BRANCH   2  24
ATOM     24  C   UNL     1      64.831  38.826  73.279  0.00  0.00    +0.000 C 
ATOM     25  C   UNL     1      66.241  38.336  73.489  0.00  0.00    +0.000 C 
BRANCH  24  26
ATOM     26  C   UNL     1      64.707  39.998  72.483  0.00  0.00    +0.000 C 
ATOM     27  C   UNL     1      64.562  41.254  71.616  0.00  0.00    +0.000 C 
BRANCH  27  28
ATOM     28  C   UNL     1      64.408  42.504  70.740  0.00  0.00    +0.000 C 
BRANCH  28  29
ATOM     29  C   UNL     1      64.265  43.698  69.907  0.00  0.00    +0.000 C 
ATOM     30  C   UNL     1      63.490  43.430  68.611  0.00  0.00    +0.000 C 
ATOM     31  C   UNL     1      63.665  44.890  70.659  0.00  0.00    +0.000 C 
BRANCH  29  32
ATOM     32  O   UNL     1      65.545  44.126  69.496  0.00  0.00    +0.000 OA
ATOM     33  H   UNL     1      65.842  44.510  70.334  0.00  0.00    +0.000 HD
ENDBRANCH  29  32
ENDBRANCH  28  29
ENDBRANCH  27  28
ENDBRANCH  24  26
ENDBRANCH   2  24
TORSDOF 9
ENDMDL
MODEL 2
REMARK VINA RESULT:      -6.2     21.719     28.840
REMARK  Name = Calcitriol.pdbqt.pdb
REMARK  9 active torsions:
REMARK  status: ('A' for Active; 'I' for Inactive)
REMARK    1  A    between atoms: C_2  and  C_24
REMARK    2  A    between atoms: C_7  and  C_11
REMARK    3  A    between atoms: C_12  and  C_13
REMARK    4  A    between atoms: C_16  and  O_20
REMARK    5  A    between atoms: C_18  and  O_22
REMARK    6  A    between atoms: C_24  and  C_26
REMARK    7  A    between atoms: C_27  and  C_28
REMARK    8  A    between atoms: C_28  and  C_29
REMARK    9  A    between atoms: C_29  and  O_32
REMARK                            x       y       z     vdW  Elec       q    Type
REMARK                         _______ _______ _______ _____ _____    ______ ____
ROOT
ATOM      1  C   UNL     1      37.832  22.325  83.026  0.00  0.00    +0.000 C 
ATOM      2  C   UNL     1      36.571  22.987  83.575  0.00  0.00    +0.000 C 
ATOM      3  C   UNL     1      39.011  23.326  83.518  0.00  0.00    +0.000 C 
ATOM      4  C   UNL     1      36.930  24.096  84.396  0.00  0.00    +0.000 C 
ATOM      5  C   UNL     1      38.421  24.294  84.390  0.00  0.00    +0.000 C 
ATOM      6  C   UNL     1      37.905  22.281  81.556  0.00  0.00    +0.000 C 
ATOM      7  C   UNL     1      40.113  23.691  82.620  0.00  0.00    +0.000 C 
ATOM      8  C   UNL     1      38.089  20.956  83.717  0.00  0.00    +0.000 C 
ATOM      9  C   UNL     1      38.838  22.685  80.428  0.00  0.00    +0.000 C 
ATOM     10  C   UNL     1      39.909  23.371  81.251  0.00  0.00    +0.000 C 
ENDROOT
BRANCH   7  11
ATOM     11  C   UNL     1      41.149  24.385  82.975  0.00  0.00    +0.000 C 
ATOM     12  C   UNL     1      42.383  25.195  83.390  0.00  0.00    +0.000 C 
BRANCH  12  13
ATOM     13  C   UNL     1      43.433  25.876  83.737  0.00  0.00    +0.000 A 
ATOM     14  C   UNL     1      44.734  25.411  83.362  0.00  0.00    +0.000 A 
ATOM     15  C   UNL     1      43.459  27.120  84.570  0.00  0.00    +0.000 A 
ATOM     16  C   UNL     1      46.051  25.889  83.618  0.00  0.00    +0.000 A 
ATOM     17  C   UNL     1      45.927  27.060  84.419  0.00  0.00    +0.000 A 
ATOM     18  C   UNL     1      44.777  27.733  84.924  0.00  0.00    +0.000 A 
ATOM     19  C   UNL     1      42.332  27.714  85.005  0.00  0.00    +0.000 C 
BRANCH  16  20
ATOM     20  O   UNL     1      47.050  25.742  82.699  0.00  0.00    +0.000 OA
ATOM     21  H   UNL     1      47.810  25.269  83.077  0.00  0.00    +0.000 HD
ENDBRANCH  16  20
BRANCH  18  22
ATOM     22  O   UNL     1      44.865  28.878  85.678  0.00  0.00    +0.000 OA
ATOM     23  H   UNL     1      45.044  29.648  85.104  0.00  0.00    +0.000 HD
ENDBRANCH  18  22
ENDBRANCH  12  13
ENDBRANCH   7  11
BRANCH   2  24
ATOM     24  C   UNL     1      35.244  22.478  83.430  0.00  0.00    +0.000 C 
ATOM     25  C   UNL     1      34.651  21.451  84.361  0.00  0.00    +0.000 C 
BRANCH  24  26
ATOM     26  C   UNL     1      34.464  22.776  82.279  0.00  0.00    +0.000 C 
ATOM     27  C   UNL     1      33.612  23.085  81.041  0.00  0.00    +0.000 C 
BRANCH  27  28
ATOM     28  C   UNL     1      32.753  23.384  79.807  0.00  0.00    +0.000 C 
BRANCH  28  29
ATOM     29  C   UNL     1      31.932  23.674  78.631  0.00  0.00    +0.000 C 
ATOM     30  C   UNL     1      31.593  25.162  78.493  0.00  0.00    +0.000 C 
ATOM     31  C   UNL     1      32.533  23.134  77.328  0.00  0.00    +0.000 C 
BRANCH  29  32
ATOM     32  O   UNL     1      30.691  23.017  78.765  0.00  0.00    +0.000 OA
ATOM     33  H   UNL     1      30.291  23.602  79.425  0.00  0.00    +0.000 HD
ENDBRANCH  29  32
ENDBRANCH  28  29
ENDBRANCH  27  28
ENDBRANCH  24  26
ENDBRANCH   2  24
TORSDOF 9
ENDMDL
MODEL 3
REMARK VINA RESULT:      -6.2     21.718     28.977
REMARK  Name = Calcitriol.pdbqt.pdb
REMARK  9 active torsions:
REMARK  status: ('A' for Active; 'I' for Inactive)
REMARK    1  A    between atoms: C_2  and  C_24
REMARK    2  A    between atoms: C_7  and  C_11
REMARK    3  A    between atoms: C_12  and  C_13
REMARK    4  A    between atoms: C_16  and  O_20
REMARK    5  A    between atoms: C_18  and  O_22
REMARK    6  A    between atoms: C_24  and  C_26
REMARK    7  A    between atoms: C_27  and  C_28
REMARK    8  A    between atoms: C_28  and  C_29
REMARK    9  A    between atoms: C_29  and  O_32
REMARK                            x       y       z     vdW  Elec       q    Type
REMARK                         _______ _______ _______ _____ _____    ______ ____
ROOT
ATOM      1  C   UNL     1      37.593  22.309  82.921  0.00  0.00    +0.000 C 
ATOM      2  C   UNL     1      36.395  23.067  83.486  0.00  0.00    +0.000 C 
ATOM      3  C   UNL     1      38.848  23.253  83.333  0.00  0.00    +0.000 C 
ATOM      4  C   UNL     1      36.850  24.182  84.250  0.00  0.00    +0.000 C 
ATOM      5  C   UNL     1      38.349  24.288  84.185  0.00  0.00    +0.000 C 
ATOM      6  C   UNL     1      37.610  22.205  81.453  0.00  0.00    +0.000 C 
ATOM      7  C   UNL     1      39.936  23.516  82.383  0.00  0.00    +0.000 C 
ATOM      8  C   UNL     1      37.793  20.954  83.657  0.00  0.00    +0.000 C 
ATOM      9  C   UNL     1      38.524  22.509  80.278  0.00  0.00    +0.000 C 
ATOM     10  C   UNL     1      39.664  23.158  81.036  0.00  0.00    +0.000 C 
ENDROOT
BRANCH   7  11
ATOM     11  C   UNL     1      41.024  24.158  82.674  0.00  0.00    +0.000 C 
ATOM     12  C   UNL     1      42.304  24.924  83.029  0.00  0.00    +0.000 C 
BRANCH  12  13
ATOM     13  C   UNL     1      43.384  25.575  83.338  0.00  0.00    +0.000 A 
ATOM     14  C   UNL     1      43.304  26.967  83.665  0.00  0.00    +0.000 A 
ATOM     15  C   UNL     1      44.782  25.039  83.343  0.00  0.00    +0.000 A 
ATOM     16  C   UNL     1      44.283  27.948  83.994  0.00  0.00    +0.000 A 
ATOM     17  C   UNL     1      45.554  27.308  83.952  0.00  0.00    +0.000 A 
ATOM     18  C   UNL     1      45.916  25.961  83.665  0.00  0.00    +0.000 A 
ATOM     19  C   UNL     1      45.055  23.749  83.073  0.00  0.00    +0.000 C 
BRANCH  16  20
ATOM     20  O   UNL     1      44.008  28.957  84.872  0.00  0.00    +0.000 OA
ATOM     21  H   UNL     1      43.256  29.492  84.569  0.00  0.00    +0.000 HD
ENDBRANCH  16  20
BRANCH  18  22
ATOM     22  O   UNL     1      47.220  25.525  83.692  0.00  0.00    +0.000 OA
ATOM     23  H   UNL     1      47.669  25.750  82.855  0.00  0.00    +0.000 HD
ENDBRANCH  18  22
ENDBRANCH  12  13
ENDBRANCH   7  11
BRANCH   2  24
ATOM     24  C   UNL     1      35.036  22.636  83.407  0.00  0.00    +0.000 C 
ATOM     25  C   UNL     1      34.412  21.697  84.408  0.00  0.00    +0.000 C 
BRANCH  24  26
ATOM     26  C   UNL     1      34.239  22.924  82.265  0.00  0.00    +0.000 C 
ATOM     27  C   UNL     1      33.369  23.221  81.037  0.00  0.00    +0.000 C 
BRANCH  27  28
ATOM     28  C   UNL     1      32.492  23.508  79.812  0.00  0.00    +0.000 C 
BRANCH  28  29
ATOM     29  C   UNL     1      31.652  23.784  78.646  0.00  0.00    +0.000 C 
ATOM     30  C   UNL     1      31.409  25.282  78.429  0.00  0.00    +0.000 C 
ATOM     31  C   UNL     1      32.171  23.130  77.361  0.00  0.00    +0.000 C 
BRANCH  29  32
ATOM     32  O   UNL     1      30.376  23.224  78.858  0.00  0.00    +0.000 OA
ATOM     33  H   UNL     1      30.647  22.310  79.028  0.00  0.00    +0.000 HD
ENDBRANCH  29  32
ENDBRANCH  28  29
ENDBRANCH  27  28
ENDBRANCH  24  26
ENDBRANCH   2  24
TORSDOF 9
ENDMDL
MODEL 4
REMARK VINA RESULT:      -6.0      2.596      4.325
REMARK  Name = Calcitriol.pdbqt.pdb
REMARK  9 active torsions:
REMARK  status: ('A' for Active; 'I' for Inactive)
REMARK    1  A    between atoms: C_2  and  C_24
REMARK    2  A    between atoms: C_7  and  C_11
REMARK    3  A    between atoms: C_12  and  C_13
REMARK    4  A    between atoms: C_16  and  O_20
REMARK    5  A    between atoms: C_18  and  O_22
REMARK    6  A    between atoms: C_24  and  C_26
REMARK    7  A    between atoms: C_27  and  C_28
REMARK    8  A    between atoms: C_28  and  C_29
REMARK    9  A    between atoms: C_29  and  O_32
REMARK                            x       y       z     vdW  Elec       q    Type
REMARK                         _______ _______ _______ _____ _____    ______ ____
ROOT
ATOM      1  C   UNL     1      63.536  36.704  74.332  0.00  0.00    +0.000 C 
ATOM      2  C   UNL     1      63.793  38.176  74.022  0.00  0.00    +0.000 C 
ATOM      3  C   UNL     1      62.092  36.737  75.074  0.00  0.00    +0.000 C 
ATOM      4  C   UNL     1      62.642  38.947  74.361  0.00  0.00    +0.000 C 
ATOM      5  C   UNL     1      61.586  38.071  74.979  0.00  0.00    +0.000 C 
ATOM      6  C   UNL     1      64.485  36.108  75.286  0.00  0.00    +0.000 C 
ATOM      7  C   UNL     1      61.839  35.917  76.265  0.00  0.00    +0.000 C 
ATOM      8  C   UNL     1      63.347  35.885  73.024  0.00  0.00    +0.000 C 
ATOM      9  C   UNL     1      64.486  35.346  76.599  0.00  0.00    +0.000 C 
ATOM     10  C   UNL     1      62.996  35.362  76.875  0.00  0.00    +0.000 C 
ENDROOT
BRANCH   7  11
ATOM     11  C   UNL     1      60.684  35.797  76.841  0.00  0.00    +0.000 C 
ATOM     12  C   UNL     1      59.321  35.642  77.526  0.00  0.00    +0.000 C 
BRANCH  12  13
ATOM     13  C   UNL     1      58.170  35.503  78.110  0.00  0.00    +0.000 A 
ATOM     14  C   UNL     1      56.992  35.312  77.319  0.00  0.00    +0.000 A 
ATOM     15  C   UNL     1      57.898  35.576  79.581  0.00  0.00    +0.000 A 
ATOM     16  C   UNL     1      55.611  35.178  77.643  0.00  0.00    +0.000 A 
ATOM     17  C   UNL     1      55.499  35.274  79.059  0.00  0.00    +0.000 A 
ATOM     18  C   UNL     1      56.488  35.457  80.068  0.00  0.00    +0.000 A 
ATOM     19  C   UNL     1      58.882  35.738  80.484  0.00  0.00    +0.000 C 
BRANCH  16  20
ATOM     20  O   UNL     1      54.783  34.384  76.903  0.00  0.00    +0.000 OA
ATOM     21  H   UNL     1      55.059  33.453  76.943  0.00  0.00    +0.000 HD
ENDBRANCH  16  20
BRANCH  18  22
ATOM     22  O   UNL     1      56.176  35.508  81.406  0.00  0.00    +0.000 OA
ATOM     23  H   UNL     1      56.379  34.654  81.833  0.00  0.00    +0.000 HD
ENDBRANCH  18  22
ENDBRANCH  12  13
ENDBRANCH   7  11
BRANCH   2  24
ATOM     24  C   UNL     1      64.942  38.687  73.343  0.00  0.00    +0.000 C 
ATOM     25  C   UNL     1      64.927  39.084  71.889  0.00  0.00    +0.000 C 
BRANCH  24  26
ATOM     26  C   UNL     1      66.224  38.673  73.956  0.00  0.00    +0.000 C 
ATOM     27  C   UNL     1      67.609  38.642  74.616  0.00  0.00    +0.000 C 
BRANCH  27  28
ATOM     28  C   UNL     1      68.992  38.598  75.276  0.00  0.00    +0.000 C 
BRANCH  28  29
ATOM     29  C   UNL     1      70.310  38.555  75.910  0.00  0.00    +0.000 C 
ATOM     30  C   UNL     1      70.256  38.074  77.365  0.00  0.00    +0.000 C 
ATOM     31  C   UNL     1      71.338  37.745  75.111  0.00  0.00    +0.000 C 
BRANCH  29  32
ATOM     32  O   UNL     1      70.834  39.863  75.967  0.00  0.00    +0.000 OA
ATOM     33  H   UNL     1      71.627  39.676  76.491  0.00  0.00    +0.000 HD
ENDBRANCH  29  32
ENDBRANCH  28  29
ENDBRANCH  27  28
ENDBRANCH  24  26
ENDBRANCH   2  24
TORSDOF 9
ENDMDL
MODEL 5
REMARK VINA RESULT:      -5.9      6.971      9.671
REMARK  Name = Calcitriol.pdbqt.pdb
REMARK  9 active torsions:
REMARK  status: ('A' for Active; 'I' for Inactive)
REMARK    1  A    between atoms: C_2  and  C_24
REMARK    2  A    between atoms: C_7  and  C_11
REMARK    3  A    between atoms: C_12  and  C_13
REMARK    4  A    between atoms: C_16  and  O_20
REMARK    5  A    between atoms: C_18  and  O_22
REMARK    6  A    between atoms: C_24  and  C_26
REMARK    7  A    between atoms: C_27  and  C_28
REMARK    8  A    between atoms: C_28  and  C_29
REMARK    9  A    between atoms: C_29  and  O_32
REMARK                            x       y       z     vdW  Elec       q    Type
REMARK                         _______ _______ _______ _____ _____    ______ ____
ROOT
ATOM      1  C   UNL     1      57.065  39.194  72.752  0.00  0.00    +0.000 C 
ATOM      2  C   UNL     1      56.242  39.522  71.509  0.00  0.00    +0.000 C 
ATOM      3  C   UNL     1      57.691  37.738  72.399  0.00  0.00    +0.000 C 
ATOM      4  C   UNL     1      56.462  38.527  70.512  0.00  0.00    +0.000 C 
ATOM      5  C   UNL     1      57.368  37.447  71.036  0.00  0.00    +0.000 C 
ATOM      6  C   UNL     1      56.271  39.023  73.980  0.00  0.00    +0.000 C 
ATOM      7  C   UNL     1      57.736  36.673  73.409  0.00  0.00    +0.000 C 
ATOM      8  C   UNL     1      58.265  40.172  72.900  0.00  0.00    +0.000 C 
ATOM      9  C   UNL     1      56.050  38.008  75.087  0.00  0.00    +0.000 C 
ATOM     10  C   UNL     1      56.941  36.900  74.563  0.00  0.00    +0.000 C 
ENDROOT
BRANCH   7  11
ATOM     11  C   UNL     1      58.323  35.529  73.242  0.00  0.00    +0.000 C 
ATOM     12  C   UNL     1      59.031  34.184  73.045  0.00  0.00    +0.000 C 
BRANCH  12  13
ATOM     13  C   UNL     1      59.639  33.048  72.881  0.00  0.00    +0.000 A 
ATOM     14  C   UNL     1      59.338  32.242  71.736  0.00  0.00    +0.000 A 
ATOM     15  C   UNL     1      60.624  32.416  73.815  0.00  0.00    +0.000 A 
ATOM     16  C   UNL     1      59.784  30.961  71.302  0.00  0.00    +0.000 A 
ATOM     17  C   UNL     1      60.701  30.479  72.279  0.00  0.00    +0.000 A 
ATOM     18  C   UNL     1      61.175  31.063  73.489  0.00  0.00    +0.000 A 
ATOM     19  C   UNL     1      61.040  33.030  74.938  0.00  0.00    +0.000 C 
BRANCH  16  20
ATOM     20  O   UNL     1      59.920  30.670  69.975  0.00  0.00    +0.000 OA
ATOM     21  H   UNL     1      59.061  30.688  69.521  0.00  0.00    +0.000 HD
ENDBRANCH  16  20
BRANCH  18  22
ATOM     22  O   UNL     1      62.088  30.437  74.303  0.00  0.00    +0.000 OA
ATOM     23  H   UNL     1      61.651  30.117  75.116  0.00  0.00    +0.000 HD
ENDBRANCH  18  22
ENDBRANCH  12  13
ENDBRANCH   7  11
BRANCH   2  24
ATOM     24  C   UNL     1      55.499  40.725  71.308  0.00  0.00    +0.000 C 
ATOM     25  C   UNL     1      56.133  42.092  71.302  0.00  0.00    +0.000 C 
BRANCH  24  26
ATOM     26  C   UNL     1      54.077  40.715  71.285  0.00  0.00    +0.000 C 
ATOM     27  C   UNL     1      52.544  40.694  71.247  0.00  0.00    +0.000 C 
BRANCH  27  28
ATOM     28  C   UNL     1      51.011  40.666  71.198  0.00  0.00    +0.000 C 
BRANCH  28  29
ATOM     29  C   UNL     1      49.549  40.641  71.155  0.00  0.00    +0.000 C 
ATOM     30  C   UNL     1      48.964  41.691  70.202  0.00  0.00    +0.000 C 
ATOM     31  C   UNL     1      48.978  39.253  70.845  0.00  0.00    +0.000 C 
BRANCH  29  32
ATOM     32  O   UNL     1      49.047  40.971  72.430  0.00  0.00    +0.000 OA
ATOM     33  H   UNL     1      49.860  40.842  72.941  0.00  0.00    +0.000 HD
ENDBRANCH  29  32
ENDBRANCH  28  29
ENDBRANCH  27  28
ENDBRANCH  24  26
ENDBRANCH   2  24
TORSDOF 9
ENDMDL
MODEL 6
REMARK VINA RESULT:      -5.8     22.006     29.899
REMARK  Name = Calcitriol.pdbqt.pdb
REMARK  9 active torsions:
REMARK  status: ('A' for Active; 'I' for Inactive)
REMARK    1  A    between atoms: C_2  and  C_24
REMARK    2  A    between atoms: C_7  and  C_11
REMARK    3  A    between atoms: C_12  and  C_13
REMARK    4  A    between atoms: C_16  and  O_20
REMARK    5  A    between atoms: C_18  and  O_22
REMARK    6  A    between atoms: C_24  and  C_26
REMARK    7  A    between atoms: C_27  and  C_28
REMARK    8  A    between atoms: C_28  and  C_29
REMARK    9  A    between atoms: C_29  and  O_32
REMARK                            x       y       z     vdW  Elec       q    Type
REMARK                         _______ _______ _______ _____ _____    ______ ____
ROOT
ATOM      1  C   UNL     1      38.084  21.813  85.366  0.00  0.00    +0.000 C 
ATOM      2  C   UNL     1      37.343  21.573  84.054  0.00  0.00    +0.000 C 
ATOM      3  C   UNL     1      39.077  23.045  85.002  0.00  0.00    +0.000 C 
ATOM      4  C   UNL     1      37.696  22.583  83.111  0.00  0.00    +0.000 C 
ATOM      5  C   UNL     1      38.735  23.504  83.691  0.00  0.00    +0.000 C 
ATOM      6  C   UNL     1      38.941  20.696  85.794  0.00  0.00    +0.000 C 
ATOM      7  C   UNL     1      40.471  23.051  85.464  0.00  0.00    +0.000 C 
ATOM      8  C   UNL     1      37.115  22.331  86.466  0.00  0.00    +0.000 C 
ATOM      9  C   UNL     1      40.380  20.424  86.195  0.00  0.00    +0.000 C 
ATOM     10  C   UNL     1      40.949  21.808  85.959  0.00  0.00    +0.000 C 
ENDROOT
BRANCH   7  11
ATOM     11  C   UNL     1      41.288  24.046  85.317  0.00  0.00    +0.000 C 
ATOM     12  C   UNL     1      42.251  25.225  85.129  0.00  0.00    +0.000 C 
BRANCH  12  13
ATOM     13  C   UNL     1      43.061  26.225  84.962  0.00  0.00    +0.000 A 
ATOM     14  C   UNL     1      42.605  27.402  84.286  0.00  0.00    +0.000 A 
ATOM     15  C   UNL     1      44.504  26.285  85.359  0.00  0.00    +0.000 A 
ATOM     16  C   UNL     1      43.242  28.620  83.913  0.00  0.00    +0.000 A 
ATOM     17  C   UNL     1      44.597  28.536  84.341  0.00  0.00    +0.000 A 
ATOM     18  C   UNL     1      45.303  27.505  85.025  0.00  0.00    +0.000 A 
ATOM     19  C   UNL     1      45.107  25.277  86.017  0.00  0.00    +0.000 C 
BRANCH  16  20
ATOM     20  O   UNL     1      42.559  29.801  83.898  0.00  0.00    +0.000 OA
ATOM     21  H   UNL     1      43.166  30.559  83.862  0.00  0.00    +0.000 HD
ENDBRANCH  16  20
BRANCH  18  22
ATOM     22  O   UNL     1      46.628  27.621  85.371  0.00  0.00    +0.000 OA
ATOM     23  H   UNL     1      47.141  27.986  84.624  0.00  0.00    +0.000 HD
ENDBRANCH  18  22
ENDBRANCH  12  13
ENDBRANCH   7  11
BRANCH   2  24
ATOM     24  C   UNL     1      36.325  20.592  83.850  0.00  0.00    +0.000 C 
ATOM     25  C   UNL     1      36.622  19.126  83.663  0.00  0.00    +0.000 C 
BRANCH  24  26
ATOM     26  C   UNL     1      34.973  20.971  83.626  0.00  0.00    +0.000 C 
ATOM     27  C   UNL     1      33.511  21.376  83.400  0.00  0.00    +0.000 C 
BRANCH  27  28
ATOM     28  C   UNL     1      32.046  21.778  83.187  0.00  0.00    +0.000 C 
BRANCH  28  29
ATOM     29  C   UNL     1      30.650  22.164  82.981  0.00  0.00    +0.000 C 
ATOM     30  C   UNL     1      30.477  23.196  81.860  0.00  0.00    +0.000 C 
ATOM     31  C   UNL     1      29.719  20.966  82.760  0.00  0.00    +0.000 C 
BRANCH  29  32
ATOM     32  O   UNL     1      30.172  22.794  84.148  0.00  0.00    +0.000 OA
ATOM     33  H   UNL     1      29.977  23.664  83.771  0.00  0.00    +0.000 HD
ENDBRANCH  29  32
ENDBRANCH  28  29
ENDBRANCH  27  28
ENDBRANCH  24  26
ENDBRANCH   2  24
TORSDOF 9
ENDMDL
MODEL 7
REMARK VINA RESULT:      -5.7     21.861     29.271
REMARK  Name = Calcitriol.pdbqt.pdb
REMARK  9 active torsions:
REMARK  status: ('A' for Active; 'I' for Inactive)
REMARK    1  A    between atoms: C_2  and  C_24
REMARK    2  A    between atoms: C_7  and  C_11
REMARK    3  A    between atoms: C_12  and  C_13
REMARK    4  A    between atoms: C_16  and  O_20
REMARK    5  A    between atoms: C_18  and  O_22
REMARK    6  A    between atoms: C_24  and  C_26
REMARK    7  A    between atoms: C_27  and  C_28
REMARK    8  A    between atoms: C_28  and  C_29
REMARK    9  A    between atoms: C_29  and  O_32
REMARK                            x       y       z     vdW  Elec       q    Type
REMARK                         _______ _______ _______ _____ _____    ______ ____
ROOT
ATOM      1  C   UNL     1      37.148  23.136  84.000  0.00  0.00    +0.000 C 
ATOM      2  C   UNL     1      36.747  22.319  82.776  0.00  0.00    +0.000 C 
ATOM      3  C   UNL     1      38.663  23.601  83.645  0.00  0.00    +0.000 C 
ATOM      4  C   UNL     1      37.766  22.410  81.782  0.00  0.00    +0.000 C 
ATOM      5  C   UNL     1      38.929  23.215  82.294  0.00  0.00    +0.000 C 
ATOM      6  C   UNL     1      37.229  22.362  85.249  0.00  0.00    +0.000 C 
ATOM      7  C   UNL     1      39.720  23.564  84.663  0.00  0.00    +0.000 C 
ATOM      8  C   UNL     1      36.297  24.432  84.108  0.00  0.00    +0.000 C 
ATOM      9  C   UNL     1      38.209  22.068  86.371  0.00  0.00    +0.000 C 
ATOM     10  C   UNL     1      39.406  22.827  85.835  0.00  0.00    +0.000 C 
ENDROOT
BRANCH   7  11
ATOM     11  C   UNL     1      40.919  24.028  84.493  0.00  0.00    +0.000 C 
ATOM     12  C   UNL     1      42.331  24.588  84.284  0.00  0.00    +0.000 C 
BRANCH  12  13
ATOM     13  C   UNL     1      43.523  25.071  84.106  0.00  0.00    +0.000 A 
ATOM     14  C   UNL     1      44.628  24.179  83.919  0.00  0.00    +0.000 A 
ATOM     15  C   UNL     1      43.917  26.515  84.129  0.00  0.00    +0.000 A 
ATOM     16  C   UNL     1      46.027  24.384  83.749  0.00  0.00    +0.000 A 
ATOM     17  C   UNL     1      46.258  25.788  83.799  0.00  0.00    +0.000 A 
ATOM     18  C   UNL     1      45.359  26.881  83.969  0.00  0.00    +0.000 A 
ATOM     19  C   UNL     1      43.013  27.501  84.281  0.00  0.00    +0.000 C 
BRANCH  16  20
ATOM     20  O   UNL     1      46.775  23.555  82.964  0.00  0.00    +0.000 OA
ATOM     21  H   UNL     1      47.624  23.341  83.385  0.00  0.00    +0.000 HD
ENDBRANCH  16  20
BRANCH  18  22
ATOM     22  O   UNL     1      45.780  28.189  83.973  0.00  0.00    +0.000 OA
ATOM     23  H   UNL     1      45.960  28.483  84.887  0.00  0.00    +0.000 HD
ENDBRANCH  18  22
ENDBRANCH  12  13
ENDBRANCH   7  11
BRANCH   2  24
ATOM     24  C   UNL     1      35.476  21.696  82.582  0.00  0.00    +0.000 C 
ATOM     25  C   UNL     1      35.242  20.222  82.791  0.00  0.00    +0.000 C 
BRANCH  24  26
ATOM     26  C   UNL     1      34.392  22.405  81.996  0.00  0.00    +0.000 C 
ATOM     27  C   UNL     1      33.234  23.180  81.354  0.00  0.00    +0.000 C 
BRANCH  27  28
ATOM     28  C   UNL     1      32.085  23.962  80.706  0.00  0.00    +0.000 C 
BRANCH  28  29
ATOM     29  C   UNL     1      30.991  24.710  80.085  0.00  0.00    +0.000 C 
ATOM     30  C   UNL     1      31.479  25.713  79.033  0.00  0.00    +0.000 C 
ATOM     31  C   UNL     1      29.896  23.808  79.504  0.00  0.00    +0.000 C 
BRANCH  29  32
ATOM     32  O   UNL     1      30.348  25.484  81.072  0.00  0.00    +0.000 OA
ATOM     33  H   UNL     1      30.876  26.292  80.986  0.00  0.00    +0.000 HD
ENDBRANCH  29  32
ENDBRANCH  28  29
ENDBRANCH  27  28
ENDBRANCH  24  26
ENDBRANCH   2  24
TORSDOF 9
ENDMDL
MODEL 8
REMARK VINA RESULT:      -5.5     59.371     64.547
REMARK  Name = Calcitriol.pdbqt.pdb
REMARK  9 active torsions:
REMARK  status: ('A' for Active; 'I' for Inactive)
REMARK    1  A    between atoms: C_2  and  C_24
REMARK    2  A    between atoms: C_7  and  C_11
REMARK    3  A    between atoms: C_12  and  C_13
REMARK    4  A    between atoms: C_16  and  O_20
REMARK    5  A    between atoms: C_18  and  O_22
REMARK    6  A    between atoms: C_24  and  C_26
REMARK    7  A    between atoms: C_27  and  C_28
REMARK    8  A    between atoms: C_28  and  C_29
REMARK    9  A    between atoms: C_29  and  O_32
REMARK                            x       y       z     vdW  Elec       q    Type
REMARK                         _______ _______ _______ _____ _____    ______ ____
ROOT
ATOM      1  C   UNL     1       3.183  13.946  96.539  0.00  0.00    +0.000 C 
ATOM      2  C   UNL     1       2.669  14.708  95.321  0.00  0.00    +0.000 C 
ATOM      3  C   UNL     1       4.469  14.824  97.001  0.00  0.00    +0.000 C 
ATOM      4  C   UNL     1       3.404  15.920  95.168  0.00  0.00    +0.000 C 
ATOM      5  C   UNL     1       4.488  16.014  96.206  0.00  0.00    +0.000 C 
ATOM      6  C   UNL     1       3.682  12.593  96.246  0.00  0.00    +0.000 C 
ATOM      7  C   UNL     1       5.717  14.171  97.412  0.00  0.00    +0.000 C 
ATOM      8  C   UNL     1       2.158  14.008  97.707  0.00  0.00    +0.000 C 
ATOM      9  C   UNL     1       4.926  11.746  96.446  0.00  0.00    +0.000 C 
ATOM     10  C   UNL     1       5.814  12.792  97.090  0.00  0.00    +0.000 C 
ENDROOT
BRANCH   7  11
ATOM     11  C   UNL     1       6.742  14.794  97.904  0.00  0.00    +0.000 C 
ATOM     12  C   UNL     1       7.951  15.543  98.479  0.00  0.00    +0.000 C 
BRANCH  12  13
ATOM     13  C   UNL     1       8.970  16.185  98.964  0.00  0.00    +0.000 A 
ATOM     14  C   UNL     1      10.289  15.873  98.503  0.00  0.00    +0.000 A 
ATOM     15  C   UNL     1       8.943  17.225 100.041  0.00  0.00    +0.000 A 
ATOM     16  C   UNL     1      11.584  16.349  98.858  0.00  0.00    +0.000 A 
ATOM     17  C   UNL     1      11.409  17.317  99.888  0.00  0.00    +0.000 A 
ATOM     18  C   UNL     1      10.233  17.812 100.521  0.00  0.00    +0.000 A 
ATOM     19  C   UNL     1       7.792  17.658 100.589  0.00  0.00    +0.000 C 
BRANCH  16  20
ATOM     20  O   UNL     1      12.581  16.448  97.932  0.00  0.00    +0.000 OA
ATOM     21  H   UNL     1      12.230  16.701  97.062  0.00  0.00    +0.000 HD
ENDBRANCH  16  20
BRANCH  18  22
ATOM     22  O   UNL     1      10.271  18.776 101.500  0.00  0.00    +0.000 OA
ATOM     23  H   UNL     1       9.730  18.501 102.265  0.00  0.00    +0.000 HD
ENDBRANCH  18  22
ENDBRANCH  12  13
ENDBRANCH   7  11
BRANCH   2  24
ATOM     24  C   UNL     1       1.521  14.350  94.550  0.00  0.00    +0.000 C 
ATOM     25  C   UNL     1       0.720  13.098  94.801  0.00  0.00    +0.000 C 
BRANCH  24  26
ATOM     26  C   UNL     1       1.174  15.066  93.372  0.00  0.00    +0.000 C 
ATOM     27  C   UNL     1       0.816  15.835  92.094  0.00  0.00    +0.000 C 
BRANCH  27  28
ATOM     28  C   UNL     1       0.469  16.601  90.811  0.00  0.00    +0.000 C 
BRANCH  28  29
ATOM     29  C   UNL     1       0.140  17.335  89.589  0.00  0.00    +0.000 C 
ATOM     30  C   UNL     1       1.011  16.924  88.395  0.00  0.00    +0.000 C 
ATOM     31  C   UNL     1      -1.346  17.263  89.223  0.00  0.00    +0.000 C 
BRANCH  29  32
ATOM     32  O   UNL     1       0.405  18.705  89.792  0.00  0.00    +0.000 OA
ATOM     33  H   UNL     1       0.488  18.693  90.757  0.00  0.00    +0.000 HD
ENDBRANCH  29  32
ENDBRANCH  28  29
ENDBRANCH  27  28
ENDBRANCH  24  26
ENDBRANCH   2  24
TORSDOF 9
ENDMDL
MODEL 9
REMARK VINA RESULT:      -5.5     59.367     65.844
REMARK  Name = Calcitriol.pdbqt.pdb
REMARK  9 active torsions:
REMARK  status: ('A' for Active; 'I' for Inactive)
REMARK    1  A    between atoms: C_2  and  C_24
REMARK    2  A    between atoms: C_7  and  C_11
REMARK    3  A    between atoms: C_12  and  C_13
REMARK    4  A    between atoms: C_16  and  O_20
REMARK    5  A    between atoms: C_18  and  O_22
REMARK    6  A    between atoms: C_24  and  C_26
REMARK    7  A    between atoms: C_27  and  C_28
REMARK    8  A    between atoms: C_28  and  C_29
REMARK    9  A    between atoms: C_29  and  O_32
REMARK                            x       y       z     vdW  Elec       q    Type
REMARK                         _______ _______ _______ _____ _____    ______ ____
ROOT
ATOM      1  C   UNL     1       3.145  13.918  96.606  0.00  0.00    +0.000 C 
ATOM      2  C   UNL     1       2.596  14.641  95.380  0.00  0.00    +0.000 C 
ATOM      3  C   UNL     1       4.433  14.820  97.014  0.00  0.00    +0.000 C 
ATOM      4  C   UNL     1       3.315  15.857  95.178  0.00  0.00    +0.000 C 
ATOM      5  C   UNL     1       4.421  15.988  96.189  0.00  0.00    +0.000 C 
ATOM      6  C   UNL     1       3.652  12.562  96.336  0.00  0.00    +0.000 C 
ATOM      7  C   UNL     1       5.697  14.190  97.413  0.00  0.00    +0.000 C 
ATOM      8  C   UNL     1       2.147  14.000  97.795  0.00  0.00    +0.000 C 
ATOM      9  C   UNL     1       4.909  11.733  96.529  0.00  0.00    +0.000 C 
ATOM     10  C   UNL     1       5.800  12.803  97.125  0.00  0.00    +0.000 C 
ENDROOT
BRANCH   7  11
ATOM     11  C   UNL     1       6.727  14.835  97.865  0.00  0.00    +0.000 C 
ATOM     12  C   UNL     1       7.936  15.606  98.408  0.00  0.00    +0.000 C 
BRANCH  12  13
ATOM     13  C   UNL     1       8.955  16.259  98.876  0.00  0.00    +0.000 A 
ATOM     14  C   UNL     1      10.280  15.888  98.477  0.00  0.00    +0.000 A 
ATOM     15  C   UNL     1       8.922  17.374  99.876  0.00  0.00    +0.000 A 
ATOM     16  C   UNL     1      11.574  16.362  98.835  0.00  0.00    +0.000 A 
ATOM     17  C   UNL     1      11.394  17.404  99.788  0.00  0.00    +0.000 A 
ATOM     18  C   UNL     1      10.212  17.967 100.350  0.00  0.00    +0.000 A 
ATOM     19  C   UNL     1       7.768  17.869 100.358  0.00  0.00    +0.000 C 
BRANCH  16  20
ATOM     20  O   UNL     1      12.599  16.374  97.933  0.00  0.00    +0.000 OA
ATOM     21  H   UNL     1      12.735  15.495  97.543  0.00  0.00    +0.000 HD
ENDBRANCH  16  20
BRANCH  18  22
ATOM     22  O   UNL     1      10.245  18.997 101.260  0.00  0.00    +0.000 OA
ATOM     23  H   UNL     1       9.402  19.042 101.750  0.00  0.00    +0.000 HD
ENDBRANCH  18  22
ENDBRANCH  12  13
ENDBRANCH   7  11
BRANCH   2  24
ATOM     24  C   UNL     1       1.434  14.252  94.646  0.00  0.00    +0.000 C 
ATOM     25  C   UNL     1       0.595  15.226  93.859  0.00  0.00    +0.000 C 
BRANCH  24  26
ATOM     26  C   UNL     1       0.892  12.944  94.768  0.00  0.00    +0.000 C 
ATOM     27  C   UNL     1       0.304  11.532  94.883  0.00  0.00    +0.000 C 
BRANCH  27  28
ATOM     28  C   UNL     1      -0.288  10.121  94.986  0.00  0.00    +0.000 C 
BRANCH  28  29
ATOM     29  C   UNL     1      -0.849   8.773  95.085  0.00  0.00    +0.000 C 
ATOM     30  C   UNL     1       0.001   7.837  95.952  0.00  0.00    +0.000 C 
ATOM     31  C   UNL     1      -2.310   8.760  95.548  0.00  0.00    +0.000 C 
BRANCH  29  32
ATOM     32  O   UNL     1      -0.862   8.187  93.802  0.00  0.00    +0.000 OA
ATOM     33  H   UNL     1      -1.282   7.345  94.034  0.00  0.00    +0.000 HD
ENDBRANCH  29  32
ENDBRANCH  28  29
ENDBRANCH  27  28
ENDBRANCH  24  26
ENDBRANCH   2  24
TORSDOF 9
ENDMDL
