MODEL 1
REMARK VINA RESULT:      -7.4      0.000      0.000
REMARK  Name = 
REMARK  17 active torsions:
REMARK  status: ('A' for Active; 'I' for Inactive)
REMARK    1  A    between atoms: O_1  and  C_14
REMARK    2  A    between atoms: O_2  and  C_32
REMARK    3  A    between atoms: O_2  and  C_36
REMARK    4  A    between atoms: O_6  and  C_39
REMARK    5  A    between atoms: O_7  and  C_41
REMARK    6  A    between atoms: O_7  and  C_43
REMARK    7  A    between atoms: O_9  and  C_47
REMARK    8  A    between atoms: O_9  and  C_49
REMARK    9  A    between atoms: O_10  and  C_45
REMARK   10  A    between atoms: O_12  and  C_51
REMARK   11  A    between atoms: O_13  and  C_53
REMARK   12  A    between atoms: C_17  and  C_29
REMARK   13  A    between atoms: C_18  and  C_30
REMARK   14  A    between atoms: C_22  and  C_33
REMARK   15  A    between atoms: C_40  and  C_42
REMARK   16  A    between atoms: C_46  and  C_48
REMARK   17  A    between atoms: C_52  and  C_54
REMARK                            x       y       z     vdW  Elec       q    Type
REMARK                         _______ _______ _______ _____ _____    ______ ____
ROOT
ATOM      1  O   UNL     1      54.114  17.734  83.541  0.00  0.00    +0.000 OA
ATOM      2  C   UNL     1      53.570  19.045  83.662  0.00  0.00    +0.000 C 
ATOM      3  C   UNL     1      54.602  20.134  83.354  0.00  0.00    +0.000 C 
ATOM      4  C   UNL     1      55.873  19.544  82.763  0.00  0.00    +0.000 C 
ATOM      5  C   UNL     1      54.548  17.441  82.207  0.00  0.00    +0.000 C 
ATOM      6  C   UNL     1      55.621  18.441  81.715  0.00  0.00    +0.000 C 
ATOM      7  C   UNL     1      55.091  16.013  82.225  0.00  0.00    +0.000 C 
ENDROOT
BRANCH   4   8
ATOM      8  O   UNL     1      56.762  20.560  82.312  0.00  0.00    +0.000 OA
ATOM      9  H   UNL     1      56.296  21.412  82.446  0.00  0.00    +0.000 HD
ENDBRANCH   4   8
BRANCH   2  10
ATOM     10  O   UNL     1      52.962  19.259  84.936  0.00  0.00    +0.000 OA
BRANCH  10  29
ATOM     11  C   UNL     1      48.080  25.277  85.639  0.00  0.00    +0.000 C 
ATOM     12  C   UNL     1      49.051  24.068  85.562  0.00  0.00    +0.000 C 
ATOM     13  C   UNL     1      48.356  22.700  85.786  0.00  0.00    +0.000 C 
ATOM     14  C   UNL     1      46.790  25.116  84.785  0.00  0.00    +0.000 C 
ATOM     15  C   UNL     1      49.348  21.470  85.701  0.00  0.00    +0.000 C 
ATOM     16  C   UNL     1      50.600  21.727  86.605  0.00  0.00    +0.000 C 
ATOM     17  C   UNL     1      47.134  22.576  84.853  0.00  0.00    +0.000 C 
ATOM     18  C   UNL     1      46.149  23.730  85.037  0.00  0.00    +0.000 C 
ATOM     19  C   UNL     1      45.910  26.282  85.340  0.00  0.00    +0.000 C 
ATOM     20  C   UNL     1      50.232  24.235  86.530  0.00  0.00    +0.000 C 
ATOM     21  C   UNL     1      47.548  25.588  87.049  0.00  0.00    +0.000 C 
ATOM     22  C   UNL     1      51.238  23.107  86.365  0.00  0.00    +0.000 C 
ATOM     23  C   UNL     1      46.187  26.269  86.857  0.00  0.00    +0.000 C 
ATOM     24  C   UNL     1      49.805  21.187  84.242  0.00  0.00    +0.000 C 
ATOM     25  C   UNL     1      51.678  20.635  86.456  0.00  0.00    +0.000 C 
ATOM     26  C   UNL     1      47.060  25.294  83.277  0.00  0.00    +0.000 C 
ATOM     27  C   UNL     1      48.600  20.217  86.237  0.00  0.00    +0.000 C 
ATOM     28  C   UNL     1      50.875  20.101  84.133  0.00  0.00    +0.000 C 
ATOM     29  C   UNL     1      52.096  20.398  85.002  0.00  0.00    +0.000 C 
BRANCH  19  32
ATOM     30  O   UNL     1      42.582  26.826  83.717  0.00  0.00    +0.000 OA
ATOM     31  O   UNL     1      41.078  25.797  85.115  0.00  0.00    +0.000 OA
ATOM     32  C   UNL     1      44.457  26.290  84.947  0.00  0.00    +0.000 C 
ATOM     33  C   UNL     1      43.999  26.987  83.719  0.00  0.00    +0.000 C 
ATOM     34  C   UNL     1      43.405  25.792  85.598  0.00  0.00    +0.000 C 
ATOM     35  C   UNL     1      42.214  26.117  84.816  0.00  0.00    +0.000 C 
ENDBRANCH  19  32
BRANCH  11  36
ATOM     36  O   UNL     1      48.784  26.458  85.219  0.00  0.00    +0.000 OA
ATOM     37  H   UNL     1      48.928  27.026  85.995  0.00  0.00    +0.000 HD
ENDBRANCH  11  36
ENDBRANCH  10  29
ENDBRANCH   2  10
BRANCH   6  38
ATOM     38  O   UNL     1      55.455  18.780  80.335  0.00  0.00    +0.000 OA
BRANCH  38  40
ATOM     39  O   UNL     1      54.203  18.583  78.329  0.00  0.00    +0.000 OA
ATOM     40  C   UNL     1      54.211  19.001  79.687  0.00  0.00    +0.000 C 
ATOM     41  C   UNL     1      53.620  20.399  79.847  0.00  0.00    +0.000 C 
ATOM     42  C   UNL     1      52.795  20.825  78.636  0.00  0.00    +0.000 C 
ATOM     43  C   UNL     1      52.857  18.387  77.854  0.00  0.00    +0.000 C 
ATOM     44  C   UNL     1      52.017  19.686  77.946  0.00  0.00    +0.000 C 
ATOM     45  C   UNL     1      52.967  17.904  76.410  0.00  0.00    +0.000 C 
BRANCH  42  46
ATOM     46  O   UNL     1      51.953  21.930  78.958  0.00  0.00    +0.000 OA
ATOM     47  H   UNL     1      51.058  21.591  79.135  0.00  0.00    +0.000 HD
ENDBRANCH  42  46
BRANCH  44  48
ATOM     48  O   UNL     1      50.680  19.423  78.391  0.00  0.00    +0.000 OA
BRANCH  48  50
ATOM     49  O   UNL     1      50.126  17.259  79.115  0.00  0.00    +0.000 OA
ATOM     50  C   UNL     1      50.485  18.576  79.517  0.00  0.00    +0.000 C 
ATOM     51  C   UNL     1      49.336  19.183  80.329  0.00  0.00    +0.000 C 
ATOM     52  C   UNL     1      48.558  18.126  81.110  0.00  0.00    +0.000 C 
ATOM     53  C   UNL     1      50.081  16.331  80.215  0.00  0.00    +0.000 C 
ATOM     54  C   UNL     1      49.454  16.943  81.481  0.00  0.00    +0.000 C 
ATOM     55  C   UNL     1      49.279  15.131  79.723  0.00  0.00    +0.000 C 
BRANCH  52  56
ATOM     56  O   UNL     1      48.046  18.722  82.309  0.00  0.00    +0.000 OA
ATOM     57  H   UNL     1      48.699  19.379  82.610  0.00  0.00    +0.000 HD
ENDBRANCH  52  56
BRANCH  54  58
ATOM     58  O   UNL     1      50.502  17.425  82.340  0.00  0.00    +0.000 OA
ATOM     59  H   UNL     1      50.250  18.342  82.578  0.00  0.00    +0.000 HD
ENDBRANCH  54  58
ENDBRANCH  48  50
ENDBRANCH  44  48
ENDBRANCH  38  40
ENDBRANCH   6  38
TORSDOF 12
ENDMDL
MODEL 2
REMARK VINA RESULT:      -7.4      2.015      3.002
REMARK  Name = 
REMARK  17 active torsions:
REMARK  status: ('A' for Active; 'I' for Inactive)
REMARK    1  A    between atoms: O_1  and  C_14
REMARK    2  A    between atoms: O_2  and  C_32
REMARK    3  A    between atoms: O_2  and  C_36
REMARK    4  A    between atoms: O_6  and  C_39
REMARK    5  A    between atoms: O_7  and  C_41
REMARK    6  A    between atoms: O_7  and  C_43
REMARK    7  A    between atoms: O_9  and  C_47
REMARK    8  A    between atoms: O_9  and  C_49
REMARK    9  A    between atoms: O_10  and  C_45
REMARK   10  A    between atoms: O_12  and  C_51
REMARK   11  A    between atoms: O_13  and  C_53
REMARK   12  A    between atoms: C_17  and  C_29
REMARK   13  A    between atoms: C_18  and  C_30
REMARK   14  A    between atoms: C_22  and  C_33
REMARK   15  A    between atoms: C_40  and  C_42
REMARK   16  A    between atoms: C_46  and  C_48
REMARK   17  A    between atoms: C_52  and  C_54
REMARK                            x       y       z     vdW  Elec       q    Type
REMARK                         _______ _______ _______ _____ _____    ______ ____
ROOT
ATOM      1  O   UNL     1      55.041  18.330  84.884  0.00  0.00    +0.000 OA
ATOM      2  C   UNL     1      53.958  19.161  84.475  0.00  0.00    +0.000 C 
ATOM      3  C   UNL     1      54.403  20.599  84.194  0.00  0.00    +0.000 C 
ATOM      4  C   UNL     1      55.919  20.722  84.188  0.00  0.00    +0.000 C 
ATOM      5  C   UNL     1      56.045  18.197  83.870  0.00  0.00    +0.000 C 
ATOM      6  C   UNL     1      56.635  19.567  83.458  0.00  0.00    +0.000 C 
ATOM      7  C   UNL     1      57.126  17.279  84.439  0.00  0.00    +0.000 C 
ENDROOT
BRANCH   4   8
ATOM      8  O   UNL     1      56.339  22.010  83.754  0.00  0.00    +0.000 OA
ATOM      9  H   UNL     1      57.106  21.865  83.160  0.00  0.00    +0.000 HD
ENDBRANCH   4   8
BRANCH   2  10
ATOM     10  O   UNL     1      52.876  19.129  85.405  0.00  0.00    +0.000 OA
BRANCH  10  29
ATOM     11  C   UNL     1      48.112  25.278  85.621  0.00  0.00    +0.000 C 
ATOM     12  C   UNL     1      49.063  24.050  85.642  0.00  0.00    +0.000 C 
ATOM     13  C   UNL     1      48.364  22.734  86.067  0.00  0.00    +0.000 C 
ATOM     14  C   UNL     1      46.777  25.039  84.861  0.00  0.00    +0.000 C 
ATOM     15  C   UNL     1      49.336  21.484  86.081  0.00  0.00    +0.000 C 
ATOM     16  C   UNL     1      50.637  21.826  86.880  0.00  0.00    +0.000 C 
ATOM     17  C   UNL     1      47.092  22.519  85.221  0.00  0.00    +0.000 C 
ATOM     18  C   UNL     1      46.133  23.706  85.314  0.00  0.00    +0.000 C 
ATOM     19  C   UNL     1      45.942  26.279  85.315  0.00  0.00    +0.000 C 
ATOM     20  C   UNL     1      50.297  24.312  86.519  0.00  0.00    +0.000 C 
ATOM     21  C   UNL     1      47.662  25.768  87.009  0.00  0.00    +0.000 C 
ATOM     22  C   UNL     1      51.279  23.154  86.441  0.00  0.00    +0.000 C 
ATOM     23  C   UNL     1      46.301  26.445  86.806  0.00  0.00    +0.000 C 
ATOM     24  C   UNL     1      49.710  21.017  84.647  0.00  0.00    +0.000 C 
ATOM     25  C   UNL     1      51.693  20.703  86.810  0.00  0.00    +0.000 C 
ATOM     26  C   UNL     1      46.967  25.027  83.331  0.00  0.00    +0.000 C 
ATOM     27  C   UNL     1      48.603  20.319  86.805  0.00  0.00    +0.000 C 
ATOM     28  C   UNL     1      50.759  19.907  84.615  0.00  0.00    +0.000 C 
ATOM     29  C   UNL     1      52.029  20.283  85.376  0.00  0.00    +0.000 C 
BRANCH  19  32
ATOM     30  O   UNL     1      42.541  26.658  83.800  0.00  0.00    +0.000 OA
ATOM     31  O   UNL     1      41.096  25.899  85.416  0.00  0.00    +0.000 OA
ATOM     32  C   UNL     1      44.470  26.267  85.001  0.00  0.00    +0.000 C 
ATOM     33  C   UNL     1      43.959  26.779  83.704  0.00  0.00    +0.000 C 
ATOM     34  C   UNL     1      43.446  25.905  85.774  0.00  0.00    +0.000 C 
ATOM     35  C   UNL     1      42.220  26.138  85.013  0.00  0.00    +0.000 C 
ENDBRANCH  19  32
BRANCH  11  36
ATOM     36  O   UNL     1      48.807  26.386  85.024  0.00  0.00    +0.000 OA
ATOM     37  H   UNL     1      48.527  27.204  85.469  0.00  0.00    +0.000 HD
ENDBRANCH  11  36
ENDBRANCH  10  29
ENDBRANCH   2  10
BRANCH   6  38
ATOM     38  O   UNL     1      56.889  19.647  82.052  0.00  0.00    +0.000 OA
BRANCH  38  40
ATOM     39  O   UNL     1      54.882  20.378  81.018  0.00  0.00    +0.000 OA
ATOM     40  C   UNL     1      55.931  19.419  81.029  0.00  0.00    +0.000 C 
ATOM     41  C   UNL     1      55.389  17.995  80.934  0.00  0.00    +0.000 C 
ATOM     42  C   UNL     1      53.950  17.952  80.430  0.00  0.00    +0.000 C 
ATOM     43  C   UNL     1      54.216  20.403  79.740  0.00  0.00    +0.000 C 
ATOM     44  C   UNL     1      53.594  19.029  79.385  0.00  0.00    +0.000 C 
ATOM     45  C   UNL     1      53.145  21.487  79.826  0.00  0.00    +0.000 C 
BRANCH  42  46
ATOM     46  O   UNL     1      53.607  16.640  79.984  0.00  0.00    +0.000 OA
ATOM     47  H   UNL     1      52.885  16.306  80.545  0.00  0.00    +0.000 HD
ENDBRANCH  42  46
BRANCH  44  48
ATOM     48  O   UNL     1      53.775  18.706  78.001  0.00  0.00    +0.000 OA
BRANCH  48  50
ATOM     49  O   UNL     1      52.534  17.173  76.727  0.00  0.00    +0.000 OA
ATOM     50  C   UNL     1      52.626  18.517  77.184  0.00  0.00    +0.000 C 
ATOM     51  C   UNL     1      52.788  19.447  75.977  0.00  0.00    +0.000 C 
ATOM     52  C   UNL     1      52.085  18.908  74.733  0.00  0.00    +0.000 C 
ATOM     53  C   UNL     1      51.302  16.899  76.035  0.00  0.00    +0.000 C 
ATOM     54  C   UNL     1      50.873  18.053  75.110  0.00  0.00    +0.000 C 
ATOM     55  C   UNL     1      51.534  15.615  75.247  0.00  0.00    +0.000 C 
BRANCH  52  56
ATOM     56  O   UNL     1      51.649  20.015  73.934  0.00  0.00    +0.000 OA
ATOM     57  H   UNL     1      50.681  19.945  73.841  0.00  0.00    +0.000 HD
ENDBRANCH  52  56
BRANCH  54  58
ATOM     58  O   UNL     1      49.932  18.891  75.806  0.00  0.00    +0.000 OA
ATOM     59  H   UNL     1      49.608  18.357  76.560  0.00  0.00    +0.000 HD
ENDBRANCH  54  58
ENDBRANCH  48  50
ENDBRANCH  44  48
ENDBRANCH  38  40
ENDBRANCH   6  38
TORSDOF 12
ENDMDL
MODEL 3
REMARK VINA RESULT:      -7.1      1.582      2.286
REMARK  Name = 
REMARK  17 active torsions:
REMARK  status: ('A' for Active; 'I' for Inactive)
REMARK    1  A    between atoms: O_1  and  C_14
REMARK    2  A    between atoms: O_2  and  C_32
REMARK    3  A    between atoms: O_2  and  C_36
REMARK    4  A    between atoms: O_6  and  C_39
REMARK    5  A    between atoms: O_7  and  C_41
REMARK    6  A    between atoms: O_7  and  C_43
REMARK    7  A    between atoms: O_9  and  C_47
REMARK    8  A    between atoms: O_9  and  C_49
REMARK    9  A    between atoms: O_10  and  C_45
REMARK   10  A    between atoms: O_12  and  C_51
REMARK   11  A    between atoms: O_13  and  C_53
REMARK   12  A    between atoms: C_17  and  C_29
REMARK   13  A    between atoms: C_18  and  C_30
REMARK   14  A    between atoms: C_22  and  C_33
REMARK   15  A    between atoms: C_40  and  C_42
REMARK   16  A    between atoms: C_46  and  C_48
REMARK   17  A    between atoms: C_52  and  C_54
REMARK                            x       y       z     vdW  Elec       q    Type
REMARK                         _______ _______ _______ _____ _____    ______ ____
ROOT
ATOM      1  O   UNL     1      53.993  19.833  85.230  0.00  0.00    +0.000 OA
ATOM      2  C   UNL     1      53.777  21.218  85.489  0.00  0.00    +0.000 C 
ATOM      3  C   UNL     1      54.977  22.079  85.086  0.00  0.00    +0.000 C 
ATOM      4  C   UNL     1      55.996  21.277  84.292  0.00  0.00    +0.000 C 
ATOM      5  C   UNL     1      54.174  19.557  83.836  0.00  0.00    +0.000 C 
ATOM      6  C   UNL     1      55.370  20.338  83.242  0.00  0.00    +0.000 C 
ATOM      7  C   UNL     1      54.382  18.048  83.710  0.00  0.00    +0.000 C 
ENDROOT
BRANCH   4   8
ATOM      8  O   UNL     1      57.023  22.110  83.764  0.00  0.00    +0.000 OA
ATOM      9  H   UNL     1      57.209  21.778  82.861  0.00  0.00    +0.000 HD
ENDBRANCH   4   8
BRANCH   2  10
ATOM     10  O   UNL     1      53.403  21.458  86.846  0.00  0.00    +0.000 OA
BRANCH  10  29
ATOM     11  C   UNL     1      46.349  24.674  87.510  0.00  0.00    +0.000 C 
ATOM     12  C   UNL     1      47.729  23.975  87.373  0.00  0.00    +0.000 C 
ATOM     13  C   UNL     1      48.024  23.466  85.939  0.00  0.00    +0.000 C 
ATOM     14  C   UNL     1      46.068  25.752  86.425  0.00  0.00    +0.000 C 
ATOM     15  C   UNL     1      49.435  22.759  85.802  0.00  0.00    +0.000 C 
ATOM     16  C   UNL     1      49.609  21.688  86.930  0.00  0.00    +0.000 C 
ATOM     17  C   UNL     1      47.802  24.605  84.923  0.00  0.00    +0.000 C 
ATOM     18  C   UNL     1      46.394  25.194  85.018  0.00  0.00    +0.000 C 
ATOM     19  C   UNL     1      44.536  25.990  86.621  0.00  0.00    +0.000 C 
ATOM     20  C   UNL     1      47.883  22.835  88.391  0.00  0.00    +0.000 C 
ATOM     21  C   UNL     1      45.136  23.732  87.414  0.00  0.00    +0.000 C 
ATOM     22  C   UNL     1      49.277  22.233  88.331  0.00  0.00    +0.000 C 
ATOM     23  C   UNL     1      43.971  24.580  86.891  0.00  0.00    +0.000 C 
ATOM     24  C   UNL     1      50.607  23.777  85.862  0.00  0.00    +0.000 C 
ATOM     25  C   UNL     1      51.019  21.063  86.947  0.00  0.00    +0.000 C 
ATOM     26  C   UNL     1      46.867  27.048  86.664  0.00  0.00    +0.000 C 
ATOM     27  C   UNL     1      49.475  22.038  84.425  0.00  0.00    +0.000 C 
ATOM     28  C   UNL     1      51.989  23.124  85.880  0.00  0.00    +0.000 C 
ATOM     29  C   UNL     1      52.138  22.108  87.011  0.00  0.00    +0.000 C 
BRANCH  19  32
ATOM     30  O   UNL     1      42.488  27.163  83.717  0.00  0.00    +0.000 OA
ATOM     31  O   UNL     1      42.899  29.419  83.589  0.00  0.00    +0.000 OA
ATOM     32  C   UNL     1      43.823  26.781  85.558  0.00  0.00    +0.000 C 
ATOM     33  C   UNL     1      42.920  26.117  84.585  0.00  0.00    +0.000 C 
ATOM     34  C   UNL     1      43.917  28.079  85.268  0.00  0.00    +0.000 C 
ATOM     35  C   UNL     1      43.061  28.331  84.110  0.00  0.00    +0.000 C 
ENDBRANCH  19  32
BRANCH  11  36
ATOM     36  O   UNL     1      46.269  25.279  88.812  0.00  0.00    +0.000 OA
ATOM     37  H   UNL     1      45.647  26.026  88.769  0.00  0.00    +0.000 HD
ENDBRANCH  11  36
ENDBRANCH  10  29
ENDBRANCH   2  10
BRANCH   6  38
ATOM     38  O   UNL     1      55.105  20.809  81.917  0.00  0.00    +0.000 OA
BRANCH  38  40
ATOM     39  O   UNL     1      54.733  19.160  80.251  0.00  0.00    +0.000 OA
ATOM     40  C   UNL     1      54.181  20.229  81.007  0.00  0.00    +0.000 C 
ATOM     41  C   UNL     1      53.421  21.210  80.120  0.00  0.00    +0.000 C 
ATOM     42  C   UNL     1      53.072  20.614  78.759  0.00  0.00    +0.000 C 
ATOM     43  C   UNL     1      53.697  18.319  79.708  0.00  0.00    +0.000 C 
ATOM     44  C   UNL     1      52.744  19.107  78.774  0.00  0.00    +0.000 C 
ATOM     45  C   UNL     1      54.398  17.190  78.956  0.00  0.00    +0.000 C 
BRANCH  42  46
ATOM     46  O   UNL     1      52.052  21.377  78.116  0.00  0.00    +0.000 OA
ATOM     47  H   UNL     1      52.440  22.221  77.827  0.00  0.00    +0.000 HD
ENDBRANCH  42  46
BRANCH  44  48
ATOM     48  O   UNL     1      51.377  18.720  78.961  0.00  0.00    +0.000 OA
BRANCH  48  50
ATOM     49  O   UNL     1      50.562  17.063  80.411  0.00  0.00    +0.000 OA
ATOM     50  C   UNL     1      50.919  18.433  80.277  0.00  0.00    +0.000 C 
ATOM     51  C   UNL     1      49.676  19.300  80.508  0.00  0.00    +0.000 C 
ATOM     52  C   UNL     1      48.700  18.660  81.493  0.00  0.00    +0.000 C 
ATOM     53  C   UNL     1      50.251  16.695  81.768  0.00  0.00    +0.000 C 
ATOM     54  C   UNL     1      49.434  17.774  82.502  0.00  0.00    +0.000 C 
ATOM     55  C   UNL     1      49.484  15.380  81.685  0.00  0.00    +0.000 C 
BRANCH  52  56
ATOM     56  O   UNL     1      48.008  19.699  82.196  0.00  0.00    +0.000 OA
ATOM     57  H   UNL     1      48.603  20.469  82.242  0.00  0.00    +0.000 HD
ENDBRANCH  52  56
BRANCH  54  58
ATOM     58  O   UNL     1      50.327  18.606  83.263  0.00  0.00    +0.000 OA
ATOM     59  H   UNL     1      51.231  18.341  82.995  0.00  0.00    +0.000 HD
ENDBRANCH  54  58
ENDBRANCH  48  50
ENDBRANCH  44  48
ENDBRANCH  38  40
ENDBRANCH   6  38
TORSDOF 12
ENDMDL
MODEL 4
REMARK VINA RESULT:      -7.1      1.970      2.734
REMARK  Name = 
REMARK  17 active torsions:
REMARK  status: ('A' for Active; 'I' for Inactive)
REMARK    1  A    between atoms: O_1  and  C_14
REMARK    2  A    between atoms: O_2  and  C_32
REMARK    3  A    between atoms: O_2  and  C_36
REMARK    4  A    between atoms: O_6  and  C_39
REMARK    5  A    between atoms: O_7  and  C_41
REMARK    6  A    between atoms: O_7  and  C_43
REMARK    7  A    between atoms: O_9  and  C_47
REMARK    8  A    between atoms: O_9  and  C_49
REMARK    9  A    between atoms: O_10  and  C_45
REMARK   10  A    between atoms: O_12  and  C_51
REMARK   11  A    between atoms: O_13  and  C_53
REMARK   12  A    between atoms: C_17  and  C_29
REMARK   13  A    between atoms: C_18  and  C_30
REMARK   14  A    between atoms: C_22  and  C_33
REMARK   15  A    between atoms: C_40  and  C_42
REMARK   16  A    between atoms: C_46  and  C_48
REMARK   17  A    between atoms: C_52  and  C_54
REMARK                            x       y       z     vdW  Elec       q    Type
REMARK                         _______ _______ _______ _____ _____    ______ ____
ROOT
ATOM      1  O   UNL     1      52.580  17.579  81.835  0.00  0.00    +0.000 OA
ATOM      2  C   UNL     1      51.553  18.563  81.744  0.00  0.00    +0.000 C 
ATOM      3  C   UNL     1      52.116  19.978  81.590  0.00  0.00    +0.000 C 
ATOM      4  C   UNL     1      53.614  19.956  81.329  0.00  0.00    +0.000 C 
ATOM      5  C   UNL     1      53.382  17.512  80.649  0.00  0.00    +0.000 C 
ATOM      6  C   UNL     1      54.057  18.867  80.331  0.00  0.00    +0.000 C 
ATOM      7  C   UNL     1      54.422  16.417  80.883  0.00  0.00    +0.000 C 
ENDROOT
BRANCH   4   8
ATOM      8  O   UNL     1      54.110  21.251  81.008  0.00  0.00    +0.000 OA
ATOM      9  H   UNL     1      54.504  21.181  80.113  0.00  0.00    +0.000 HD
ENDBRANCH   4   8
BRANCH   2  10
ATOM     10  O   UNL     1      50.640  18.489  82.840  0.00  0.00    +0.000 OA
BRANCH  10  29
ATOM     11  C   UNL     1      47.444  25.125  85.348  0.00  0.00    +0.000 C 
ATOM     12  C   UNL     1      48.086  23.781  84.908  0.00  0.00    +0.000 C 
ATOM     13  C   UNL     1      47.131  22.567  85.038  0.00  0.00    +0.000 C 
ATOM     14  C   UNL     1      46.045  25.398  84.727  0.00  0.00    +0.000 C 
ATOM     15  C   UNL     1      47.787  21.200  84.583  0.00  0.00    +0.000 C 
ATOM     16  C   UNL     1      49.179  21.018  85.274  0.00  0.00    +0.000 C 
ATOM     17  C   UNL     1      45.793  22.876  84.334  0.00  0.00    +0.000 C 
ATOM     18  C   UNL     1      45.140  24.150  84.871  0.00  0.00    +0.000 C 
ATOM     19  C   UNL     1      45.548  26.589  85.608  0.00  0.00    +0.000 C 
ATOM     20  C   UNL     1      49.399  23.515  85.660  0.00  0.00    +0.000 C 
ATOM     21  C   UNL     1      47.205  25.260  86.863  0.00  0.00    +0.000 C 
ATOM     22  C   UNL     1      50.081  22.259  85.142  0.00  0.00    +0.000 C 
ATOM     23  C   UNL     1      46.027  26.228  87.029  0.00  0.00    +0.000 C 
ATOM     24  C   UNL     1      47.954  21.117  83.040  0.00  0.00    +0.000 C 
ATOM     25  C   UNL     1      49.941  19.778  84.763  0.00  0.00    +0.000 C 
ATOM     26  C   UNL     1      46.131  25.804  83.242  0.00  0.00    +0.000 C 
ATOM     27  C   UNL     1      46.852  20.046  85.043  0.00  0.00    +0.000 C 
ATOM     28  C   UNL     1      48.715  19.877  82.570  0.00  0.00    +0.000 C 
ATOM     29  C   UNL     1      50.082  19.746  83.238  0.00  0.00    +0.000 C 
BRANCH  19  32
ATOM     30  O   UNL     1      42.224  28.008  84.636  0.00  0.00    +0.000 OA
ATOM     31  O   UNL     1      40.785  27.295  86.277  0.00  0.00    +0.000 OA
ATOM     32  C   UNL     1      44.096  26.968  85.491  0.00  0.00    +0.000 C 
ATOM     33  C   UNL     1      43.614  27.822  84.376  0.00  0.00    +0.000 C 
ATOM     34  C   UNL     1      43.086  26.703  86.321  0.00  0.00    +0.000 C 
ATOM     35  C   UNL     1      41.893  27.348  85.776  0.00  0.00    +0.000 C 
ENDBRANCH  19  32
BRANCH  11  36
ATOM     36  O   UNL     1      48.337  26.196  84.998  0.00  0.00    +0.000 OA
ATOM     37  H   UNL     1      47.808  26.954  84.697  0.00  0.00    +0.000 HD
ENDBRANCH  11  36
ENDBRANCH  10  29
ENDBRANCH   2  10
BRANCH   6  38
ATOM     38  O   UNL     1      54.087  19.142  78.927  0.00  0.00    +0.000 OA
BRANCH  38  40
ATOM     39  O   UNL     1      54.258  17.800  76.976  0.00  0.00    +0.000 OA
ATOM     40  C   UNL     1      53.394  18.404  77.930  0.00  0.00    +0.000 C 
ATOM     41  C   UNL     1      52.233  19.128  77.256  0.00  0.00    +0.000 C 
ATOM     42  C   UNL     1      52.033  18.688  75.808  0.00  0.00    +0.000 C 
ATOM     43  C   UNL     1      53.598  16.719  76.290  0.00  0.00    +0.000 C 
ATOM     44  C   UNL     1      52.334  17.201  75.534  0.00  0.00    +0.000 C 
ATOM     45  C   UNL     1      54.621  16.122  75.327  0.00  0.00    +0.000 C 
BRANCH  42  46
ATOM     46  O   UNL     1      50.743  19.070  75.335  0.00  0.00    +0.000 OA
ATOM     47  H   UNL     1      50.114  19.002  76.074  0.00  0.00    +0.000 HD
ENDBRANCH  42  46
BRANCH  44  48
ATOM     48  O   UNL     1      51.255  16.266  75.655  0.00  0.00    +0.000 OA
BRANCH  48  50
ATOM     49  O   UNL     1      51.051  14.031  76.345  0.00  0.00    +0.000 OA
ATOM     50  C   UNL     1      51.237  15.377  76.765  0.00  0.00    +0.000 C 
ATOM     51  C   UNL     1      50.054  15.796  77.644  0.00  0.00    +0.000 C 
ATOM     52  C   UNL     1      49.473  14.622  78.430  0.00  0.00    +0.000 C 
ATOM     53  C   UNL     1      51.192  13.084  77.420  0.00  0.00    +0.000 C 
ATOM     54  C   UNL     1      50.546  13.573  78.729  0.00  0.00    +0.000 C 
ATOM     55  C   UNL     1      50.547  11.791  76.933  0.00  0.00    +0.000 C 
BRANCH  52  56
ATOM     56  O   UNL     1      48.940  15.114  79.667  0.00  0.00    +0.000 OA
ATOM     57  H   UNL     1      48.458  14.380  80.090  0.00  0.00    +0.000 HD
ENDBRANCH  52  56
BRANCH  54  58
ATOM     58  O   UNL     1      51.555  14.184  79.553  0.00  0.00    +0.000 OA
ATOM     59  H   UNL     1      51.094  14.471  80.369  0.00  0.00    +0.000 HD
ENDBRANCH  54  58
ENDBRANCH  48  50
ENDBRANCH  44  48
ENDBRANCH  38  40
ENDBRANCH   6  38
TORSDOF 12
ENDMDL
MODEL 5
REMARK VINA RESULT:      -7.1      2.720      3.782
REMARK  Name = 
REMARK  17 active torsions:
REMARK  status: ('A' for Active; 'I' for Inactive)
REMARK    1  A    between atoms: O_1  and  C_14
REMARK    2  A    between atoms: O_2  and  C_32
REMARK    3  A    between atoms: O_2  and  C_36
REMARK    4  A    between atoms: O_6  and  C_39
REMARK    5  A    between atoms: O_7  and  C_41
REMARK    6  A    between atoms: O_7  and  C_43
REMARK    7  A    between atoms: O_9  and  C_47
REMARK    8  A    between atoms: O_9  and  C_49
REMARK    9  A    between atoms: O_10  and  C_45
REMARK   10  A    between atoms: O_12  and  C_51
REMARK   11  A    between atoms: O_13  and  C_53
REMARK   12  A    between atoms: C_17  and  C_29
REMARK   13  A    between atoms: C_18  and  C_30
REMARK   14  A    between atoms: C_22  and  C_33
REMARK   15  A    between atoms: C_40  and  C_42
REMARK   16  A    between atoms: C_46  and  C_48
REMARK   17  A    between atoms: C_52  and  C_54
REMARK                            x       y       z     vdW  Elec       q    Type
REMARK                         _______ _______ _______ _____ _____    ______ ____
ROOT
ATOM      1  O   UNL     1      52.759  18.105  81.900  0.00  0.00    +0.000 OA
ATOM      2  C   UNL     1      51.488  18.688  81.622  0.00  0.00    +0.000 C 
ATOM      3  C   UNL     1      51.606  20.131  81.125  0.00  0.00    +0.000 C 
ATOM      4  C   UNL     1      53.050  20.500  80.823  0.00  0.00    +0.000 C 
ATOM      5  C   UNL     1      53.586  18.011  80.734  0.00  0.00    +0.000 C 
ATOM      6  C   UNL     1      53.835  19.395  80.088  0.00  0.00    +0.000 C 
ATOM      7  C   UNL     1      54.898  17.364  81.177  0.00  0.00    +0.000 C 
ENDROOT
BRANCH   4   8
ATOM      8  O   UNL     1      53.145  21.773  80.195  0.00  0.00    +0.000 OA
ATOM      9  H   UNL     1      53.686  22.334  80.791  0.00  0.00    +0.000 HD
ENDBRANCH   4   8
BRANCH   2  10
ATOM     10  O   UNL     1      50.601  18.598  82.737  0.00  0.00    +0.000 OA
BRANCH  10  29
ATOM     11  C   UNL     1      47.401  25.187  85.361  0.00  0.00    +0.000 C 
ATOM     12  C   UNL     1      48.046  23.852  84.898  0.00  0.00    +0.000 C 
ATOM     13  C   UNL     1      47.110  22.626  85.054  0.00  0.00    +0.000 C 
ATOM     14  C   UNL     1      45.979  25.444  84.785  0.00  0.00    +0.000 C 
ATOM     15  C   UNL     1      47.769  21.269  84.575  0.00  0.00    +0.000 C 
ATOM     16  C   UNL     1      49.185  21.103  85.222  0.00  0.00    +0.000 C 
ATOM     17  C   UNL     1      45.748  22.920  84.393  0.00  0.00    +0.000 C 
ATOM     18  C   UNL     1      45.096  24.184  84.954  0.00  0.00    +0.000 C 
ATOM     19  C   UNL     1      45.495  26.626  85.683  0.00  0.00    +0.000 C 
ATOM     20  C   UNL     1      49.384  23.601  85.607  0.00  0.00    +0.000 C 
ATOM     21  C   UNL     1      47.208  25.316  86.882  0.00  0.00    +0.000 C 
ATOM     22  C   UNL     1      50.066  22.355  85.065  0.00  0.00    +0.000 C 
ATOM     23  C   UNL     1      46.023  26.268  87.088  0.00  0.00    +0.000 C 
ATOM     24  C   UNL     1      47.888  21.191  83.027  0.00  0.00    +0.000 C 
ATOM     25  C   UNL     1      49.946  19.874  84.684  0.00  0.00    +0.000 C 
ATOM     26  C   UNL     1      46.014  25.854  83.298  0.00  0.00    +0.000 C 
ATOM     27  C   UNL     1      46.864  20.102  85.061  0.00  0.00    +0.000 C 
ATOM     28  C   UNL     1      48.650  19.962  82.530  0.00  0.00    +0.000 C 
ATOM     29  C   UNL     1      50.039  19.847  83.156  0.00  0.00    +0.000 C 
BRANCH  19  32
ATOM     30  O   UNL     1      42.102  27.900  84.749  0.00  0.00    +0.000 OA
ATOM     31  O   UNL     1      40.782  27.424  86.567  0.00  0.00    +0.000 OA
ATOM     32  C   UNL     1      44.036  26.988  85.613  0.00  0.00    +0.000 C 
ATOM     33  C   UNL     1      43.474  27.679  84.425  0.00  0.00    +0.000 C 
ATOM     34  C   UNL     1      43.085  26.842  86.537  0.00  0.00    +0.000 C 
ATOM     35  C   UNL     1      41.853  27.406  85.990  0.00  0.00    +0.000 C 
ENDBRANCH  19  32
BRANCH  11  36
ATOM     36  O   UNL     1      48.269  26.270  84.985  0.00  0.00    +0.000 OA
ATOM     37  H   UNL     1      47.813  27.110  85.167  0.00  0.00    +0.000 HD
ENDBRANCH  11  36
ENDBRANCH  10  29
ENDBRANCH   2  10
BRANCH   6  38
ATOM     38  O   UNL     1      53.832  19.334  78.659  0.00  0.00    +0.000 OA
BRANCH  38  40
ATOM     39  O   UNL     1      53.586  17.870  76.807  0.00  0.00    +0.000 OA
ATOM     40  C   UNL     1      52.941  18.557  77.871  0.00  0.00    +0.000 C 
ATOM     41  C   UNL     1      51.682  19.274  77.393  0.00  0.00    +0.000 C 
ATOM     42  C   UNL     1      51.189  18.751  76.047  0.00  0.00    +0.000 C 
ATOM     43  C   UNL     1      52.783  16.769  76.339  0.00  0.00    +0.000 C 
ATOM     44  C   UNL     1      51.402  17.241  75.819  0.00  0.00    +0.000 C 
ATOM     45  C   UNL     1      53.582  16.082  75.235  0.00  0.00    +0.000 C 
BRANCH  42  46
ATOM     46  O   UNL     1      49.837  19.143  75.815  0.00  0.00    +0.000 OA
ATOM     47  H   UNL     1      49.354  19.088  76.658  0.00  0.00    +0.000 HD
ENDBRANCH  42  46
BRANCH  44  48
ATOM     48  O   UNL     1      50.352  16.349  76.214  0.00  0.00    +0.000 OA
BRANCH  48  50
ATOM     49  O   UNL     1      48.247  15.882  75.285  0.00  0.00    +0.000 OA
ATOM     50  C   UNL     1      49.645  15.633  75.209  0.00  0.00    +0.000 C 
ATOM     51  C   UNL     1      49.904  14.144  75.467  0.00  0.00    +0.000 C 
ATOM     52  C   UNL     1      48.750  13.265  74.989  0.00  0.00    +0.000 C 
ATOM     53  C   UNL     1      47.514  15.308  74.187  0.00  0.00    +0.000 C 
ATOM     54  C   UNL     1      48.022  13.905  73.805  0.00  0.00    +0.000 C 
ATOM     55  C   UNL     1      46.055  15.268  74.625  0.00  0.00    +0.000 C 
BRANCH  52  56
ATOM     56  O   UNL     1      49.276  11.994  74.586  0.00  0.00    +0.000 OA
ATOM     57  H   UNL     1      50.212  11.966  74.854  0.00  0.00    +0.000 HD
ENDBRANCH  52  56
BRANCH  54  58
ATOM     58  O   UNL     1      48.954  14.021  72.715  0.00  0.00    +0.000 OA
ATOM     59  H   UNL     1      48.694  13.333  72.069  0.00  0.00    +0.000 HD
ENDBRANCH  54  58
ENDBRANCH  48  50
ENDBRANCH  44  48
ENDBRANCH  38  40
ENDBRANCH   6  38
TORSDOF 12
ENDMDL
MODEL 6
REMARK VINA RESULT:      -6.9      2.559     11.392
REMARK  Name = 
REMARK  17 active torsions:
REMARK  status: ('A' for Active; 'I' for Inactive)
REMARK    1  A    between atoms: O_1  and  C_14
REMARK    2  A    between atoms: O_2  and  C_32
REMARK    3  A    between atoms: O_2  and  C_36
REMARK    4  A    between atoms: O_6  and  C_39
REMARK    5  A    between atoms: O_7  and  C_41
REMARK    6  A    between atoms: O_7  and  C_43
REMARK    7  A    between atoms: O_9  and  C_47
REMARK    8  A    between atoms: O_9  and  C_49
REMARK    9  A    between atoms: O_10  and  C_45
REMARK   10  A    between atoms: O_12  and  C_51
REMARK   11  A    between atoms: O_13  and  C_53
REMARK   12  A    between atoms: C_17  and  C_29
REMARK   13  A    between atoms: C_18  and  C_30
REMARK   14  A    between atoms: C_22  and  C_33
REMARK   15  A    between atoms: C_40  and  C_42
REMARK   16  A    between atoms: C_46  and  C_48
REMARK   17  A    between atoms: C_52  and  C_54
REMARK                            x       y       z     vdW  Elec       q    Type
REMARK                         _______ _______ _______ _____ _____    ______ ____
ROOT
ATOM      1  O   UNL     1      47.835  23.082  84.366  0.00  0.00    +0.000 OA
ATOM      2  C   UNL     1      48.256  22.728  85.680  0.00  0.00    +0.000 C 
ATOM      3  C   UNL     1      49.218  23.757  86.281  0.00  0.00    +0.000 C 
ATOM      4  C   UNL     1      49.293  25.013  85.426  0.00  0.00    +0.000 C 
ATOM      5  C   UNL     1      47.099  24.311  84.338  0.00  0.00    +0.000 C 
ATOM      6  C   UNL     1      47.924  25.493  84.901  0.00  0.00    +0.000 C 
ATOM      7  C   UNL     1      46.707  24.556  82.881  0.00  0.00    +0.000 C 
ENDROOT
BRANCH   4   8
ATOM      8  O   UNL     1      50.043  26.039  86.067  0.00  0.00    +0.000 OA
ATOM      9  H   UNL     1      50.773  26.270  85.455  0.00  0.00    +0.000 HD
ENDBRANCH   4   8
BRANCH   2  10
ATOM     10  O   UNL     1      48.812  21.413  85.730  0.00  0.00    +0.000 OA
BRANCH  10  29
ATOM     11  C   UNL     1      50.809  18.072  78.993  0.00  0.00    +0.000 C 
ATOM     12  C   UNL     1      50.385  18.684  80.356  0.00  0.00    +0.000 C 
ATOM     13  C   UNL     1      51.246  18.194  81.548  0.00  0.00    +0.000 C 
ATOM     14  C   UNL     1      52.335  18.157  78.701  0.00  0.00    +0.000 C 
ATOM     15  C   UNL     1      50.815  18.824  82.935  0.00  0.00    +0.000 C 
ATOM     16  C   UNL     1      49.270  18.674  83.134  0.00  0.00    +0.000 C 
ATOM     17  C   UNL     1      52.743  18.379  81.224  0.00  0.00    +0.000 C 
ATOM     18  C   UNL     1      53.143  17.671  79.929  0.00  0.00    +0.000 C 
ATOM     19  C   UNL     1      52.467  17.183  77.487  0.00  0.00    +0.000 C 
ATOM     20  C   UNL     1      48.894  18.446  80.637  0.00  0.00    +0.000 C 
ATOM     21  C   UNL     1      50.487  16.576  78.829  0.00  0.00    +0.000 C 
ATOM     22  C   UNL     1      48.460  19.147  81.914  0.00  0.00    +0.000 C 
ATOM     23  C   UNL     1      51.515  16.020  77.835  0.00  0.00    +0.000 C 
ATOM     24  C   UNL     1      51.214  20.322  83.046  0.00  0.00    +0.000 C 
ATOM     25  C   UNL     1      48.758  19.396  84.397  0.00  0.00    +0.000 C 
ATOM     26  C   UNL     1      52.781  19.583  78.321  0.00  0.00    +0.000 C 
ATOM     27  C   UNL     1      51.537  18.034  84.063  0.00  0.00    +0.000 C 
ATOM     28  C   UNL     1      50.688  21.006  84.308  0.00  0.00    +0.000 C 
ATOM     29  C   UNL     1      49.174  20.869  84.456  0.00  0.00    +0.000 C 
BRANCH  19  32
ATOM     30  O   UNL     1      55.825  16.814  75.876  0.00  0.00    +0.000 OA
ATOM     31  O   UNL     1      56.760  14.980  76.892  0.00  0.00    +0.000 OA
ATOM     32  C   UNL     1      53.859  16.779  77.080  0.00  0.00    +0.000 C 
ATOM     33  C   UNL     1      54.589  17.513  76.016  0.00  0.00    +0.000 C 
ATOM     34  C   UNL     1      54.595  15.749  77.499  0.00  0.00    +0.000 C 
ATOM     35  C   UNL     1      55.848  15.774  76.748  0.00  0.00    +0.000 C 
ENDBRANCH  19  32
BRANCH  11  36
ATOM     36  O   UNL     1      50.088  18.743  77.945  0.00  0.00    +0.000 OA
ATOM     37  H   UNL     1      49.971  18.124  77.204  0.00  0.00    +0.000 HD
ENDBRANCH  11  36
ENDBRANCH  10  29
ENDBRANCH   2  10
BRANCH   6  38
ATOM     38  O   UNL     1      47.126  26.390  85.678  0.00  0.00    +0.000 OA
BRANCH  38  40
ATOM     39  O   UNL     1      45.315  27.647  84.796  0.00  0.00    +0.000 OA
ATOM     40  C   UNL     1      45.716  26.531  85.580  0.00  0.00    +0.000 C 
ATOM     41  C   UNL     1      44.951  26.468  86.898  0.00  0.00    +0.000 C 
ATOM     42  C   UNL     1      43.685  27.320  86.879  0.00  0.00    +0.000 C 
ATOM     43  C   UNL     1      43.957  27.499  84.339  0.00  0.00    +0.000 C 
ATOM     44  C   UNL     1      42.960  27.377  85.519  0.00  0.00    +0.000 C 
ATOM     45  C   UNL     1      43.647  28.723  83.481  0.00  0.00    +0.000 C 
BRANCH  42  46
ATOM     46  O   UNL     1      42.806  26.948  87.940  0.00  0.00    +0.000 OA
ATOM     47  H   UNL     1      43.345  26.727  88.719  0.00  0.00    +0.000 HD
ENDBRANCH  42  46
BRANCH  44  48
ATOM     48  O   UNL     1      41.947  26.397  85.259  0.00  0.00    +0.000 OA
BRANCH  48  50
ATOM     49  O   UNL     1      41.279  25.354  83.264  0.00  0.00    +0.000 OA
ATOM     50  C   UNL     1      42.221  25.355  84.330  0.00  0.00    +0.000 C 
ATOM     51  C   UNL     1      42.106  24.037  85.102  0.00  0.00    +0.000 C 
ATOM     52  C   UNL     1      41.681  22.876  84.205  0.00  0.00    +0.000 C 
ATOM     53  C   UNL     1      41.617  24.424  82.219  0.00  0.00    +0.000 C 
ATOM     54  C   UNL     1      42.156  23.089  82.766  0.00  0.00    +0.000 C 
ATOM     55  C   UNL     1      40.343  24.217  81.408  0.00  0.00    +0.000 C 
BRANCH  52  56
ATOM     56  O   UNL     1      42.255  21.666  84.714  0.00  0.00    +0.000 OA
ATOM     57  H   UNL     1      43.188  21.851  84.926  0.00  0.00    +0.000 HD
ENDBRANCH  52  56
BRANCH  54  58
ATOM     58  O   UNL     1      43.594  23.126  82.768  0.00  0.00    +0.000 OA
ATOM     59  H   UNL     1      43.879  22.428  82.142  0.00  0.00    +0.000 HD
ENDBRANCH  54  58
ENDBRANCH  48  50
ENDBRANCH  44  48
ENDBRANCH  38  40
ENDBRANCH   6  38
TORSDOF 12
ENDMDL
MODEL 7
REMARK VINA RESULT:      -6.9     40.774     44.837
REMARK  Name = 
REMARK  17 active torsions:
REMARK  status: ('A' for Active; 'I' for Inactive)
REMARK    1  A    between atoms: O_1  and  C_14
REMARK    2  A    between atoms: O_2  and  C_32
REMARK    3  A    between atoms: O_2  and  C_36
REMARK    4  A    between atoms: O_6  and  C_39
REMARK    5  A    between atoms: O_7  and  C_41
REMARK    6  A    between atoms: O_7  and  C_43
REMARK    7  A    between atoms: O_9  and  C_47
REMARK    8  A    between atoms: O_9  and  C_49
REMARK    9  A    between atoms: O_10  and  C_45
REMARK   10  A    between atoms: O_12  and  C_51
REMARK   11  A    between atoms: O_13  and  C_53
REMARK   12  A    between atoms: C_17  and  C_29
REMARK   13  A    between atoms: C_18  and  C_30
REMARK   14  A    between atoms: C_22  and  C_33
REMARK   15  A    between atoms: C_40  and  C_42
REMARK   16  A    between atoms: C_46  and  C_48
REMARK   17  A    between atoms: C_52  and  C_54
REMARK                            x       y       z     vdW  Elec       q    Type
REMARK                         _______ _______ _______ _____ _____    ______ ____
ROOT
ATOM      1  O   UNL     1      13.135  12.030 103.834  0.00  0.00    +0.000 OA
ATOM      2  C   UNL     1      12.361  12.353 102.682  0.00  0.00    +0.000 C 
ATOM      3  C   UNL     1      13.145  13.192 101.670  0.00  0.00    +0.000 C 
ATOM      4  C   UNL     1      14.620  13.266 102.032  0.00  0.00    +0.000 C 
ATOM      5  C   UNL     1      14.278  11.225 103.518  0.00  0.00    +0.000 C 
ATOM      6  C   UNL     1      15.214  11.923 102.503  0.00  0.00    +0.000 C 
ATOM      7  C   UNL     1      15.000  10.951 104.837  0.00  0.00    +0.000 C 
ENDROOT
BRANCH   4   8
ATOM      8  O   UNL     1      15.382  13.891 101.005  0.00  0.00    +0.000 OA
ATOM      9  H   UNL     1      16.323  13.700 101.204  0.00  0.00    +0.000 HD
ENDBRANCH   4   8
BRANCH   2  10
ATOM     10  O   UNL     1      11.125  12.982 103.025  0.00  0.00    +0.000 OA
BRANCH  10  29
ATOM     11  C   UNL     1       6.515  15.322  97.209  0.00  0.00    +0.000 C 
ATOM     12  C   UNL     1       7.420  14.908  98.402  0.00  0.00    +0.000 C 
ATOM     13  C   UNL     1       6.625  14.436  99.646  0.00  0.00    +0.000 C 
ATOM     14  C   UNL     1       5.412  14.286  96.854  0.00  0.00    +0.000 C 
ATOM     15  C   UNL     1       7.551  14.009 100.858  0.00  0.00    +0.000 C 
ATOM     16  C   UNL     1       8.612  15.124 101.139  0.00  0.00    +0.000 C 
ATOM     17  C   UNL     1       5.604  13.354  99.236  0.00  0.00    +0.000 C 
ATOM     18  C   UNL     1       4.663  13.839  98.134  0.00  0.00    +0.000 C 
ATOM     19  C   UNL     1       4.500  15.125  95.902  0.00  0.00    +0.000 C 
ATOM     20  C   UNL     1       8.396  16.032  98.782  0.00  0.00    +0.000 C 
ATOM     21  C   UNL     1       5.735  16.632  97.416  0.00  0.00    +0.000 C 
ATOM     22  C   UNL     1       9.355  15.578  99.870  0.00  0.00    +0.000 C 
ATOM     23  C   UNL     1       4.475  16.525  96.549  0.00  0.00    +0.000 C 
ATOM     24  C   UNL     1       8.269  12.656 100.597  0.00  0.00    +0.000 C 
ATOM     25  C   UNL     1       9.641  14.710 102.211  0.00  0.00    +0.000 C 
ATOM     26  C   UNL     1       5.980  13.048  96.131  0.00  0.00    +0.000 C 
ATOM     27  C   UNL     1       6.649  13.857 102.116  0.00  0.00    +0.000 C 
ATOM     28  C   UNL     1       9.283  12.279 101.677  0.00  0.00    +0.000 C 
ATOM     29  C   UNL     1      10.324  13.374 101.905  0.00  0.00    +0.000 C 
BRANCH  19  32
ATOM     30  O   UNL     1       0.952  14.527  94.875  0.00  0.00    +0.000 OA
ATOM     31  O   UNL     1       0.600  12.293  95.270  0.00  0.00    +0.000 OA
ATOM     32  C   UNL     1       3.155  14.547  95.556  0.00  0.00    +0.000 C 
ATOM     33  C   UNL     1       2.067  15.405  95.022  0.00  0.00    +0.000 C 
ATOM     34  C   UNL     1       2.705  13.302  95.717  0.00  0.00    +0.000 C 
ATOM     35  C   UNL     1       1.312  13.280  95.274  0.00  0.00    +0.000 C 
ENDBRANCH  19  32
BRANCH  11  36
ATOM     36  O   UNL     1       7.348  15.543  96.058  0.00  0.00    +0.000 OA
ATOM     37  H   UNL     1       6.838  16.043  95.398  0.00  0.00    +0.000 HD
ENDBRANCH  11  36
ENDBRANCH  10  29
ENDBRANCH   2  10
BRANCH   6  38
ATOM     38  O   UNL     1      15.767  11.005 101.556  0.00  0.00    +0.000 OA
BRANCH  38  40
ATOM     39  O   UNL     1      15.677   8.642 101.355  0.00  0.00    +0.000 OA
ATOM     40  C   UNL     1      15.089   9.886 101.002  0.00  0.00    +0.000 C 
ATOM     41  C   UNL     1      14.793   9.964  99.508  0.00  0.00    +0.000 C 
ATOM     42  C   UNL     1      14.790   8.590  98.843  0.00  0.00    +0.000 C 
ATOM     43  C   UNL     1      14.741   7.559 101.186  0.00  0.00    +0.000 C 
ATOM     44  C   UNL     1      14.250   7.444  99.721  0.00  0.00    +0.000 C 
ATOM     45  C   UNL     1      15.458   6.286 101.629  0.00  0.00    +0.000 C 
BRANCH  42  46
ATOM     46  O   UNL     1      14.144   8.642  97.572  0.00  0.00    +0.000 OA
ATOM     47  H   UNL     1      14.607   8.035  96.969  0.00  0.00    +0.000 HD
ENDBRANCH  42  46
BRANCH  44  48
ATOM     48  O   UNL     1      12.849   7.151  99.652  0.00  0.00    +0.000 OA
BRANCH  48  50
ATOM     49  O   UNL     1      12.533   5.035 100.620  0.00  0.00    +0.000 OA
ATOM     50  C   UNL     1      12.438   5.807  99.429  0.00  0.00    +0.000 C 
ATOM     51  C   UNL     1      13.389   5.226  98.377  0.00  0.00    +0.000 C 
ATOM     52  C   UNL     1      13.560   3.716  98.523  0.00  0.00    +0.000 C 
ATOM     53  C   UNL     1      11.972   3.716 100.478  0.00  0.00    +0.000 C 
ATOM     54  C   UNL     1      12.306   3.073  99.119  0.00  0.00    +0.000 C 
ATOM     55  C   UNL     1      12.530   2.893 101.633  0.00  0.00    +0.000 C 
BRANCH  52  56
ATOM     56  O   UNL     1      13.807   3.153  97.229  0.00  0.00    +0.000 OA
ATOM     57  H   UNL     1      14.446   2.426  97.343  0.00  0.00    +0.000 HD
ENDBRANCH  52  56
BRANCH  54  58
ATOM     58  O   UNL     1      11.213   3.295  98.211  0.00  0.00    +0.000 OA
ATOM     59  H   UNL     1      10.459   2.784  98.572  0.00  0.00    +0.000 HD
ENDBRANCH  54  58
ENDBRANCH  48  50
ENDBRANCH  44  48
ENDBRANCH  38  40
ENDBRANCH   6  38
TORSDOF 12
ENDMDL
MODEL 8
REMARK VINA RESULT:      -6.6     39.139     44.752
REMARK  Name = 
REMARK  17 active torsions:
REMARK  status: ('A' for Active; 'I' for Inactive)
REMARK    1  A    between atoms: O_1  and  C_14
REMARK    2  A    between atoms: O_2  and  C_32
REMARK    3  A    between atoms: O_2  and  C_36
REMARK    4  A    between atoms: O_6  and  C_39
REMARK    5  A    between atoms: O_7  and  C_41
REMARK    6  A    between atoms: O_7  and  C_43
REMARK    7  A    between atoms: O_9  and  C_47
REMARK    8  A    between atoms: O_9  and  C_49
REMARK    9  A    between atoms: O_10  and  C_45
REMARK   10  A    between atoms: O_12  and  C_51
REMARK   11  A    between atoms: O_13  and  C_53
REMARK   12  A    between atoms: C_17  and  C_29
REMARK   13  A    between atoms: C_18  and  C_30
REMARK   14  A    between atoms: C_22  and  C_33
REMARK   15  A    between atoms: C_40  and  C_42
REMARK   16  A    between atoms: C_46  and  C_48
REMARK   17  A    between atoms: C_52  and  C_54
REMARK                            x       y       z     vdW  Elec       q    Type
REMARK                         _______ _______ _______ _____ _____    ______ ____
ROOT
ATOM      1  O   UNL     1      12.915  16.079 103.243  0.00  0.00    +0.000 OA
ATOM      2  C   UNL     1      12.101  15.168 102.509  0.00  0.00    +0.000 C 
ATOM      3  C   UNL     1      12.401  15.199 101.008  0.00  0.00    +0.000 C 
ATOM      4  C   UNL     1      13.652  16.011 100.707  0.00  0.00    +0.000 C 
ATOM      5  C   UNL     1      14.309  15.762 103.156  0.00  0.00    +0.000 C 
ATOM      6  C   UNL     1      14.811  15.758 101.692  0.00  0.00    +0.000 C 
ATOM      7  C   UNL     1      15.050  16.805 103.991  0.00  0.00    +0.000 C 
ENDROOT
BRANCH   4   8
ATOM      8  O   UNL     1      14.035  15.896  99.341  0.00  0.00    +0.000 OA
ATOM      9  H   UNL     1      14.277  16.799  99.046  0.00  0.00    +0.000 HD
ENDBRANCH   4   8
BRANCH   2  10
ATOM     10  O   UNL     1      10.709  15.369 102.759  0.00  0.00    +0.000 OA
BRANCH  10  29
ATOM     11  C   UNL     1       5.844  14.588  96.738  0.00  0.00    +0.000 C 
ATOM     12  C   UNL     1       6.795  14.804  97.946  0.00  0.00    +0.000 C 
ATOM     13  C   UNL     1       6.059  14.875  99.308  0.00  0.00    +0.000 C 
ATOM     14  C   UNL     1       4.825  13.428  96.926  0.00  0.00    +0.000 C 
ATOM     15  C   UNL     1       7.033  15.090 100.538  0.00  0.00    +0.000 C 
ATOM     16  C   UNL     1       8.002  16.284 100.251  0.00  0.00    +0.000 C 
ATOM     17  C   UNL     1       5.126  13.656  99.463  0.00  0.00    +0.000 C 
ATOM     18  C   UNL     1       4.133  13.540  98.306  0.00  0.00    +0.000 C 
ATOM     19  C   UNL     1       3.835  13.698  95.748  0.00  0.00    +0.000 C 
ATOM     20  C   UNL     1       7.680  16.044  97.748  0.00  0.00    +0.000 C 
ATOM     21  C   UNL     1       4.960  15.798  96.388  0.00  0.00    +0.000 C 
ATOM     22  C   UNL     1       8.688  16.183  98.877  0.00  0.00    +0.000 C 
ATOM     23  C   UNL     1       3.702  15.234  95.717  0.00  0.00    +0.000 C 
ATOM     24  C   UNL     1       7.857  13.812 100.861  0.00  0.00    +0.000 C 
ATOM     25  C   UNL     1       9.077  16.456 101.345  0.00  0.00    +0.000 C 
ATOM     26  C   UNL     1       5.484  12.041  96.791  0.00  0.00    +0.000 C 
ATOM     27  C   UNL     1       6.164  15.445 101.778  0.00  0.00    +0.000 C 
ATOM     28  C   UNL     1       8.913  14.020 101.946  0.00  0.00    +0.000 C 
ATOM     29  C   UNL     1       9.863  15.171 101.622  0.00  0.00    +0.000 C 
BRANCH  19  32
ATOM     30  O   UNL     1       0.262  12.596  95.919  0.00  0.00    +0.000 OA
ATOM     31  O   UNL     1       0.353  10.306  95.786  0.00  0.00    +0.000 OA
ATOM     32  C   UNL     1       2.537  12.936  95.755  0.00  0.00    +0.000 C 
ATOM     33  C   UNL     1       1.237  13.638  95.897  0.00  0.00    +0.000 C 
ATOM     34  C   UNL     1       2.333  11.618  95.718  0.00  0.00    +0.000 C 
ATOM     35  C   UNL     1       0.891  11.397  95.808  0.00  0.00    +0.000 C 
ENDBRANCH  19  32
BRANCH  11  36
ATOM     36  O   UNL     1       6.640  14.336  95.567  0.00  0.00    +0.000 OA
ATOM     37  H   UNL     1       6.796  13.378  95.499  0.00  0.00    +0.000 HD
ENDBRANCH  11  36
ENDBRANCH  10  29
ENDBRANCH   2  10
BRANCH   6  38
ATOM     38  O   UNL     1      15.755  14.712 101.445  0.00  0.00    +0.000 OA
BRANCH  38  40
ATOM     39  O   UNL     1      14.833  12.656 102.189  0.00  0.00    +0.000 OA
ATOM     40  C   UNL     1      15.427  13.370 101.114  0.00  0.00    +0.000 C 
ATOM     41  C   UNL     1      16.536  12.562 100.448  0.00  0.00    +0.000 C 
ATOM     42  C   UNL     1      16.459  11.076 100.788  0.00  0.00    +0.000 C 
ATOM     43  C   UNL     1      14.109  11.505 101.711  0.00  0.00    +0.000 C 
ATOM     44  C   UNL     1      15.030  10.519 100.948  0.00  0.00    +0.000 C 
ATOM     45  C   UNL     1      13.484  10.841 102.935  0.00  0.00    +0.000 C 
BRANCH  42  46
ATOM     46  O   UNL     1      17.235  10.305  99.872  0.00  0.00    +0.000 OA
ATOM     47  H   UNL     1      17.464  10.870  99.114  0.00  0.00    +0.000 HD
ENDBRANCH  42  46
BRANCH  44  48
ATOM     48  O   UNL     1      14.386   9.982  99.786  0.00  0.00    +0.000 OA
BRANCH  48  50
ATOM     49  O   UNL     1      14.318   8.073  98.422  0.00  0.00    +0.000 OA
ATOM     50  C   UNL     1      14.117   8.586  99.733  0.00  0.00    +0.000 C 
ATOM     51  C   UNL     1      12.646   8.407 100.122  0.00  0.00    +0.000 C 
ATOM     52  C   UNL     1      12.023   7.172  99.475  0.00  0.00    +0.000 C 
ATOM     53  C   UNL     1      14.218   6.638  98.361  0.00  0.00    +0.000 C 
ATOM     54  C   UNL     1      13.074   6.087  99.232  0.00  0.00    +0.000 C 
ATOM     55  C   UNL     1      14.011   6.290  96.891  0.00  0.00    +0.000 C 
BRANCH  52  56
ATOM     56  O   UNL     1      11.009   6.656 100.348  0.00  0.00    +0.000 OA
ATOM     57  H   UNL     1      11.115   5.688 100.379  0.00  0.00    +0.000 HD
ENDBRANCH  52  56
BRANCH  54  58
ATOM     58  O   UNL     1      13.605   5.682 100.507  0.00  0.00    +0.000 OA
ATOM     59  H   UNL     1      14.563   5.883 100.471  0.00  0.00    +0.000 HD
ENDBRANCH  54  58
ENDBRANCH  48  50
ENDBRANCH  44  48
ENDBRANCH  38  40
ENDBRANCH   6  38
TORSDOF 12
ENDMDL
MODEL 9
REMARK VINA RESULT:      -6.6     27.267     30.929
REMARK  Name = 
REMARK  17 active torsions:
REMARK  status: ('A' for Active; 'I' for Inactive)
REMARK    1  A    between atoms: O_1  and  C_14
REMARK    2  A    between atoms: O_2  and  C_32
REMARK    3  A    between atoms: O_2  and  C_36
REMARK    4  A    between atoms: O_6  and  C_39
REMARK    5  A    between atoms: O_7  and  C_41
REMARK    6  A    between atoms: O_7  and  C_43
REMARK    7  A    between atoms: O_9  and  C_47
REMARK    8  A    between atoms: O_9  and  C_49
REMARK    9  A    between atoms: O_10  and  C_45
REMARK   10  A    between atoms: O_12  and  C_51
REMARK   11  A    between atoms: O_13  and  C_53
REMARK   12  A    between atoms: C_17  and  C_29
REMARK   13  A    between atoms: C_18  and  C_30
REMARK   14  A    between atoms: C_22  and  C_33
REMARK   15  A    between atoms: C_40  and  C_42
REMARK   16  A    between atoms: C_46  and  C_48
REMARK   17  A    between atoms: C_52  and  C_54
REMARK                            x       y       z     vdW  Elec       q    Type
REMARK                         _______ _______ _______ _____ _____    ______ ____
ROOT
ATOM      1  O   UNL     1      20.069  12.535  81.481  0.00  0.00    +0.000 OA
ATOM      2  C   UNL     1      19.095  12.576  82.520  0.00  0.00    +0.000 C 
ATOM      3  C   UNL     1      17.959  11.575  82.293  0.00  0.00    +0.000 C 
ATOM      4  C   UNL     1      18.277  10.623  81.150  0.00  0.00    +0.000 C 
ATOM      5  C   UNL     1      20.729  11.265  81.398  0.00  0.00    +0.000 C 
ATOM      6  C   UNL     1      19.731  10.109  81.152  0.00  0.00    +0.000 C 
ATOM      7  C   UNL     1      21.744  11.371  80.260  0.00  0.00    +0.000 C 
ENDROOT
BRANCH   4   8
ATOM      8  O   UNL     1      17.310   9.583  81.050  0.00  0.00    +0.000 OA
ATOM      9  H   UNL     1      17.522   9.087  80.231  0.00  0.00    +0.000 HD
ENDBRANCH   4   8
BRANCH   2  10
ATOM     10  O   UNL     1      18.585  13.894  82.726  0.00  0.00    +0.000 OA
BRANCH  10  29
ATOM     11  C   UNL     1      19.525  17.083  89.761  0.00  0.00    +0.000 C 
ATOM     12  C   UNL     1      19.280  16.474  88.354  0.00  0.00    +0.000 C 
ATOM     13  C   UNL     1      19.346  17.516  87.208  0.00  0.00    +0.000 C 
ATOM     14  C   UNL     1      20.784  17.992  89.853  0.00  0.00    +0.000 C 
ATOM     15  C   UNL     1      19.101  16.889  85.775  0.00  0.00    +0.000 C 
ATOM     16  C   UNL     1      17.807  16.008  85.789  0.00  0.00    +0.000 C 
ATOM     17  C   UNL     1      20.653  18.327  87.313  0.00  0.00    +0.000 C 
ATOM     18  C   UNL     1      20.805  19.000  88.678  0.00  0.00    +0.000 C 
ATOM     19  C   UNL     1      20.551  18.697  91.228  0.00  0.00    +0.000 C 
ATOM     20  C   UNL     1      17.954  15.700  88.302  0.00  0.00    +0.000 C 
ATOM     21  C   UNL     1      18.388  17.979  90.283  0.00  0.00    +0.000 C 
ATOM     22  C   UNL     1      17.776  15.009  86.960  0.00  0.00    +0.000 C 
ATOM     23  C   UNL     1      19.035  18.977  91.251  0.00  0.00    +0.000 C 
ATOM     24  C   UNL     1      20.309  16.037  85.295  0.00  0.00    +0.000 C 
ATOM     25  C   UNL     1      17.589  15.248  84.465  0.00  0.00    +0.000 C 
ATOM     26  C   UNL     1      22.095  17.180  89.860  0.00  0.00    +0.000 C 
ATOM     27  C   UNL     1      18.890  18.059  84.773  0.00  0.00    +0.000 C 
ATOM     28  C   UNL     1      20.056  15.297  83.982  0.00  0.00    +0.000 C 
ATOM     29  C   UNL     1      18.806  14.421  84.039  0.00  0.00    +0.000 C 
BRANCH  19  32
ATOM     30  O   UNL     1      23.229  21.013  92.440  0.00  0.00    +0.000 OA
ATOM     31  O   UNL     1      22.485  23.110  91.875  0.00  0.00    +0.000 OA
ATOM     32  C   UNL     1      21.432  19.873  91.553  0.00  0.00    +0.000 C 
ATOM     33  C   UNL     1      22.721  19.691  92.265  0.00  0.00    +0.000 C 
ATOM     34  C   UNL     1      21.210  21.173  91.354  0.00  0.00    +0.000 C 
ATOM     35  C   UNL     1      22.353  21.900  91.902  0.00  0.00    +0.000 C 
ENDBRANCH  19  32
BRANCH  11  36
ATOM     36  O   UNL     1      19.644  16.010  90.711  0.00  0.00    +0.000 OA
ATOM     37  H   UNL     1      19.252  15.209  90.324  0.00  0.00    +0.000 HD
ENDBRANCH  11  36
ENDBRANCH  10  29
ENDBRANCH   2  10
BRANCH   6  38
ATOM     38  O   UNL     1      20.079   8.927  81.879  0.00  0.00    +0.000 OA
BRANCH  38  40
ATOM     39  O   UNL     1      22.064   8.444  83.087  0.00  0.00    +0.000 OA
ATOM     40  C   UNL     1      20.720   8.901  83.146  0.00  0.00    +0.000 C 
ATOM     41  C   UNL     1      19.944   8.217  84.267  0.00  0.00    +0.000 C 
ATOM     42  C   UNL     1      20.861   7.558  85.294  0.00  0.00    +0.000 C 
ATOM     43  C   UNL     1      22.805   8.858  84.251  0.00  0.00    +0.000 C 
ATOM     44  C   UNL     1      22.183   8.306  85.558  0.00  0.00    +0.000 C 
ATOM     45  C   UNL     1      24.234   8.352  84.064  0.00  0.00    +0.000 C 
BRANCH  42  46
ATOM     46  O   UNL     1      20.154   7.277  86.500  0.00  0.00    +0.000 OA
ATOM     47  H   UNL     1      20.228   6.323  86.682  0.00  0.00    +0.000 HD
ENDBRANCH  42  46
BRANCH  44  48
ATOM     48  O   UNL     1      22.202   9.282  86.608  0.00  0.00    +0.000 OA
BRANCH  48  50
ATOM     49  O   UNL     1      23.617   9.742  88.425  0.00  0.00    +0.000 OA
ATOM     50  C   UNL     1      23.451   9.829  87.014  0.00  0.00    +0.000 C 
ATOM     51  C   UNL     1      23.439  11.305  86.602  0.00  0.00    +0.000 C 
ATOM     52  C   UNL     1      24.305  12.168  87.516  0.00  0.00    +0.000 C 
ATOM     53  C   UNL     1      24.933  10.132  88.859  0.00  0.00    +0.000 C 
ATOM     54  C   UNL     1      25.466  11.361  88.100  0.00  0.00    +0.000 C 
ATOM     55  C   UNL     1      24.820  10.410  90.354  0.00  0.00    +0.000 C 
BRANCH  52  56
ATOM     56  O   UNL     1      24.830  13.263  86.754  0.00  0.00    +0.000 OA
ATOM     57  H   UNL     1      25.520  13.690  87.294  0.00  0.00    +0.000 HD
ENDBRANCH  52  56
BRANCH  54  58
ATOM     58  O   UNL     1      26.298  10.919  87.012  0.00  0.00    +0.000 OA
ATOM     59  H   UNL     1      27.133  10.613  87.423  0.00  0.00    +0.000 HD
ENDBRANCH  54  58
ENDBRANCH  48  50
ENDBRANCH  44  48
ENDBRANCH  38  40
ENDBRANCH   6  38
TORSDOF 12
ENDMDL
