REMARK  Name = 
REMARK  17 active torsions:
REMARK  status: ('A' for Active; 'I' for Inactive)
REMARK    1  A    between atoms: O_1  and  C_14
REMARK    2  A    between atoms: O_2  and  C_32
REMARK    3  A    between atoms: O_2  and  C_36
REMARK    4  A    between atoms: O_6  and  C_39
REMARK    5  A    between atoms: O_7  and  C_41
REMARK    6  A    between atoms: O_7  and  C_43
REMARK    7  A    between atoms: O_9  and  C_47
REMARK    8  A    between atoms: O_9  and  C_49
REMARK    9  A    between atoms: O_10  and  C_45
REMARK   10  A    between atoms: O_12  and  C_51
REMARK   11  A    between atoms: O_13  and  C_53
REMARK   12  A    between atoms: C_17  and  C_29
REMARK   13  A    between atoms: C_18  and  C_30
REMARK   14  A    between atoms: C_22  and  C_33
REMARK   15  A    between atoms: C_40  and  C_42
REMARK   16  A    between atoms: C_46  and  C_48
REMARK   17  A    between atoms: C_52  and  C_54
REMARK                            x       y       z     vdW  Elec       q    Type
REMARK                         _______ _______ _______ _____ _____    ______ ____
ROOT
ATOM      1  O   UNL     1       1.627  -4.172  -4.610  0.00  0.00    +0.000 OA
ATOM      2  C   UNL     1       0.622  -5.175  -4.488  0.00  0.00    +0.000 C 
ATOM      3  C   UNL     1      -0.703  -4.752  -5.128  0.00  0.00    +0.000 C 
ATOM      4  C   UNL     1      -0.546  -3.476  -5.941  0.00  0.00    +0.000 C 
ATOM      5  C   UNL     1       1.966  -3.898  -5.975  0.00  0.00    +0.000 C 
ATOM      6  C   UNL     1       0.738  -3.434  -6.794  0.00  0.00    +0.000 C 
ATOM      7  C   UNL     1       3.052  -2.823  -5.951  0.00  0.00    +0.000 C 
ENDROOT
BRANCH   4   8
ATOM      8  O   UNL     1      -1.725  -3.177  -6.680  0.00  0.00    +0.000 OA
ATOM      9  H   UNL     1      -1.753  -3.815  -7.424  0.00  0.00    +0.000 HD
ENDBRANCH   4   8
BRANCH   2  10
ATOM     10  O   UNL     1       0.432  -5.583  -3.133  0.00  0.00    +0.000 OA
BRANCH  10  29
ATOM     11  C   UNL     1      -0.308   0.090   2.141  0.00  0.00    +0.000 C 
ATOM     12  C   UNL     1      -0.099  -1.048   1.105  0.00  0.00    +0.000 C 
ATOM     13  C   UNL     1       0.045  -2.451   1.748  0.00  0.00    +0.000 C 
ATOM     14  C   UNL     1      -1.415  -0.200   3.194  0.00  0.00    +0.000 C 
ATOM     15  C   UNL     1       0.252  -3.609   0.688  0.00  0.00    +0.000 C 
ATOM     16  C   UNL     1       1.393  -3.223  -0.311  0.00  0.00    +0.000 C 
ATOM     17  C   UNL     1      -1.126  -2.704   2.720  0.00  0.00    +0.000 C 
ATOM     18  C   UNL     1      -1.231  -1.617   3.790  0.00  0.00    +0.000 C 
ATOM     19  C   UNL     1      -1.136   0.921   4.246  0.00  0.00    +0.000 C 
ATOM     20  C   UNL     1       1.094  -0.754   0.183  0.00  0.00    +0.000 C 
ATOM     21  C   UNL     1       0.930   0.422   2.993  0.00  0.00    +0.000 C 
ATOM     22  C   UNL     1       1.221  -1.812  -0.901  0.00  0.00    +0.000 C 
ATOM     23  C   UNL     1       0.403   0.993   4.315  0.00  0.00    +0.000 C 
ATOM     24  C   UNL     1      -1.051  -3.920  -0.100  0.00  0.00    +0.000 C 
ATOM     25  C   UNL     1       1.549  -4.240  -1.460  0.00  0.00    +0.000 C 
ATOM     26  C   UNL     1      -2.834  -0.068   2.605  0.00  0.00    +0.000 C 
ATOM     27  C   UNL     1       0.682  -4.889   1.459  0.00  0.00    +0.000 C 
ATOM     28  C   UNL     1      -0.859  -4.929  -1.232  0.00  0.00    +0.000 C 
ATOM     29  C   UNL     1       0.239  -4.508  -2.207  0.00  0.00    +0.000 C 
BRANCH  19  32
ATOM     30  O   UNL     1      -3.508   1.104   7.135  0.00  0.00    +0.000 OA
ATOM     31  O   UNL     1      -2.368   0.150   8.885  0.00  0.00    +0.000 OA
ATOM     32  C   UNL     1      -1.839   0.807   5.572  0.00  0.00    +0.000 C 
ATOM     33  C   UNL     1      -3.211   1.342   5.760  0.00  0.00    +0.000 C 
ATOM     34  C   UNL     1      -1.384   0.325   6.729  0.00  0.00    +0.000 C 
ATOM     35  C   UNL     1      -2.443   0.498   7.721  0.00  0.00    +0.000 C 
ENDBRANCH  19  32
BRANCH  11  36
ATOM     36  O   UNL     1      -0.630   1.300   1.434  0.00  0.00    +0.000 OA
ATOM     37  H   UNL     1      -1.293   1.094   0.753  0.00  0.00    +0.000 HD
ENDBRANCH  11  36
ENDBRANCH  10  29
ENDBRANCH   2  10
BRANCH   6  38
ATOM     38  O   UNL     1       0.741  -3.964  -8.123  0.00  0.00    +0.000 OA
BRANCH  38  40
ATOM     39  O   UNL     1      -1.260  -5.238  -8.192  0.00  0.00    +0.000 OA
ATOM     40  C   UNL     1       0.120  -5.176  -8.526  0.00  0.00    +0.000 C 
ATOM     41  C   UNL     1       0.850  -6.457  -8.134  0.00  0.00    +0.000 C 
ATOM     42  C   UNL     1      -0.106  -7.621  -7.889  0.00  0.00    +0.000 C 
ATOM     43  C   UNL     1      -1.944  -6.221  -8.993  0.00  0.00    +0.000 C 
ATOM     44  C   UNL     1      -1.353  -7.640  -8.796  0.00  0.00    +0.000 C 
ATOM     45  C   UNL     1      -3.414  -6.175  -8.583  0.00  0.00    +0.000 C 
BRANCH  42  46
ATOM     46  O   UNL     1       0.592  -8.865  -7.912  0.00  0.00    +0.000 OA
ATOM     47  H   UNL     1       1.276  -8.844  -7.220  0.00  0.00    +0.000 HD
ENDBRANCH  42  46
BRANCH  44  48
ATOM     48  O   UNL     1      -1.270  -8.357 -10.034  0.00  0.00    +0.000 OA
BRANCH  48  50
ATOM     49  O   UNL     1      -0.073  -6.839 -11.367  0.00  0.00    +0.000 OA
ATOM     50  C   UNL     1      -0.129  -8.168 -10.862  0.00  0.00    +0.000 C 
ATOM     51  C   UNL     1      -0.271  -9.144 -12.035  0.00  0.00    +0.000 C 
ATOM     52  C   UNL     1       0.414  -8.632 -13.300  0.00  0.00    +0.000 C 
ATOM     53  C   UNL     1       1.150  -6.559 -12.073  0.00  0.00    +0.000 C 
ATOM     54  C   UNL     1       1.605  -7.734 -12.958  0.00  0.00    +0.000 C 
ATOM     55  C   UNL     1       0.882  -5.310 -12.905  0.00  0.00    +0.000 C 
BRANCH  52  56
ATOM     56  O   UNL     1       0.876  -9.755 -14.061  0.00  0.00    +0.000 OA
ATOM     57  H   UNL     1       1.011  -9.452 -14.977  0.00  0.00    +0.000 HD
ENDBRANCH  52  56
BRANCH  54  58
ATOM     58  O   UNL     1       2.569  -8.522 -12.237  0.00  0.00    +0.000 OA
ATOM     59  H   UNL     1       2.584  -9.395 -12.681  0.00  0.00    +0.000 HD
ENDBRANCH  54  58
ENDBRANCH  48  50
ENDBRANCH  44  48
ENDBRANCH  38  40
ENDBRANCH   6  38
TORSDOF 12
