MODEL 1
REMARK VINA RESULT:      -7.8      0.000      0.000
REMARK  Name = Cdk12_Inhibitor.pdbqt.pdb
REMARK  6 active torsions:
REMARK  status: ('A' for Active; 'I' for Inactive)
REMARK    1  A    between atoms: N_1  and  C_23
REMARK    2  A    between atoms: N_9  and  C_11
REMARK    3  A    between atoms: C_14  and  S_17
REMARK    4  A    between atoms: S_17  and  N_20
REMARK    5  A    between atoms: C_23  and  N_25
REMARK    6  A    between atoms: N_25  and  C_27
REMARK                            x       y       z     vdW  Elec       q    Type
REMARK                         _______ _______ _______ _____ _____    ______ ____
ROOT
ATOM      1  N   UNL     1      58.762  35.544  73.163  0.00  0.00    +0.000 N 
ATOM      2  N   UNL     1      58.434  35.649  74.477  0.00  0.00    +0.000 NA
ATOM      3  N   UNL     1      57.125  37.032  73.244  0.00  0.00    +0.000 NA
ATOM      4  N   UNL     1      58.101  36.710  71.116  0.00  0.00    +0.000 N 
ATOM      5  C   UNL     1      57.430  36.521  74.471  0.00  0.00    +0.000 A 
ATOM      6  C   UNL     1      57.984  36.456  72.443  0.00  0.00    +0.000 A 
ATOM      7  H   UNL     1      59.047  36.875  70.767  0.00  0.00    +0.000 HD
ATOM      8  H   UNL     1      57.500  37.477  70.812  0.00  0.00    +0.000 HD
ATOM      9  N   UNL     1      56.697  36.970  75.504  0.00  0.00    +0.000 N 
ATOM     10  H   UNL     1      55.974  37.638  75.267  0.00  0.00    +0.000 HD
ENDROOT
BRANCH   9  11
ATOM     11  C   UNL     1      56.753  36.640  76.870  0.00  0.00    +0.000 A 
ATOM     12  C   UNL     1      57.494  37.454  77.737  0.00  0.00    +0.000 A 
ATOM     13  C   UNL     1      57.593  37.161  79.095  0.00  0.00    +0.000 A 
ATOM     14  C   UNL     1      56.956  36.030  79.588  0.00  0.00    +0.000 A 
ATOM     15  C   UNL     1      56.196  35.212  78.761  0.00  0.00    +0.000 A 
ATOM     16  C   UNL     1      56.110  35.518  77.406  0.00  0.00    +0.000 A 
BRANCH  14  17
ATOM     17  S   UNL     1      57.019  35.688  81.300  0.00  0.00    +0.000 S 
ATOM     18  O   UNL     1      56.087  36.548  81.993  0.00  0.00    +0.000 OA
ATOM     19  O   UNL     1      57.041  34.260  81.504  0.00  0.00    +0.000 OA
BRANCH  17  20
ATOM     20  N   UNL     1      58.547  36.243  81.721  0.00  0.00    +0.000 NA
ATOM     21  H   UNL     1      58.673  36.171  82.731  0.00  0.00    +0.000 HD
ATOM     22  H   UNL     1      59.254  35.744  81.181  0.00  0.00    +0.000 HD
ENDBRANCH  17  20
ENDBRANCH  14  17
ENDBRANCH   9  11
BRANCH   1  23
ATOM     23  C   UNL     1      59.742  34.604  72.729  0.00  0.00    +0.000 C 
ATOM     24  S   UNL     1      61.409  34.799  72.906  0.00  0.00    +0.000 S 
BRANCH  23  25
ATOM     25  N   UNL     1      59.106  33.448  72.261  0.00  0.00    +0.000 N 
ATOM     26  H   UNL     1      58.195  33.237  72.682  0.00  0.00    +0.000 HD
BRANCH  25  27
ATOM     27  C   UNL     1      59.625  32.382  71.478  0.00  0.00    +0.000 A 
ATOM     28  C   UNL     1      60.138  31.276  72.166  0.00  0.00    +0.000 A 
ATOM     29  F   UNL     1      60.132  31.277  73.508  0.00  0.00    +0.000 F 
ATOM     30  C   UNL     1      60.665  30.174  71.497  0.00  0.00    +0.000 A 
ATOM     31  C   UNL     1      60.662  30.155  70.106  0.00  0.00    +0.000 A 
ATOM     32  C   UNL     1      60.097  31.212  69.399  0.00  0.00    +0.000 A 
ATOM     33  C   UNL     1      59.576  32.311  70.084  0.00  0.00    +0.000 A 
ATOM     34  F   UNL     1      58.886  33.213  69.372  0.00  0.00    +0.000 F 
ENDBRANCH  25  27
ENDBRANCH  23  25
ENDBRANCH   1  23
TORSDOF 6
ENDMDL
MODEL 2
REMARK VINA RESULT:      -7.5      1.496      2.156
REMARK  Name = Cdk12_Inhibitor.pdbqt.pdb
REMARK  6 active torsions:
REMARK  status: ('A' for Active; 'I' for Inactive)
REMARK    1  A    between atoms: N_1  and  C_23
REMARK    2  A    between atoms: N_9  and  C_11
REMARK    3  A    between atoms: C_14  and  S_17
REMARK    4  A    between atoms: S_17  and  N_20
REMARK    5  A    between atoms: C_23  and  N_25
REMARK    6  A    between atoms: N_25  and  C_27
REMARK                            x       y       z     vdW  Elec       q    Type
REMARK                         _______ _______ _______ _____ _____    ______ ____
ROOT
ATOM      1  N   UNL     1      58.254  35.659  72.591  0.00  0.00    +0.000 N 
ATOM      2  N   UNL     1      58.154  35.504  73.937  0.00  0.00    +0.000 NA
ATOM      3  N   UNL     1      57.024  37.361  73.291  0.00  0.00    +0.000 NA
ATOM      4  N   UNL     1      57.578  37.385  70.994  0.00  0.00    +0.000 N 
ATOM      5  C   UNL     1      57.383  36.523  74.305  0.00  0.00    +0.000 A 
ATOM      6  C   UNL     1      57.603  36.845  72.238  0.00  0.00    +0.000 A 
ATOM      7  H   UNL     1      58.474  37.450  70.509  0.00  0.00    +0.000 HD
ATOM      8  H   UNL     1      57.127  38.300  70.975  0.00  0.00    +0.000 HD
ATOM      9  N   UNL     1      56.930  36.839  75.531  0.00  0.00    +0.000 N 
ATOM     10  H   UNL     1      56.350  37.667  75.580  0.00  0.00    +0.000 HD
ENDROOT
BRANCH   9  11
ATOM     11  C   UNL     1      57.111  36.186  76.763  0.00  0.00    +0.000 A 
ATOM     12  C   UNL     1      58.335  36.321  77.432  0.00  0.00    +0.000 A 
ATOM     13  C   UNL     1      58.568  35.682  78.647  0.00  0.00    +0.000 A 
ATOM     14  C   UNL     1      57.570  34.885  79.191  0.00  0.00    +0.000 A 
ATOM     15  C   UNL     1      56.338  34.744  78.565  0.00  0.00    +0.000 A 
ATOM     16  C   UNL     1      56.122  35.388  77.350  0.00  0.00    +0.000 A 
BRANCH  14  17
ATOM     17  S   UNL     1      57.827  34.130  80.746  0.00  0.00    +0.000 S 
ATOM     18  O   UNL     1      56.987  34.771  81.731  0.00  0.00    +0.000 OA
ATOM     19  O   UNL     1      57.864  32.697  80.583  0.00  0.00    +0.000 OA
BRANCH  17  20
ATOM     20  N   UNL     1      59.397  34.599  81.117  0.00  0.00    +0.000 NA
ATOM     21  H   UNL     1      59.848  34.979  80.285  0.00  0.00    +0.000 HD
ATOM     22  H   UNL     1      59.385  35.241  81.910  0.00  0.00    +0.000 HD
ENDBRANCH  17  20
ENDBRANCH  14  17
ENDBRANCH   9  11
BRANCH   1  23
ATOM     23  C   UNL     1      58.922  34.685  71.793  0.00  0.00    +0.000 C 
ATOM     24  S   UNL     1      59.827  35.029  70.412  0.00  0.00    +0.000 S 
BRANCH  23  25
ATOM     25  N   UNL     1      58.820  33.430  72.405  0.00  0.00    +0.000 N 
ATOM     26  H   UNL     1      57.915  33.213  72.835  0.00  0.00    +0.000 HD
BRANCH  25  27
ATOM     27  C   UNL     1      59.841  32.503  72.746  0.00  0.00    +0.000 A 
ATOM     28  C   UNL     1      60.120  31.491  71.821  0.00  0.00    +0.000 A 
ATOM     29  F   UNL     1      59.414  31.432  70.680  0.00  0.00    +0.000 F 
ATOM     30  C   UNL     1      61.105  30.535  72.051  0.00  0.00    +0.000 A 
ATOM     31  C   UNL     1      61.855  30.596  73.221  0.00  0.00    +0.000 A 
ATOM     32  C   UNL     1      61.643  31.631  74.126  0.00  0.00    +0.000 A 
ATOM     33  C   UNL     1      60.649  32.580  73.883  0.00  0.00    +0.000 A 
ATOM     34  F   UNL     1      60.607  33.651  74.688  0.00  0.00    +0.000 F 
ENDBRANCH  25  27
ENDBRANCH  23  25
ENDBRANCH   1  23
TORSDOF 6
ENDMDL
MODEL 3
REMARK VINA RESULT:      -6.3     15.742     17.115
REMARK  Name = Cdk12_Inhibitor.pdbqt.pdb
REMARK  6 active torsions:
REMARK  status: ('A' for Active; 'I' for Inactive)
REMARK    1  A    between atoms: N_1  and  C_23
REMARK    2  A    between atoms: N_9  and  C_11
REMARK    3  A    between atoms: C_14  and  S_17
REMARK    4  A    between atoms: S_17  and  N_20
REMARK    5  A    between atoms: C_23  and  N_25
REMARK    6  A    between atoms: N_25  and  C_27
REMARK                            x       y       z     vdW  Elec       q    Type
REMARK                         _______ _______ _______ _____ _____    ______ ____
ROOT
ATOM      1  N   UNL     1      51.641  19.232  80.953  0.00  0.00    +0.000 N 
ATOM      2  N   UNL     1      50.899  20.138  81.642  0.00  0.00    +0.000 NA
ATOM      3  N   UNL     1      50.499  18.051  82.435  0.00  0.00    +0.000 NA
ATOM      4  N   UNL     1      51.787  16.790  80.906  0.00  0.00    +0.000 N 
ATOM      5  C   UNL     1      50.261  19.390  82.538  0.00  0.00    +0.000 A 
ATOM      6  C   UNL     1      51.321  17.955  81.423  0.00  0.00    +0.000 A 
ATOM      7  H   UNL     1      51.737  16.692  79.891  0.00  0.00    +0.000 HD
ATOM      8  H   UNL     1      51.355  15.973  81.338  0.00  0.00    +0.000 HD
ATOM      9  N   UNL     1      49.413  19.774  83.507  0.00  0.00    +0.000 N 
ATOM     10  H   UNL     1      49.042  19.028  84.081  0.00  0.00    +0.000 HD
ENDROOT
BRANCH   9  11
ATOM     11  C   UNL     1      48.975  21.058  83.875  0.00  0.00    +0.000 A 
ATOM     12  C   UNL     1      47.798  21.565  83.306  0.00  0.00    +0.000 A 
ATOM     13  C   UNL     1      47.331  22.836  83.627  0.00  0.00    +0.000 A 
ATOM     14  C   UNL     1      48.058  23.618  84.514  0.00  0.00    +0.000 A 
ATOM     15  C   UNL     1      49.218  23.141  85.112  0.00  0.00    +0.000 A 
ATOM     16  C   UNL     1      49.673  21.868  84.779  0.00  0.00    +0.000 A 
BRANCH  14  17
ATOM     17  S   UNL     1      47.448  25.190  84.973  0.00  0.00    +0.000 S 
ATOM     18  O   UNL     1      46.715  25.758  83.866  0.00  0.00    +0.000 OA
ATOM     19  O   UNL     1      46.897  25.121  86.304  0.00  0.00    +0.000 OA
BRANCH  17  20
ATOM     20  N   UNL     1      48.856  26.098  85.097  0.00  0.00    +0.000 NA
ATOM     21  H   UNL     1      48.621  27.090  85.147  0.00  0.00    +0.000 HD
ATOM     22  H   UNL     1      49.410  25.765  85.886  0.00  0.00    +0.000 HD
ENDBRANCH  17  20
ENDBRANCH  14  17
ENDBRANCH   9  11
BRANCH   1  23
ATOM     23  C   UNL     1      52.569  19.658  79.957  0.00  0.00    +0.000 C 
ATOM     24  S   UNL     1      54.238  19.428  80.035  0.00  0.00    +0.000 S 
BRANCH  23  25
ATOM     25  N   UNL     1      51.871  20.169  78.856  0.00  0.00    +0.000 N 
ATOM     26  H   UNL     1      50.897  19.861  78.761  0.00  0.00    +0.000 HD
BRANCH  25  27
ATOM     27  C   UNL     1      52.361  20.848  77.709  0.00  0.00    +0.000 A 
ATOM     28  C   UNL     1      52.723  22.191  77.868  0.00  0.00    +0.000 A 
ATOM     29  F   UNL     1      52.581  22.771  79.070  0.00  0.00    +0.000 F 
ATOM     30  C   UNL     1      53.222  22.948  76.811  0.00  0.00    +0.000 A 
ATOM     31  C   UNL     1      53.389  22.353  75.565  0.00  0.00    +0.000 A 
ATOM     32  C   UNL     1      53.099  21.003  75.397  0.00  0.00    +0.000 A 
ATOM     33  C   UNL     1      52.597  20.258  76.465  0.00  0.00    +0.000 A 
ATOM     34  F   UNL     1      52.506  18.930  76.303  0.00  0.00    +0.000 F 
ENDBRANCH  25  27
ENDBRANCH  23  25
ENDBRANCH   1  23
TORSDOF 6
ENDMDL
MODEL 4
REMARK VINA RESULT:      -6.0     15.954     17.293
REMARK  Name = Cdk12_Inhibitor.pdbqt.pdb
REMARK  6 active torsions:
REMARK  status: ('A' for Active; 'I' for Inactive)
REMARK    1  A    between atoms: N_1  and  C_23
REMARK    2  A    between atoms: N_9  and  C_11
REMARK    3  A    between atoms: C_14  and  S_17
REMARK    4  A    between atoms: S_17  and  N_20
REMARK    5  A    between atoms: C_23  and  N_25
REMARK    6  A    between atoms: N_25  and  C_27
REMARK                            x       y       z     vdW  Elec       q    Type
REMARK                         _______ _______ _______ _____ _____    ______ ____
ROOT
ATOM      1  N   UNL     1      54.123  20.343  80.396  0.00  0.00    +0.000 N 
ATOM      2  N   UNL     1      55.473  20.192  80.358  0.00  0.00    +0.000 NA
ATOM      3  N   UNL     1      54.693  19.621  82.410  0.00  0.00    +0.000 NA
ATOM      4  N   UNL     1      52.413  20.182  82.138  0.00  0.00    +0.000 N 
ATOM      5  C   UNL     1      55.762  19.727  81.570  0.00  0.00    +0.000 A 
ATOM      6  C   UNL     1      53.687  20.046  81.690  0.00  0.00    +0.000 A 
ATOM      7  H   UNL     1      51.949  21.066  81.925  0.00  0.00    +0.000 HD
ATOM      8  H   UNL     1      52.331  20.000  83.138  0.00  0.00    +0.000 HD
ATOM      9  N   UNL     1      56.955  19.367  82.073  0.00  0.00    +0.000 N 
ATOM     10  H   UNL     1      56.942  19.036  83.029  0.00  0.00    +0.000 HD
ENDROOT
BRANCH   9  11
ATOM     11  C   UNL     1      58.227  19.350  81.473  0.00  0.00    +0.000 A 
ATOM     12  C   UNL     1      59.052  20.476  81.594  0.00  0.00    +0.000 A 
ATOM     13  C   UNL     1      60.313  20.513  81.006  0.00  0.00    +0.000 A 
ATOM     14  C   UNL     1      60.748  19.417  80.273  0.00  0.00    +0.000 A 
ATOM     15  C   UNL     1      59.965  18.276  80.148  0.00  0.00    +0.000 A 
ATOM     16  C   UNL     1      58.705  18.256  80.741  0.00  0.00    +0.000 A 
BRANCH  14  17
ATOM     17  S   UNL     1      62.354  19.427  79.584  0.00  0.00    +0.000 S 
ATOM     18  O   UNL     1      63.328  19.532  80.646  0.00  0.00    +0.000 OA
ATOM     19  O   UNL     1      62.442  18.416  78.559  0.00  0.00    +0.000 OA
BRANCH  17  20
ATOM     20  N   UNL     1      62.393  20.905  78.787  0.00  0.00    +0.000 NA
ATOM     21  H   UNL     1      62.036  20.793  77.838  0.00  0.00    +0.000 HD
ATOM     22  H   UNL     1      61.891  21.604  79.336  0.00  0.00    +0.000 HD
ENDBRANCH  17  20
ENDBRANCH  14  17
ENDBRANCH   9  11
BRANCH   1  23
ATOM     23  C   UNL     1      53.400  20.725  79.228  0.00  0.00    +0.000 C 
ATOM     24  S   UNL     1      52.706  22.242  78.979  0.00  0.00    +0.000 S 
BRANCH  23  25
ATOM     25  N   UNL     1      53.471  19.699  78.277  0.00  0.00    +0.000 N 
ATOM     26  H   UNL     1      54.406  19.316  78.102  0.00  0.00    +0.000 HD
BRANCH  25  27
ATOM     27  C   UNL     1      52.500  19.270  77.334  0.00  0.00    +0.000 A 
ATOM     28  C   UNL     1      51.377  18.601  77.833  0.00  0.00    +0.000 A 
ATOM     29  F   UNL     1      51.276  18.385  79.155  0.00  0.00    +0.000 F 
ATOM     30  C   UNL     1      50.361  18.144  76.998  0.00  0.00    +0.000 A 
ATOM     31  C   UNL     1      50.447  18.376  75.629  0.00  0.00    +0.000 A 
ATOM     32  C   UNL     1      51.520  19.097  75.115  0.00  0.00    +0.000 A 
ATOM     33  C   UNL     1      52.532  19.546  75.965  0.00  0.00    +0.000 A 
ATOM     34  F   UNL     1      53.443  20.385  75.452  0.00  0.00    +0.000 F 
ENDBRANCH  25  27
ENDBRANCH  23  25
ENDBRANCH   1  23
TORSDOF 6
ENDMDL
MODEL 5
REMARK VINA RESULT:      -5.9     15.397     17.251
REMARK  Name = Cdk12_Inhibitor.pdbqt.pdb
REMARK  6 active torsions:
REMARK  status: ('A' for Active; 'I' for Inactive)
REMARK    1  A    between atoms: N_1  and  C_23
REMARK    2  A    between atoms: N_9  and  C_11
REMARK    3  A    between atoms: C_14  and  S_17
REMARK    4  A    between atoms: S_17  and  N_20
REMARK    5  A    between atoms: C_23  and  N_25
REMARK    6  A    between atoms: N_25  and  C_27
REMARK                            x       y       z     vdW  Elec       q    Type
REMARK                         _______ _______ _______ _____ _____    ______ ____
ROOT
ATOM      1  N   UNL     1      53.611  19.369  80.255  0.00  0.00    +0.000 N 
ATOM      2  N   UNL     1      54.958  19.199  80.205  0.00  0.00    +0.000 NA
ATOM      3  N   UNL     1      54.376  20.161  82.175  0.00  0.00    +0.000 NA
ATOM      4  N   UNL     1      52.060  20.453  81.806  0.00  0.00    +0.000 N 
ATOM      5  C   UNL     1      55.366  19.654  81.386  0.00  0.00    +0.000 A 
ATOM      6  C   UNL     1      53.296  20.023  81.450  0.00  0.00    +0.000 A 
ATOM      7  H   UNL     1      51.543  20.981  81.101  0.00  0.00    +0.000 HD
ATOM      8  H   UNL     1      52.069  20.986  82.676  0.00  0.00    +0.000 HD
ATOM      9  N   UNL     1      56.611  19.692  81.891  0.00  0.00    +0.000 N 
ATOM     10  H   UNL     1      56.692  20.083  82.821  0.00  0.00    +0.000 HD
ENDROOT
BRANCH   9  11
ATOM     11  C   UNL     1      57.828  19.248  81.344  0.00  0.00    +0.000 A 
ATOM     12  C   UNL     1      58.845  20.181  81.099  0.00  0.00    +0.000 A 
ATOM     13  C   UNL     1      60.062  19.794  80.544  0.00  0.00    +0.000 A 
ATOM     14  C   UNL     1      60.258  18.459  80.215  0.00  0.00    +0.000 A 
ATOM     15  C   UNL     1      59.280  17.504  80.462  0.00  0.00    +0.000 A 
ATOM     16  C   UNL     1      58.068  17.908  81.015  0.00  0.00    +0.000 A 
BRANCH  14  17
ATOM     17  S   UNL     1      61.803  17.950  79.579  0.00  0.00    +0.000 S 
ATOM     18  O   UNL     1      62.796  18.015  80.627  0.00  0.00    +0.000 OA
ATOM     19  O   UNL     1      61.623  16.773  78.764  0.00  0.00    +0.000 OA
BRANCH  17  20
ATOM     20  N   UNL     1      62.183  19.197  78.519  0.00  0.00    +0.000 NA
ATOM     21  H   UNL     1      63.064  19.629  78.798  0.00  0.00    +0.000 HD
ATOM     22  H   UNL     1      62.181  18.845  77.561  0.00  0.00    +0.000 HD
ENDBRANCH  17  20
ENDBRANCH  14  17
ENDBRANCH   9  11
BRANCH   1  23
ATOM     23  C   UNL     1      52.777  18.893  79.201  0.00  0.00    +0.000 C 
ATOM     24  S   UNL     1      52.529  17.267  78.829  0.00  0.00    +0.000 S 
BRANCH  23  25
ATOM     25  N   UNL     1      52.100  19.971  78.617  0.00  0.00    +0.000 N 
ATOM     26  H   UNL     1      51.106  20.056  78.853  0.00  0.00    +0.000 HD
BRANCH  25  27
ATOM     27  C   UNL     1      52.501  20.824  77.554  0.00  0.00    +0.000 A 
ATOM     28  C   UNL     1      52.813  22.149  77.882  0.00  0.00    +0.000 A 
ATOM     29  F   UNL     1      52.707  22.551  79.159  0.00  0.00    +0.000 F 
ATOM     30  C   UNL     1      53.223  23.067  76.920  0.00  0.00    +0.000 A 
ATOM     31  C   UNL     1      53.352  22.658  75.597  0.00  0.00    +0.000 A 
ATOM     32  C   UNL     1      53.113  21.330  75.256  0.00  0.00    +0.000 A 
ATOM     33  C   UNL     1      52.699  20.422  76.231  0.00  0.00    +0.000 A 
ATOM     34  F   UNL     1      52.657  19.126  75.891  0.00  0.00    +0.000 F 
ENDBRANCH  25  27
ENDBRANCH  23  25
ENDBRANCH   1  23
TORSDOF 6
ENDMDL
MODEL 6
REMARK VINA RESULT:      -5.8     15.418     17.104
REMARK  Name = Cdk12_Inhibitor.pdbqt.pdb
REMARK  6 active torsions:
REMARK  status: ('A' for Active; 'I' for Inactive)
REMARK    1  A    between atoms: N_1  and  C_23
REMARK    2  A    between atoms: N_9  and  C_11
REMARK    3  A    between atoms: C_14  and  S_17
REMARK    4  A    between atoms: S_17  and  N_20
REMARK    5  A    between atoms: C_23  and  N_25
REMARK    6  A    between atoms: N_25  and  C_27
REMARK                            x       y       z     vdW  Elec       q    Type
REMARK                         _______ _______ _______ _____ _____    ______ ____
ROOT
ATOM      1  N   UNL     1      53.112  18.382  78.521  0.00  0.00    +0.000 N 
ATOM      2  N   UNL     1      54.318  18.617  79.100  0.00  0.00    +0.000 NA
ATOM      3  N   UNL     1      52.932  17.613  80.589  0.00  0.00    +0.000 NA
ATOM      4  N   UNL     1      50.949  17.548  79.304  0.00  0.00    +0.000 N 
ATOM      5  C   UNL     1      54.174  18.110  80.321  0.00  0.00    +0.000 A 
ATOM      6  C   UNL     1      52.266  17.825  79.484  0.00  0.00    +0.000 A 
ATOM      7  H   UNL     1      50.383  18.287  78.886  0.00  0.00    +0.000 HD
ATOM      8  H   UNL     1      50.497  17.233  80.163  0.00  0.00    +0.000 HD
ATOM      9  N   UNL     1      55.074  18.038  81.317  0.00  0.00    +0.000 N 
ATOM     10  H   UNL     1      54.745  17.606  82.170  0.00  0.00    +0.000 HD
ENDROOT
BRANCH   9  11
ATOM     11  C   UNL     1      56.419  18.446  81.357  0.00  0.00    +0.000 A 
ATOM     12  C   UNL     1      57.409  17.573  80.886  0.00  0.00    +0.000 A 
ATOM     13  C   UNL     1      58.756  17.924  80.918  0.00  0.00    +0.000 A 
ATOM     14  C   UNL     1      59.118  19.157  81.443  0.00  0.00    +0.000 A 
ATOM     15  C   UNL     1      58.163  20.055  81.901  0.00  0.00    +0.000 A 
ATOM     16  C   UNL     1      56.821  19.688  81.863  0.00  0.00    +0.000 A 
BRANCH  14  17
ATOM     17  S   UNL     1      60.799  19.635  81.430  0.00  0.00    +0.000 S 
ATOM     18  O   UNL     1      61.190  20.040  82.761  0.00  0.00    +0.000 OA
ATOM     19  O   UNL     1      61.563  18.683  80.662  0.00  0.00    +0.000 OA
BRANCH  17  20
ATOM     20  N   UNL     1      60.763  21.047  80.521  0.00  0.00    +0.000 NA
ATOM     21  H   UNL     1      60.396  21.812  81.087  0.00  0.00    +0.000 HD
ATOM     22  H   UNL     1      61.690  21.229  80.133  0.00  0.00    +0.000 HD
ENDBRANCH  17  20
ENDBRANCH  14  17
ENDBRANCH   9  11
BRANCH   1  23
ATOM     23  C   UNL     1      52.894  18.684  77.145  0.00  0.00    +0.000 C 
ATOM     24  S   UNL     1      53.261  17.651  75.862  0.00  0.00    +0.000 S 
BRANCH  23  25
ATOM     25  N   UNL     1      52.211  19.902  77.036  0.00  0.00    +0.000 N 
ATOM     26  H   UNL     1      51.198  19.835  76.889  0.00  0.00    +0.000 HD
BRANCH  25  27
ATOM     27  C   UNL     1      52.723  21.213  76.847  0.00  0.00    +0.000 A 
ATOM     28  C   UNL     1      52.987  21.612  75.531  0.00  0.00    +0.000 A 
ATOM     29  F   UNL     1      52.763  20.749  74.527  0.00  0.00    +0.000 F 
ATOM     30  C   UNL     1      53.483  22.878  75.232  0.00  0.00    +0.000 A 
ATOM     31  C   UNL     1      53.703  23.785  76.263  0.00  0.00    +0.000 A 
ATOM     32  C   UNL     1      53.386  23.437  77.572  0.00  0.00    +0.000 A 
ATOM     33  C   UNL     1      52.892  22.163  77.857  0.00  0.00    +0.000 A 
ATOM     34  F   UNL     1      52.435  21.940  79.097  0.00  0.00    +0.000 F 
ENDBRANCH  25  27
ENDBRANCH  23  25
ENDBRANCH   1  23
TORSDOF 6
ENDMDL
MODEL 7
REMARK VINA RESULT:      -5.8      5.564      6.625
REMARK  Name = Cdk12_Inhibitor.pdbqt.pdb
REMARK  6 active torsions:
REMARK  status: ('A' for Active; 'I' for Inactive)
REMARK    1  A    between atoms: N_1  and  C_23
REMARK    2  A    between atoms: N_9  and  C_11
REMARK    3  A    between atoms: C_14  and  S_17
REMARK    4  A    between atoms: S_17  and  N_20
REMARK    5  A    between atoms: C_23  and  N_25
REMARK    6  A    between atoms: N_25  and  C_27
REMARK                            x       y       z     vdW  Elec       q    Type
REMARK                         _______ _______ _______ _____ _____    ______ ____
ROOT
ATOM      1  N   UNL     1      59.950  35.143  74.270  0.00  0.00    +0.000 N 
ATOM      2  N   UNL     1      61.213  35.506  74.617  0.00  0.00    +0.000 NA
ATOM      3  N   UNL     1      59.734  36.318  76.134  0.00  0.00    +0.000 NA
ATOM      4  N   UNL     1      57.710  35.657  75.108  0.00  0.00    +0.000 N 
ATOM      5  C   UNL     1      61.036  36.175  75.753  0.00  0.00    +0.000 A 
ATOM      6  C   UNL     1      59.063  35.715  75.187  0.00  0.00    +0.000 A 
ATOM      7  H   UNL     1      57.298  35.885  74.203  0.00  0.00    +0.000 HD
ATOM      8  H   UNL     1      57.254  36.219  75.828  0.00  0.00    +0.000 HD
ATOM      9  N   UNL     1      61.959  36.733  76.555  0.00  0.00    +0.000 N 
ATOM     10  H   UNL     1      61.595  37.197  77.378  0.00  0.00    +0.000 HD
ENDROOT
BRANCH   9  11
ATOM     11  C   UNL     1      63.360  36.756  76.450  0.00  0.00    +0.000 A 
ATOM     12  C   UNL     1      64.002  37.967  76.159  0.00  0.00    +0.000 A 
ATOM     13  C   UNL     1      65.387  38.038  76.030  0.00  0.00    +0.000 A 
ATOM     14  C   UNL     1      66.137  36.879  76.179  0.00  0.00    +0.000 A 
ATOM     15  C   UNL     1      65.537  35.665  76.487  0.00  0.00    +0.000 A 
ATOM     16  C   UNL     1      64.151  35.611  76.610  0.00  0.00    +0.000 A 
BRANCH  14  17
ATOM     17  S   UNL     1      67.880  36.967  76.083  0.00  0.00    +0.000 S 
ATOM     18  O   UNL     1      68.287  36.866  74.701  0.00  0.00    +0.000 OA
ATOM     19  O   UNL     1      68.355  38.020  76.948  0.00  0.00    +0.000 OA
BRANCH  17  20
ATOM     20  N   UNL     1      68.352  35.524  76.801  0.00  0.00    +0.000 NA
ATOM     21  H   UNL     1      67.947  34.738  76.291  0.00  0.00    +0.000 HD
ATOM     22  H   UNL     1      69.370  35.491  76.868  0.00  0.00    +0.000 HD
ENDBRANCH  17  20
ENDBRANCH  14  17
ENDBRANCH   9  11
BRANCH   1  23
ATOM     23  C   UNL     1      59.718  34.299  73.145  0.00  0.00    +0.000 C 
ATOM     24  S   UNL     1      59.247  34.839  71.618  0.00  0.00    +0.000 S 
BRANCH  23  25
ATOM     25  N   UNL     1      60.069  32.983  73.467  0.00  0.00    +0.000 N 
ATOM     26  H   UNL     1      59.831  32.676  74.416  0.00  0.00    +0.000 HD
BRANCH  25  27
ATOM     27  C   UNL     1      60.924  32.079  72.781  0.00  0.00    +0.000 A 
ATOM     28  C   UNL     1      60.316  31.137  71.943  0.00  0.00    +0.000 A 
ATOM     29  F   UNL     1      58.978  31.119  71.838  0.00  0.00    +0.000 F 
ATOM     30  C   UNL     1      61.060  30.210  71.219  0.00  0.00    +0.000 A 
ATOM     31  C   UNL     1      62.448  30.230  71.307  0.00  0.00    +0.000 A 
ATOM     32  C   UNL     1      63.079  31.198  72.080  0.00  0.00    +0.000 A 
ATOM     33  C   UNL     1      62.320  32.119  72.803  0.00  0.00    +0.000 A 
ATOM     34  F   UNL     1      62.971  33.137  73.384  0.00  0.00    +0.000 F 
ENDBRANCH  25  27
ENDBRANCH  23  25
ENDBRANCH   1  23
TORSDOF 6
ENDMDL
MODEL 8
REMARK VINA RESULT:      -5.8     20.112     22.554
REMARK  Name = Cdk12_Inhibitor.pdbqt.pdb
REMARK  6 active torsions:
REMARK  status: ('A' for Active; 'I' for Inactive)
REMARK    1  A    between atoms: N_1  and  C_23
REMARK    2  A    between atoms: N_9  and  C_11
REMARK    3  A    between atoms: C_14  and  S_17
REMARK    4  A    between atoms: S_17  and  N_20
REMARK    5  A    between atoms: C_23  and  N_25
REMARK    6  A    between atoms: N_25  and  C_27
REMARK                            x       y       z     vdW  Elec       q    Type
REMARK                         _______ _______ _______ _____ _____    ______ ____
ROOT
ATOM      1  N   UNL     1      40.976  22.854  82.696  0.00  0.00    +0.000 N 
ATOM      2  N   UNL     1      42.114  23.375  83.225  0.00  0.00    +0.000 NA
ATOM      3  N   UNL     1      41.326  24.743  81.596  0.00  0.00    +0.000 NA
ATOM      4  N   UNL     1      39.512  23.439  80.825  0.00  0.00    +0.000 N 
ATOM      5  C   UNL     1      42.263  24.518  82.561  0.00  0.00    +0.000 A 
ATOM      6  C   UNL     1      40.557  23.687  81.654  0.00  0.00    +0.000 A 
ATOM      7  H   UNL     1      39.469  22.504  80.416  0.00  0.00    +0.000 HD
ATOM      8  H   UNL     1      39.437  24.129  80.077  0.00  0.00    +0.000 HD
ATOM      9  N   UNL     1      43.211  25.460  82.705  0.00  0.00    +0.000 N 
ATOM     10  H   UNL     1      43.129  26.258  82.088  0.00  0.00    +0.000 HD
ENDROOT
BRANCH   9  11
ATOM     11  C   UNL     1      44.294  25.530  83.599  0.00  0.00    +0.000 A 
ATOM     12  C   UNL     1      45.498  24.899  83.261  0.00  0.00    +0.000 A 
ATOM     13  C   UNL     1      46.595  24.927  84.119  0.00  0.00    +0.000 A 
ATOM     14  C   UNL     1      46.479  25.581  85.338  0.00  0.00    +0.000 A 
ATOM     15  C   UNL     1      45.307  26.235  85.698  0.00  0.00    +0.000 A 
ATOM     16  C   UNL     1      44.220  26.195  84.829  0.00  0.00    +0.000 A 
BRANCH  14  17
ATOM     17  S   UNL     1      47.867  25.679  86.395  0.00  0.00    +0.000 S 
ATOM     18  O   UNL     1      47.707  26.802  87.290  0.00  0.00    +0.000 OA
ATOM     19  O   UNL     1      48.201  24.359  86.872  0.00  0.00    +0.000 OA
BRANCH  17  20
ATOM     20  N   UNL     1      49.094  26.117  85.336  0.00  0.00    +0.000 NA
ATOM     21  H   UNL     1      48.942  25.673  84.430  0.00  0.00    +0.000 HD
ATOM     22  H   UNL     1      49.161  27.134  85.290  0.00  0.00    +0.000 HD
ENDBRANCH  17  20
ENDBRANCH  14  17
ENDBRANCH   9  11
BRANCH   1  23
ATOM     23  C   UNL     1      40.406  21.661  83.228  0.00  0.00    +0.000 C 
ATOM     24  S   UNL     1      40.868  20.097  82.795  0.00  0.00    +0.000 S 
BRANCH  23  25
ATOM     25  N   UNL     1      39.507  21.988  84.251  0.00  0.00    +0.000 N 
ATOM     26  H   UNL     1      39.660  21.516  85.148  0.00  0.00    +0.000 HD
BRANCH  25  27
ATOM     27  C   UNL     1      38.267  22.677  84.181  0.00  0.00    +0.000 A 
ATOM     28  C   UNL     1      37.120  21.907  83.955  0.00  0.00    +0.000 A 
ATOM     29  F   UNL     1      37.242  20.578  83.803  0.00  0.00    +0.000 F 
ATOM     30  C   UNL     1      35.854  22.479  83.876  0.00  0.00    +0.000 A 
ATOM     31  C   UNL     1      35.714  23.852  84.049  0.00  0.00    +0.000 A 
ATOM     32  C   UNL     1      36.829  24.631  84.341  0.00  0.00    +0.000 A 
ATOM     33  C   UNL     1      38.093  24.043  84.413  0.00  0.00    +0.000 A 
ATOM     34  F   UNL     1      39.101  24.799  84.872  0.00  0.00    +0.000 F 
ENDBRANCH  25  27
ENDBRANCH  23  25
ENDBRANCH   1  23
TORSDOF 6
ENDMDL
MODEL 9
REMARK VINA RESULT:      -5.7     20.732     23.135
REMARK  Name = Cdk12_Inhibitor.pdbqt.pdb
REMARK  6 active torsions:
REMARK  status: ('A' for Active; 'I' for Inactive)
REMARK    1  A    between atoms: N_1  and  C_23
REMARK    2  A    between atoms: N_9  and  C_11
REMARK    3  A    between atoms: C_14  and  S_17
REMARK    4  A    between atoms: S_17  and  N_20
REMARK    5  A    between atoms: C_23  and  N_25
REMARK    6  A    between atoms: N_25  and  C_27
REMARK                            x       y       z     vdW  Elec       q    Type
REMARK                         _______ _______ _______ _____ _____    ______ ____
ROOT
ATOM      1  N   UNL     1      40.449  21.749  82.757  0.00  0.00    +0.000 N 
ATOM      2  N   UNL     1      41.404  22.617  83.182  0.00  0.00    +0.000 NA
ATOM      3  N   UNL     1      41.080  22.861  80.950  0.00  0.00    +0.000 NA
ATOM      4  N   UNL     1      39.540  21.108  80.578  0.00  0.00    +0.000 N 
ATOM      5  C   UNL     1      41.725  23.282  82.077  0.00  0.00    +0.000 A 
ATOM      6  C   UNL     1      40.324  21.881  81.371  0.00  0.00    +0.000 A 
ATOM      7  H   UNL     1      39.609  20.099  80.717  0.00  0.00    +0.000 HD
ATOM      8  H   UNL     1      39.668  21.313  79.586  0.00  0.00    +0.000 HD
ATOM      9  N   UNL     1      42.600  24.291  81.923  0.00  0.00    +0.000 N 
ATOM     10  H   UNL     1      42.686  24.653  80.981  0.00  0.00    +0.000 HD
ENDROOT
BRANCH   9  11
ATOM     11  C   UNL     1      43.403  24.949  82.870  0.00  0.00    +0.000 A 
ATOM     12  C   UNL     1      44.708  24.489  83.094  0.00  0.00    +0.000 A 
ATOM     13  C   UNL     1      45.538  25.098  84.032  0.00  0.00    +0.000 A 
ATOM     14  C   UNL     1      45.050  26.170  84.767  0.00  0.00    +0.000 A 
ATOM     15  C   UNL     1      43.769  26.665  84.559  0.00  0.00    +0.000 A 
ATOM     16  C   UNL     1      42.952  26.043  83.619  0.00  0.00    +0.000 A 
BRANCH  14  17
ATOM     17  S   UNL     1      46.103  26.982  85.901  0.00  0.00    +0.000 S 
ATOM     18  O   UNL     1      46.022  28.409  85.688  0.00  0.00    +0.000 OA
ATOM     19  O   UNL     1      45.948  26.392  87.208  0.00  0.00    +0.000 OA
BRANCH  17  20
ATOM     20  N   UNL     1      47.628  26.530  85.362  0.00  0.00    +0.000 NA
ATOM     21  H   UNL     1      48.338  27.104  85.817  0.00  0.00    +0.000 HD
ATOM     22  H   UNL     1      47.757  25.527  85.502  0.00  0.00    +0.000 HD
ENDBRANCH  17  20
ENDBRANCH  14  17
ENDBRANCH   9  11
BRANCH   1  23
ATOM     23  C   UNL     1      39.757  20.915  83.684  0.00  0.00    +0.000 C 
ATOM     24  S   UNL     1      39.913  19.238  83.773  0.00  0.00    +0.000 S 
BRANCH  23  25
ATOM     25  N   UNL     1      39.041  21.713  84.585  0.00  0.00    +0.000 N 
ATOM     26  H   UNL     1      39.284  21.599  85.575  0.00  0.00    +0.000 HD
BRANCH  25  27
ATOM     27  C   UNL     1      37.859  22.473  84.380  0.00  0.00    +0.000 A 
ATOM     28  C   UNL     1      37.968  23.865  84.491  0.00  0.00    +0.000 A 
ATOM     29  F   UNL     1      39.158  24.407  84.796  0.00  0.00    +0.000 F 
ATOM     30  C   UNL     1      36.875  24.705  84.303  0.00  0.00    +0.000 A 
ATOM     31  C   UNL     1      35.641  24.156  83.971  0.00  0.00    +0.000 A 
ATOM     32  C   UNL     1      35.521  22.782  83.789  0.00  0.00    +0.000 A 
ATOM     33  C   UNL     1      36.625  21.951  83.984  0.00  0.00    +0.000 A 
ATOM     34  F   UNL     1      36.505  20.666  83.623  0.00  0.00    +0.000 F 
ENDBRANCH  25  27
ENDBRANCH  23  25
ENDBRANCH   1  23
TORSDOF 6
ENDMDL
