MODEL 1
REMARK VINA RESULT:      -7.7      0.000      0.000
REMARK  Name = CHEMBL35349.pdbqt.pdb
REMARK  2 active torsions:
REMARK  status: ('A' for Active; 'I' for Inactive)
REMARK    1  A    between atoms: C_2  and  C_11
REMARK    2  A    between atoms: C_5  and  O_21
REMARK                            x       y       z     vdW  Elec       q    Type
REMARK                         _______ _______ _______ _____ _____    ______ ____
ROOT
ATOM      1  N   UNL     1      55.564  38.241  74.670  0.00  0.00    +0.000 N 
ATOM      2  C   UNL     1      56.691  37.167  76.271  0.00  0.00    +0.000 A 
ATOM      3  C   UNL     1      57.614  37.916  75.461  0.00  0.00    +0.000 A 
ATOM      4  C   UNL     1      56.880  38.572  74.475  0.00  0.00    +0.000 A 
ATOM      5  C   UNL     1      55.430  37.399  75.742  0.00  0.00    +0.000 A 
ATOM      6  C   UNL     1      59.011  38.095  75.478  0.00  0.00    +0.000 A 
ATOM      7  C   UNL     1      57.461  39.395  73.505  0.00  0.00    +0.000 A 
ATOM      8  C   UNL     1      59.614  38.914  74.521  0.00  0.00    +0.000 A 
ATOM      9  C   UNL     1      58.847  39.551  73.552  0.00  0.00    +0.000 A 
ATOM     10  H   UNL     1      54.790  38.565  74.109  0.00  0.00    +0.000 HD
ENDROOT
BRANCH   2  11
ATOM     11  C   UNL     1      57.014  36.338  77.410  0.00  0.00    +0.000 C 
ATOM     12  N   UNL     1      58.004  36.611  78.220  0.00  0.00    +0.000 NA
ATOM     13  C   UNL     1      58.012  35.596  79.197  0.00  0.00    +0.000 A 
ATOM     14  C   UNL     1      57.014  34.640  79.028  0.00  0.00    +0.000 A 
ATOM     15  C   UNL     1      58.891  35.480  80.258  0.00  0.00    +0.000 A 
ATOM     16  C   UNL     1      56.293  35.064  77.844  0.00  0.00    +0.000 C 
ATOM     17  C   UNL     1      56.828  33.557  79.859  0.00  0.00    +0.000 A 
ATOM     18  O   UNL     1      55.342  34.553  77.301  0.00  0.00    +0.000 OA
ATOM     19  C   UNL     1      57.717  33.445  80.927  0.00  0.00    +0.000 A 
ATOM     20  C   UNL     1      58.736  34.393  81.125  0.00  0.00    +0.000 A 
ENDBRANCH   2  11
BRANCH   5  21
ATOM     21  O   UNL     1      54.204  36.992  76.052  0.00  0.00    +0.000 OA
ATOM     22  H   UNL     1      54.219  36.484  76.895  0.00  0.00    +0.000 HD
ENDBRANCH   5  21
TORSDOF 2
ENDMDL
MODEL 2
REMARK VINA RESULT:      -7.0      1.675      2.107
REMARK  Name = CHEMBL35349.pdbqt.pdb
REMARK  2 active torsions:
REMARK  status: ('A' for Active; 'I' for Inactive)
REMARK    1  A    between atoms: C_2  and  C_11
REMARK    2  A    between atoms: C_5  and  O_21
REMARK                            x       y       z     vdW  Elec       q    Type
REMARK                         _______ _______ _______ _____ _____    ______ ____
ROOT
ATOM      1  N   UNL     1      55.343  38.665  75.133  0.00  0.00    +0.000 N 
ATOM      2  C   UNL     1      56.471  37.234  76.425  0.00  0.00    +0.000 A 
ATOM      3  C   UNL     1      57.000  37.186  75.088  0.00  0.00    +0.000 A 
ATOM      4  C   UNL     1      56.275  38.088  74.311  0.00  0.00    +0.000 A 
ATOM      5  C   UNL     1      55.443  38.166  76.405  0.00  0.00    +0.000 A 
ATOM      6  C   UNL     1      58.032  36.454  74.468  0.00  0.00    +0.000 A 
ATOM      7  C   UNL     1      56.523  38.300  72.951  0.00  0.00    +0.000 A 
ATOM      8  C   UNL     1      58.298  36.650  73.111  0.00  0.00    +0.000 A 
ATOM      9  C   UNL     1      57.553  37.560  72.369  0.00  0.00    +0.000 A 
ATOM     10  H   UNL     1      54.668  39.362  74.854  0.00  0.00    +0.000 HD
ENDROOT
BRANCH   2  11
ATOM     11  C   UNL     1      56.920  36.464  77.563  0.00  0.00    +0.000 C 
ATOM     12  N   UNL     1      56.510  35.243  77.790  0.00  0.00    +0.000 NA
ATOM     13  C   UNL     1      57.153  34.820  78.971  0.00  0.00    +0.000 A 
ATOM     14  C   UNL     1      57.997  35.776  79.529  0.00  0.00    +0.000 A 
ATOM     15  C   UNL     1      57.017  33.590  79.587  0.00  0.00    +0.000 A 
ATOM     16  C   UNL     1      57.899  36.918  78.642  0.00  0.00    +0.000 C 
ATOM     17  C   UNL     1      58.728  35.587  80.681  0.00  0.00    +0.000 A 
ATOM     18  O   UNL     1      58.449  37.992  78.710  0.00  0.00    +0.000 OA
ATOM     19  C   UNL     1      58.587  34.346  81.299  0.00  0.00    +0.000 A 
ATOM     20  C   UNL     1      57.743  33.360  80.761  0.00  0.00    +0.000 A 
ENDBRANCH   2  11
BRANCH   5  21
ATOM     21  O   UNL     1      54.599  38.636  77.316  0.00  0.00    +0.000 OA
ATOM     22  H   UNL     1      54.181  39.467  76.995  0.00  0.00    +0.000 HD
ENDBRANCH   5  21
TORSDOF 2
ENDMDL
MODEL 3
REMARK VINA RESULT:      -7.0      1.973      2.782
REMARK  Name = CHEMBL35349.pdbqt.pdb
REMARK  2 active torsions:
REMARK  status: ('A' for Active; 'I' for Inactive)
REMARK    1  A    between atoms: C_2  and  C_11
REMARK    2  A    between atoms: C_5  and  O_21
REMARK                            x       y       z     vdW  Elec       q    Type
REMARK                         _______ _______ _______ _____ _____    ______ ____
ROOT
ATOM      1  N   UNL     1      55.829  41.253  74.385  0.00  0.00    +0.000 N 
ATOM      2  C   UNL     1      56.111  39.307  75.442  0.00  0.00    +0.000 A 
ATOM      3  C   UNL     1      56.374  39.127  74.040  0.00  0.00    +0.000 A 
ATOM      4  C   UNL     1      56.189  40.357  73.412  0.00  0.00    +0.000 A 
ATOM      5  C   UNL     1      55.776  40.643  75.610  0.00  0.00    +0.000 A 
ATOM      6  C   UNL     1      56.753  38.027  73.246  0.00  0.00    +0.000 A 
ATOM      7  C   UNL     1      56.361  40.550  72.037  0.00  0.00    +0.000 A 
ATOM      8  C   UNL     1      56.932  38.196  71.871  0.00  0.00    +0.000 A 
ATOM      9  C   UNL     1      56.738  39.439  71.281  0.00  0.00    +0.000 A 
ATOM     10  H   UNL     1      55.627  42.231  74.235  0.00  0.00    +0.000 HD
ENDROOT
BRANCH   2  11
ATOM     11  C   UNL     1      56.181  38.296  76.473  0.00  0.00    +0.000 C 
ATOM     12  N   UNL     1      57.129  38.278  77.375  0.00  0.00    +0.000 NA
ATOM     13  C   UNL     1      56.873  37.164  78.200  0.00  0.00    +0.000 A 
ATOM     14  C   UNL     1      55.742  36.438  77.836  0.00  0.00    +0.000 A 
ATOM     15  C   UNL     1      57.621  36.756  79.288  0.00  0.00    +0.000 A 
ATOM     16  C   UNL     1      55.214  37.134  76.679  0.00  0.00    +0.000 C 
ATOM     17  C   UNL     1      55.297  35.313  78.494  0.00  0.00    +0.000 A 
ATOM     18  O   UNL     1      54.240  36.880  76.010  0.00  0.00    +0.000 OA
ATOM     19  C   UNL     1      56.055  34.905  79.591  0.00  0.00    +0.000 A 
ATOM     20  C   UNL     1      57.202  35.616  79.984  0.00  0.00    +0.000 A 
ENDBRANCH   2  11
BRANCH   5  21
ATOM     21  O   UNL     1      55.439  41.391  76.653  0.00  0.00    +0.000 OA
ATOM     22  H   UNL     1      56.244  41.662  77.150  0.00  0.00    +0.000 HD
ENDBRANCH   5  21
TORSDOF 2
ENDMDL
MODEL 4
REMARK VINA RESULT:      -6.9      1.625      2.093
REMARK  Name = CHEMBL35349.pdbqt.pdb
REMARK  2 active torsions:
REMARK  status: ('A' for Active; 'I' for Inactive)
REMARK    1  A    between atoms: C_2  and  C_11
REMARK    2  A    between atoms: C_5  and  O_21
REMARK                            x       y       z     vdW  Elec       q    Type
REMARK                         _______ _______ _______ _____ _____    ______ ____
ROOT
ATOM      1  N   UNL     1      57.492  37.033  73.352  0.00  0.00    +0.000 N 
ATOM      2  C   UNL     1      57.370  36.590  75.538  0.00  0.00    +0.000 A 
ATOM      3  C   UNL     1      56.791  37.882  75.282  0.00  0.00    +0.000 A 
ATOM      4  C   UNL     1      56.884  38.126  73.913  0.00  0.00    +0.000 A 
ATOM      5  C   UNL     1      57.791  36.100  74.310  0.00  0.00    +0.000 A 
ATOM      6  C   UNL     1      56.197  38.868  76.094  0.00  0.00    +0.000 A 
ATOM      7  C   UNL     1      56.417  39.299  73.310  0.00  0.00    +0.000 A 
ATOM      8  C   UNL     1      55.723  40.046  75.513  0.00  0.00    +0.000 A 
ATOM      9  C   UNL     1      55.833  40.253  74.143  0.00  0.00    +0.000 A 
ATOM     10  H   UNL     1      57.697  36.917  72.371  0.00  0.00    +0.000 HD
ENDROOT
BRANCH   2  11
ATOM     11  C   UNL     1      57.488  35.932  76.819  0.00  0.00    +0.000 C 
ATOM     12  N   UNL     1      58.628  35.829  77.453  0.00  0.00    +0.000 NA
ATOM     13  C   UNL     1      58.358  35.136  78.650  0.00  0.00    +0.000 A 
ATOM     14  C   UNL     1      57.021  34.778  78.806  0.00  0.00    +0.000 A 
ATOM     15  C   UNL     1      59.271  34.801  79.632  0.00  0.00    +0.000 A 
ATOM     16  C   UNL     1      56.364  35.277  77.616  0.00  0.00    +0.000 C 
ATOM     17  C   UNL     1      56.524  34.096  79.895  0.00  0.00    +0.000 A 
ATOM     18  O   UNL     1      55.200  35.207  77.296  0.00  0.00    +0.000 OA
ATOM     19  C   UNL     1      57.448  33.760  80.883  0.00  0.00    +0.000 A 
ATOM     20  C   UNL     1      58.804  34.108  80.754  0.00  0.00    +0.000 A 
ENDBRANCH   2  11
BRANCH   5  21
ATOM     21  O   UNL     1      58.386  34.982  73.911  0.00  0.00    +0.000 OA
ATOM     22  H   UNL     1      59.191  34.814  74.452  0.00  0.00    +0.000 HD
ENDBRANCH   5  21
TORSDOF 2
ENDMDL
MODEL 5
REMARK VINA RESULT:      -6.8      4.976      6.095
REMARK  Name = CHEMBL35349.pdbqt.pdb
REMARK  2 active torsions:
REMARK  status: ('A' for Active; 'I' for Inactive)
REMARK    1  A    between atoms: C_2  and  C_11
REMARK    2  A    between atoms: C_5  and  O_21
REMARK                            x       y       z     vdW  Elec       q    Type
REMARK                         _______ _______ _______ _____ _____    ______ ____
ROOT
ATOM      1  N   UNL     1      60.085  38.212  75.587  0.00  0.00    +0.000 N 
ATOM      2  C   UNL     1      59.765  36.089  74.975  0.00  0.00    +0.000 A 
ATOM      3  C   UNL     1      58.729  36.480  75.893  0.00  0.00    +0.000 A 
ATOM      4  C   UNL     1      58.959  37.806  76.254  0.00  0.00    +0.000 A 
ATOM      5  C   UNL     1      60.584  37.197  74.815  0.00  0.00    +0.000 A 
ATOM      6  C   UNL     1      57.614  35.823  76.451  0.00  0.00    +0.000 A 
ATOM      7  C   UNL     1      58.139  38.513  77.141  0.00  0.00    +0.000 A 
ATOM      8  C   UNL     1      56.781  36.509  77.338  0.00  0.00    +0.000 A 
ATOM      9  C   UNL     1      57.044  37.832  77.674  0.00  0.00    +0.000 A 
ATOM     10  H   UNL     1      60.502  39.129  75.647  0.00  0.00    +0.000 HD
ENDROOT
BRANCH   2  11
ATOM     11  C   UNL     1      59.921  34.798  74.343  0.00  0.00    +0.000 C 
ATOM     12  N   UNL     1      59.282  34.470  73.250  0.00  0.00    +0.000 NA
ATOM     13  C   UNL     1      59.680  33.155  72.935  0.00  0.00    +0.000 A 
ATOM     14  C   UNL     1      60.593  32.610  73.834  0.00  0.00    +0.000 A 
ATOM     15  C   UNL     1      59.256  32.401  71.857  0.00  0.00    +0.000 A 
ATOM     16  C   UNL     1      60.811  33.652  74.817  0.00  0.00    +0.000 C 
ATOM     17  C   UNL     1      61.122  31.342  73.730  0.00  0.00    +0.000 A 
ATOM     18  O   UNL     1      61.522  33.649  75.794  0.00  0.00    +0.000 OA
ATOM     19  C   UNL     1      60.690  30.586  72.642  0.00  0.00    +0.000 A 
ATOM     20  C   UNL     1      59.769  31.107  71.716  0.00  0.00    +0.000 A 
ENDBRANCH   2  11
BRANCH   5  21
ATOM     21  O   UNL     1      61.680  37.446  74.108  0.00  0.00    +0.000 OA
ATOM     22  H   UNL     1      61.840  38.416  74.061  0.00  0.00    +0.000 HD
ENDBRANCH   5  21
TORSDOF 2
ENDMDL
MODEL 6
REMARK VINA RESULT:      -6.6     15.579     17.907
REMARK  Name = CHEMBL35349.pdbqt.pdb
REMARK  2 active torsions:
REMARK  status: ('A' for Active; 'I' for Inactive)
REMARK    1  A    between atoms: C_2  and  C_11
REMARK    2  A    between atoms: C_5  and  O_21
REMARK                            x       y       z     vdW  Elec       q    Type
REMARK                         _______ _______ _______ _____ _____    ______ ____
ROOT
ATOM      1  N   UNL     1      53.389  22.082  78.529  0.00  0.00    +0.000 N 
ATOM      2  C   UNL     1      52.547  20.627  77.059  0.00  0.00    +0.000 A 
ATOM      3  C   UNL     1      52.858  21.859  76.384  0.00  0.00    +0.000 A 
ATOM      4  C   UNL     1      53.379  22.741  77.328  0.00  0.00    +0.000 A 
ATOM      5  C   UNL     1      52.893  20.813  78.389  0.00  0.00    +0.000 A 
ATOM      6  C   UNL     1      52.741  22.303  75.052  0.00  0.00    +0.000 A 
ATOM      7  C   UNL     1      53.791  24.042  77.017  0.00  0.00    +0.000 A 
ATOM      8  C   UNL     1      53.147  23.597  74.718  0.00  0.00    +0.000 A 
ATOM      9  C   UNL     1      53.662  24.449  75.689  0.00  0.00    +0.000 A 
ATOM     10  H   UNL     1      53.713  22.465  79.405  0.00  0.00    +0.000 HD
ENDROOT
BRANCH   2  11
ATOM     11  C   UNL     1      51.985  19.434  76.468  0.00  0.00    +0.000 C 
ATOM     12  N   UNL     1      52.563  18.800  75.480  0.00  0.00    +0.000 NA
ATOM     13  C   UNL     1      51.737  17.700  75.174  0.00  0.00    +0.000 A 
ATOM     14  C   UNL     1      50.599  17.608  75.971  0.00  0.00    +0.000 A 
ATOM     15  C   UNL     1      51.958  16.752  74.192  0.00  0.00    +0.000 A 
ATOM     16  C   UNL     1      50.687  18.739  76.872  0.00  0.00    +0.000 C 
ATOM     17  C   UNL     1      49.649  16.618  75.854  0.00  0.00    +0.000 A 
ATOM     18  O   UNL     1      49.929  19.083  77.749  0.00  0.00    +0.000 OA
ATOM     19  C   UNL     1      49.875  15.665  74.863  0.00  0.00    +0.000 A 
ATOM     20  C   UNL     1      51.015  15.730  74.041  0.00  0.00    +0.000 A 
ENDBRANCH   2  11
BRANCH   5  21
ATOM     21  O   UNL     1      52.842  20.051  79.476  0.00  0.00    +0.000 OA
ATOM     22  H   UNL     1      53.729  20.006  79.901  0.00  0.00    +0.000 HD
ENDBRANCH   5  21
TORSDOF 2
ENDMDL
MODEL 7
REMARK VINA RESULT:      -6.3      2.420      3.502
REMARK  Name = CHEMBL35349.pdbqt.pdb
REMARK  2 active torsions:
REMARK  status: ('A' for Active; 'I' for Inactive)
REMARK    1  A    between atoms: C_2  and  C_11
REMARK    2  A    between atoms: C_5  and  O_21
REMARK                            x       y       z     vdW  Elec       q    Type
REMARK                         _______ _______ _______ _____ _____    ______ ____
ROOT
ATOM      1  N   UNL     1      57.897  38.007  71.978  0.00  0.00    +0.000 N 
ATOM      2  C   UNL     1      57.175  37.756  74.076  0.00  0.00    +0.000 A 
ATOM      3  C   UNL     1      56.731  39.027  73.570  0.00  0.00    +0.000 A 
ATOM      4  C   UNL     1      57.197  39.151  72.263  0.00  0.00    +0.000 A 
ATOM      5  C   UNL     1      57.896  37.158  73.053  0.00  0.00    +0.000 A 
ATOM      6  C   UNL     1      55.973  40.086  74.108  0.00  0.00    +0.000 A 
ATOM      7  C   UNL     1      56.950  40.272  71.463  0.00  0.00    +0.000 A 
ATOM      8  C   UNL     1      55.712  41.214  73.328  0.00  0.00    +0.000 A 
ATOM      9  C   UNL     1      56.195  41.301  72.027  0.00  0.00    +0.000 A 
ATOM     10  H   UNL     1      58.355  37.804  71.102  0.00  0.00    +0.000 HD
ENDROOT
BRANCH   2  11
ATOM     11  C   UNL     1      56.921  37.210  75.390  0.00  0.00    +0.000 C 
ATOM     12  N   UNL     1      56.219  36.122  75.575  0.00  0.00    +0.000 NA
ATOM     13  C   UNL     1      56.185  35.900  76.966  0.00  0.00    +0.000 A 
ATOM     14  C   UNL     1      56.874  36.856  77.708  0.00  0.00    +0.000 A 
ATOM     15  C   UNL     1      55.552  34.859  77.620  0.00  0.00    +0.000 A 
ATOM     16  C   UNL     1      57.402  37.777  76.723  0.00  0.00    +0.000 C 
ATOM     17  C   UNL     1      56.977  36.844  79.082  0.00  0.00    +0.000 A 
ATOM     18  O   UNL     1      58.070  38.773  76.883  0.00  0.00    +0.000 OA
ATOM     19  C   UNL     1      56.337  35.793  79.736  0.00  0.00    +0.000 A 
ATOM     20  C   UNL     1      55.633  34.813  79.015  0.00  0.00    +0.000 A 
ENDBRANCH   2  11
BRANCH   5  21
ATOM     21  O   UNL     1      58.538  36.003  72.922  0.00  0.00    +0.000 OA
ATOM     22  H   UNL     1      59.434  36.154  72.546  0.00  0.00    +0.000 HD
ENDBRANCH   5  21
TORSDOF 2
ENDMDL
MODEL 8
REMARK VINA RESULT:      -6.3      5.573      6.133
REMARK  Name = CHEMBL35349.pdbqt.pdb
REMARK  2 active torsions:
REMARK  status: ('A' for Active; 'I' for Inactive)
REMARK    1  A    between atoms: C_2  and  C_11
REMARK    2  A    between atoms: C_5  and  O_21
REMARK                            x       y       z     vdW  Elec       q    Type
REMARK                         _______ _______ _______ _____ _____    ______ ____
ROOT
ATOM      1  N   UNL     1      59.288  34.196  70.004  0.00  0.00    +0.000 N 
ATOM      2  C   UNL     1      59.358  34.318  72.232  0.00  0.00    +0.000 A 
ATOM      3  C   UNL     1      59.641  32.969  71.821  0.00  0.00    +0.000 A 
ATOM      4  C   UNL     1      59.588  32.928  70.429  0.00  0.00    +0.000 A 
ATOM      5  C   UNL     1      59.146  35.044  71.069  0.00  0.00    +0.000 A 
ATOM      6  C   UNL     1      59.935  31.775  72.509  0.00  0.00    +0.000 A 
ATOM      7  C   UNL     1      59.814  31.764  69.686  0.00  0.00    +0.000 A 
ATOM      8  C   UNL     1      60.165  30.601  71.789  0.00  0.00    +0.000 A 
ATOM      9  C   UNL     1      60.104  30.601  70.400  0.00  0.00    +0.000 A 
ATOM     10  H   UNL     1      59.183  34.481  69.041  0.00  0.00    +0.000 HD
ENDROOT
BRANCH   2  11
ATOM     11  C   UNL     1      59.307  34.817  73.587  0.00  0.00    +0.000 C 
ATOM     12  N   UNL     1      60.262  34.597  74.454  0.00  0.00    +0.000 NA
ATOM     13  C   UNL     1      59.868  35.228  75.651  0.00  0.00    +0.000 A 
ATOM     14  C   UNL     1      58.637  35.874  75.571  0.00  0.00    +0.000 A 
ATOM     15  C   UNL     1      60.574  35.256  76.839  0.00  0.00    +0.000 A 
ATOM     16  C   UNL     1      58.188  35.646  74.212  0.00  0.00    +0.000 C 
ATOM     17  C   UNL     1      58.051  36.557  76.614  0.00  0.00    +0.000 A 
ATOM     18  O   UNL     1      57.172  36.012  73.668  0.00  0.00    +0.000 OA
ATOM     19  C   UNL     1      58.766  36.582  77.809  0.00  0.00    +0.000 A 
ATOM     20  C   UNL     1      60.012  35.940  77.922  0.00  0.00    +0.000 A 
ENDBRANCH   2  11
BRANCH   5  21
ATOM     21  O   UNL     1      58.853  36.313  70.809  0.00  0.00    +0.000 OA
ATOM     22  H   UNL     1      59.314  36.905  71.445  0.00  0.00    +0.000 HD
ENDBRANCH   5  21
TORSDOF 2
ENDMDL
MODEL 9
REMARK VINA RESULT:      -6.0     19.266     21.916
REMARK  Name = CHEMBL35349.pdbqt.pdb
REMARK  2 active torsions:
REMARK  status: ('A' for Active; 'I' for Inactive)
REMARK    1  A    between atoms: C_2  and  C_11
REMARK    2  A    between atoms: C_5  and  O_21
REMARK                            x       y       z     vdW  Elec       q    Type
REMARK                         _______ _______ _______ _____ _____    ______ ____
ROOT
ATOM      1  N   UNL     1      39.594  22.328  81.976  0.00  0.00    +0.000 N 
ATOM      2  C   UNL     1      40.496  23.963  83.201  0.00  0.00    +0.000 A 
ATOM      3  C   UNL     1      39.099  23.844  83.522  0.00  0.00    +0.000 A 
ATOM      4  C   UNL     1      38.569  22.819  82.742  0.00  0.00    +0.000 A 
ATOM      5  C   UNL     1      40.758  23.001  82.236  0.00  0.00    +0.000 A 
ATOM      6  C   UNL     1      38.236  24.519  84.408  0.00  0.00    +0.000 A 
ATOM      7  C   UNL     1      37.226  22.429  82.796  0.00  0.00    +0.000 A 
ATOM      8  C   UNL     1      36.892  24.147  84.480  0.00  0.00    +0.000 A 
ATOM      9  C   UNL     1      36.400  23.118  83.685  0.00  0.00    +0.000 A 
ATOM     10  H   UNL     1      39.517  21.576  81.307  0.00  0.00    +0.000 HD
ENDROOT
BRANCH   2  11
ATOM     11  C   UNL     1      41.440  24.898  83.771  0.00  0.00    +0.000 C 
ATOM     12  N   UNL     1      42.127  25.735  83.039  0.00  0.00    +0.000 NA
ATOM     13  C   UNL     1      42.931  26.477  83.928  0.00  0.00    +0.000 A 
ATOM     14  C   UNL     1      42.770  26.122  85.265  0.00  0.00    +0.000 A 
ATOM     15  C   UNL     1      43.822  27.479  83.594  0.00  0.00    +0.000 A 
ATOM     16  C   UNL     1      41.781  25.063  85.249  0.00  0.00    +0.000 C 
ATOM     17  C   UNL     1      43.449  26.709  86.310  0.00  0.00    +0.000 A 
ATOM     18  O   UNL     1      41.314  24.435  86.171  0.00  0.00    +0.000 OA
ATOM     19  C   UNL     1      44.346  27.718  85.968  0.00  0.00    +0.000 A 
ATOM     20  C   UNL     1      44.532  28.100  84.628  0.00  0.00    +0.000 A 
ENDBRANCH   2  11
BRANCH   5  21
ATOM     21  O   UNL     1      41.843  22.633  81.564  0.00  0.00    +0.000 OA
ATOM     22  H   UNL     1      42.614  22.569  82.173  0.00  0.00    +0.000 HD
ENDBRANCH   5  21
TORSDOF 2
ENDMDL
