MODEL 1
REMARK VINA RESULT:      -7.6      0.000      0.000
REMARK  Name = Chlortetracycline.pdbqt.pdb
REMARK  7 active torsions:
REMARK  status: ('A' for Active; 'I' for Inactive)
REMARK    1  A    between atoms: C_7  and  O_30
REMARK    2  A    between atoms: C_8  and  N_32
REMARK    3  A    between atoms: C_9  and  O_37
REMARK    4  A    between atoms: C_12  and  O_28
REMARK    5  A    between atoms: C_15  and  O_35
REMARK    6  A    between atoms: C_16  and  C_23
REMARK    7  A    between atoms: C_20  and  O_39
REMARK                            x       y       z     vdW  Elec       q    Type
REMARK                         _______ _______ _______ _____ _____    ______ ____
ROOT
ATOM      1 CL   UNL     1      57.416  35.534  80.708  0.00  0.00    +0.000 Cl
ATOM      2  O   UNL     1      59.530  37.397  73.403  0.00  0.00    +0.000 OA
ATOM      3  O   UNL     1      60.565  31.373  74.190  0.00  0.00    +0.000 OA
ATOM      4  C   UNL     1      61.443  34.607  74.980  0.00  0.00    +0.000 C 
ATOM      5  C   UNL     1      59.550  35.550  76.559  0.00  0.00    +0.000 C 
ATOM      6  C   UNL     1      60.690  34.828  76.152  0.00  0.00    +0.000 C 
ATOM      7  C   UNL     1      60.953  35.423  73.807  0.00  0.00    +0.000 C 
ATOM      8  C   UNL     1      61.911  33.267  74.675  0.00  0.00    +0.000 C 
ATOM      9  C   UNL     1      59.032  35.725  77.959  0.00  0.00    +0.000 C 
ATOM     10  C   UNL     1      59.003  36.338  75.475  0.00  0.00    +0.000 C 
ATOM     11  C   UNL     1      59.798  36.469  74.179  0.00  0.00    +0.000 C 
ATOM     12  C   UNL     1      60.430  34.562  72.652  0.00  0.00    +0.000 C 
ATOM     13  C   UNL     1      57.596  36.224  78.020  0.00  0.00    +0.000 A 
ATOM     14  C   UNL     1      60.957  32.478  73.846  0.00  0.00    +0.000 C 
ATOM     15  C   UNL     1      57.826  36.974  75.619  0.00  0.00    +0.000 C 
ATOM     16  C   UNL     1      60.402  33.209  72.662  0.00  0.00    +0.000 C 
ATOM     17  C   UNL     1      57.004  36.806  76.857  0.00  0.00    +0.000 A 
ATOM     18  C   UNL     1      59.992  36.666  78.716  0.00  0.00    +0.000 C 
ATOM     19  C   UNL     1      56.822  36.139  79.201  0.00  0.00    +0.000 A 
ATOM     20  C   UNL     1      55.649  37.201  76.923  0.00  0.00    +0.000 A 
ATOM     21  C   UNL     1      55.500  36.572  79.234  0.00  0.00    +0.000 A 
ATOM     22  C   UNL     1      54.909  37.087  78.097  0.00  0.00    +0.000 A 
ENDROOT
BRANCH  16  23
ATOM     23  C   UNL     1      59.935  32.402  71.500  0.00  0.00    +0.000 C 
ATOM     24  O   UNL     1      60.216  32.700  70.347  0.00  0.00    +0.000 OA
ATOM     25  N   UNL     1      59.159  31.318  71.772  0.00  0.00    +0.000 N 
ATOM     26  H   UNL     1      58.698  31.234  72.672  0.00  0.00    +0.000 HD
ATOM     27  H   UNL     1      58.745  30.843  70.981  0.00  0.00    +0.000 HD
ENDBRANCH  16  23
BRANCH   8  28
ATOM     28  N   UNL     1      63.314  32.953  74.619  0.00  0.00    +0.000 NA
ATOM     29  C   UNL     1      63.836  32.807  73.268  0.00  0.00    +0.000 C 
ATOM     30  C   UNL     1      64.154  33.899  75.324  0.00  0.00    +0.000 C 
ENDBRANCH   8  28
BRANCH  12  31
ATOM     31  O   UNL     1      60.038  35.271  71.514  0.00  0.00    +0.000 OA
ATOM     32  H   UNL     1      59.408  35.975  71.789  0.00  0.00    +0.000 HD
ENDBRANCH  12  31
BRANCH   7  33
ATOM     33  O   UNL     1      62.069  36.125  73.258  0.00  0.00    +0.000 OA
ATOM     34  H   UNL     1      61.730  36.780  72.620  0.00  0.00    +0.000 HD
ENDBRANCH   7  33
BRANCH  15  35
ATOM     35  O   UNL     1      57.312  37.827  74.665  0.00  0.00    +0.000 OA
ATOM     36  H   UNL     1      57.428  37.446  73.769  0.00  0.00    +0.000 HD
ENDBRANCH  15  35
BRANCH   9  37
ATOM     37  O   UNL     1      59.143  34.458  78.577  0.00  0.00    +0.000 OA
ATOM     38  H   UNL     1      58.770  33.878  77.888  0.00  0.00    +0.000 HD
ENDBRANCH   9  37
BRANCH  20  39
ATOM     39  O   UNL     1      54.987  37.671  75.822  0.00  0.00    +0.000 OA
ATOM     40  H   UNL     1      54.822  36.938  75.204  0.00  0.00    +0.000 HD
ENDBRANCH  20  39
TORSDOF 7
ENDMDL
MODEL 2
REMARK VINA RESULT:      -6.7     45.424     47.405
REMARK  Name = Chlortetracycline.pdbqt.pdb
REMARK  7 active torsions:
REMARK  status: ('A' for Active; 'I' for Inactive)
REMARK    1  A    between atoms: C_7  and  O_30
REMARK    2  A    between atoms: C_8  and  N_32
REMARK    3  A    between atoms: C_9  and  O_37
REMARK    4  A    between atoms: C_12  and  O_28
REMARK    5  A    between atoms: C_15  and  O_35
REMARK    6  A    between atoms: C_16  and  C_23
REMARK    7  A    between atoms: C_20  and  O_39
REMARK                            x       y       z     vdW  Elec       q    Type
REMARK                         _______ _______ _______ _____ _____    ______ ____
ROOT
ATOM      1 CL   UNL     1      19.957   6.590  83.401  0.00  0.00    +0.000 Cl
ATOM      2  O   UNL     1      22.027  13.819  85.582  0.00  0.00    +0.000 OA
ATOM      3  O   UNL     1      15.891  13.700  85.025  0.00  0.00    +0.000 OA
ATOM      4  C   UNL     1      18.961  13.583  83.470  0.00  0.00    +0.000 C 
ATOM      5  C   UNL     1      20.000  11.217  84.006  0.00  0.00    +0.000 C 
ATOM      6  C   UNL     1      19.188  12.193  83.394  0.00  0.00    +0.000 C 
ATOM      7  C   UNL     1      19.893  14.276  84.434  0.00  0.00    +0.000 C 
ATOM      8  C   UNL     1      17.599  14.086  83.424  0.00  0.00    +0.000 C 
ATOM      9  C   UNL     1      20.143   9.772  83.615  0.00  0.00    +0.000 C 
ATOM     10  C   UNL     1      20.906  11.805  84.969  0.00  0.00    +0.000 C 
ATOM     11  C   UNL     1      21.031  13.324  85.038  0.00  0.00    +0.000 C 
ATOM     12  C   UNL     1      19.164  14.920  85.617  0.00  0.00    +0.000 C 
ATOM     13  C   UNL     1      20.787   8.911  84.691  0.00  0.00    +0.000 A 
ATOM     14  C   UNL     1      16.968  14.217  84.766  0.00  0.00    +0.000 C 
ATOM     15  C   UNL     1      21.653  11.023  85.770  0.00  0.00    +0.000 C 
ATOM     16  C   UNL     1      17.823  14.882  85.799  0.00  0.00    +0.000 C 
ATOM     17  C   UNL     1      21.498   9.536  85.761  0.00  0.00    +0.000 A 
ATOM     18  C   UNL     1      20.930   9.705  82.290  0.00  0.00    +0.000 C 
ATOM     19  C   UNL     1      20.712   7.498  84.664  0.00  0.00    +0.000 A 
ATOM     20  C   UNL     1      22.029   8.715  86.781  0.00  0.00    +0.000 A 
ATOM     21  C   UNL     1      21.280   6.723  85.671  0.00  0.00    +0.000 A 
ATOM     22  C   UNL     1      21.923   7.327  86.735  0.00  0.00    +0.000 A 
ENDROOT
BRANCH  16  23
ATOM     23  C   UNL     1      17.143  15.564  86.936  0.00  0.00    +0.000 C 
ATOM     24  O   UNL     1      17.631  15.602  88.058  0.00  0.00    +0.000 OA
ATOM     25  N   UNL     1      15.934  16.135  86.681  0.00  0.00    +0.000 N 
ATOM     26  H   UNL     1      15.409  15.867  85.855  0.00  0.00    +0.000 HD
ATOM     27  H   UNL     1      15.421  16.491  87.475  0.00  0.00    +0.000 HD
ENDBRANCH  16  23
BRANCH   8  28
ATOM     28  N   UNL     1      17.143  14.927  82.349  0.00  0.00    +0.000 NA
ATOM     29  C   UNL     1      17.116  16.345  82.676  0.00  0.00    +0.000 C 
ATOM     30  C   UNL     1      17.892  14.765  81.119  0.00  0.00    +0.000 C 
ENDBRANCH   8  28
BRANCH  12  31
ATOM     31  O   UNL     1      19.979  15.641  86.495  0.00  0.00    +0.000 OA
ATOM     32  H   UNL     1      20.394  16.381  85.995  0.00  0.00    +0.000 HD
ENDBRANCH  12  31
BRANCH   7  33
ATOM     33  O   UNL     1      20.506  15.370  83.749  0.00  0.00    +0.000 OA
ATOM     34  H   UNL     1      21.357  15.062  83.386  0.00  0.00    +0.000 HD
ENDBRANCH   7  33
BRANCH  15  35
ATOM     35  O   UNL     1      22.611  11.524  86.626  0.00  0.00    +0.000 OA
ATOM     36  H   UNL     1      22.621  11.015  87.464  0.00  0.00    +0.000 HD
ENDBRANCH  15  35
BRANCH   9  37
ATOM     37  O   UNL     1      18.837   9.315  83.329  0.00  0.00    +0.000 OA
ATOM     38  H   UNL     1      18.995   8.774  82.533  0.00  0.00    +0.000 HD
ENDBRANCH   9  37
BRANCH  20  39
ATOM     39  O   UNL     1      22.633   9.248  87.887  0.00  0.00    +0.000 OA
ATOM     40  H   UNL     1      23.512   9.586  87.645  0.00  0.00    +0.000 HD
ENDBRANCH  20  39
TORSDOF 7
ENDMDL
MODEL 3
REMARK VINA RESULT:      -6.2     59.342     60.987
REMARK  Name = Chlortetracycline.pdbqt.pdb
REMARK  7 active torsions:
REMARK  status: ('A' for Active; 'I' for Inactive)
REMARK    1  A    between atoms: C_7  and  O_30
REMARK    2  A    between atoms: C_8  and  N_32
REMARK    3  A    between atoms: C_9  and  O_37
REMARK    4  A    between atoms: C_12  and  O_28
REMARK    5  A    between atoms: C_15  and  O_35
REMARK    6  A    between atoms: C_16  and  C_23
REMARK    7  A    between atoms: C_20  and  O_39
REMARK                            x       y       z     vdW  Elec       q    Type
REMARK                         _______ _______ _______ _____ _____    ______ ____
ROOT
ATOM      1 CL   UNL     1       7.920   9.317 103.180  0.00  0.00    +0.000 Cl
ATOM      2  O   UNL     1      15.080   6.873 101.166  0.00  0.00    +0.000 OA
ATOM      3  O   UNL     1      10.981   3.342  98.214  0.00  0.00    +0.000 OA
ATOM      4  C   UNL     1      12.427   4.250 101.205  0.00  0.00    +0.000 C 
ATOM      5  C   UNL     1      11.489   6.640 101.814  0.00  0.00    +0.000 C 
ATOM      6  C   UNL     1      11.533   5.240 101.664  0.00  0.00    +0.000 C 
ATOM      7  C   UNL     1      13.772   4.812 100.812  0.00  0.00    +0.000 C 
ATOM      8  C   UNL     1      11.925   3.162 100.384  0.00  0.00    +0.000 C 
ATOM      9  C   UNL     1      10.421   7.453 102.491  0.00  0.00    +0.000 C 
ATOM     10  C   UNL     1      12.740   7.257 101.428  0.00  0.00    +0.000 C 
ATOM     11  C   UNL     1      13.948   6.369 101.145  0.00  0.00    +0.000 C 
ATOM     12  C   UNL     1      14.090   4.627  99.325  0.00  0.00    +0.000 C 
ATOM     13  C   UNL     1      10.475   8.934 102.150  0.00  0.00    +0.000 A 
ATOM     14  C   UNL     1      11.970   3.449  98.923  0.00  0.00    +0.000 C 
ATOM     15  C   UNL     1      12.847   8.597 101.351  0.00  0.00    +0.000 C 
ATOM     16  C   UNL     1      13.264   4.025  98.437  0.00  0.00    +0.000 C 
ATOM     17  C   UNL     1      11.658   9.479 101.562  0.00  0.00    +0.000 A 
ATOM     18  C   UNL     1      10.525   7.217 104.012  0.00  0.00    +0.000 C 
ATOM     19  C   UNL     1       9.387   9.803 102.406  0.00  0.00    +0.000 A 
ATOM     20  C   UNL     1      11.656  10.843 101.196  0.00  0.00    +0.000 A 
ATOM     21  C   UNL     1       9.438  11.150 102.061  0.00  0.00    +0.000 A 
ATOM     22  C   UNL     1      10.561  11.668 101.444  0.00  0.00    +0.000 A 
ENDROOT
BRANCH  16  23
ATOM     23  C   UNL     1      13.629   3.816  97.007  0.00  0.00    +0.000 C 
ATOM     24  O   UNL     1      14.199   4.676  96.350  0.00  0.00    +0.000 OA
ATOM     25  N   UNL     1      13.283   2.625  96.449  0.00  0.00    +0.000 N 
ATOM     26  H   UNL     1      12.578   2.042  96.889  0.00  0.00    +0.000 HD
ATOM     27  H   UNL     1      13.422   2.531  95.452  0.00  0.00    +0.000 HD
ENDBRANCH  16  23
BRANCH   8  28
ATOM     28  N   UNL     1      11.975   1.795 100.832  0.00  0.00    +0.000 NA
ATOM     29  C   UNL     1      13.071   1.024 100.264  0.00  0.00    +0.000 C 
ATOM     30  C   UNL     1      12.026   1.652 102.273  0.00  0.00    +0.000 C 
ENDBRANCH   8  28
BRANCH  12  31
ATOM     31  O   UNL     1      15.359   5.063  98.931  0.00  0.00    +0.000 OA
ATOM     32  H   UNL     1      15.609   5.833  99.491  0.00  0.00    +0.000 HD
ENDBRANCH  12  31
BRANCH   7  33
ATOM     33  O   UNL     1      14.781   4.065 101.493  0.00  0.00    +0.000 OA
ATOM     34  H   UNL     1      15.587   4.612 101.534  0.00  0.00    +0.000 HD
ENDBRANCH   7  33
BRANCH  15  35
ATOM     35  O   UNL     1      14.039   9.241 101.097  0.00  0.00    +0.000 OA
ATOM     36  H   UNL     1      14.734   8.593 100.860  0.00  0.00    +0.000 HD
ENDBRANCH  15  35
BRANCH   9  37
ATOM     37  O   UNL     1       9.188   6.895 102.082  0.00  0.00    +0.000 OA
ATOM     38  H   UNL     1       8.807   7.631 101.571  0.00  0.00    +0.000 HD
ENDBRANCH   9  37
BRANCH  20  39
ATOM     39  O   UNL     1      12.713  11.409 100.536  0.00  0.00    +0.000 OA
ATOM     40  H   UNL     1      13.342  10.714 100.276  0.00  0.00    +0.000 HD
ENDBRANCH  20  39
TORSDOF 7
ENDMDL
MODEL 4
REMARK VINA RESULT:      -5.9     18.440     21.535
REMARK  Name = Chlortetracycline.pdbqt.pdb
REMARK  7 active torsions:
REMARK  status: ('A' for Active; 'I' for Inactive)
REMARK    1  A    between atoms: C_7  and  O_30
REMARK    2  A    between atoms: C_8  and  N_32
REMARK    3  A    between atoms: C_9  and  O_37
REMARK    4  A    between atoms: C_12  and  O_28
REMARK    5  A    between atoms: C_15  and  O_35
REMARK    6  A    between atoms: C_16  and  C_23
REMARK    7  A    between atoms: C_20  and  O_39
REMARK                            x       y       z     vdW  Elec       q    Type
REMARK                         _______ _______ _______ _____ _____    ______ ____
ROOT
ATOM      1 CL   UNL     1      48.431  19.823  85.911  0.00  0.00    +0.000 Cl
ATOM      2  O   UNL     1      45.790  26.763  83.430  0.00  0.00    +0.000 OA
ATOM      3  O   UNL     1      42.110  24.865  87.995  0.00  0.00    +0.000 OA
ATOM      4  C   UNL     1      43.201  24.427  84.758  0.00  0.00    +0.000 C 
ATOM      5  C   UNL     1      45.635  23.419  84.900  0.00  0.00    +0.000 C 
ATOM      6  C   UNL     1      44.228  23.476  84.930  0.00  0.00    +0.000 C 
ATOM      7  C   UNL     1      43.723  25.785  84.355  0.00  0.00    +0.000 C 
ATOM      8  C   UNL     1      42.065  24.422  85.663  0.00  0.00    +0.000 C 
ATOM      9  C   UNL     1      46.502  22.194  84.982  0.00  0.00    +0.000 C 
ATOM     10  C   UNL     1      46.213  24.698  84.547  0.00  0.00    +0.000 C 
ATOM     11  C   UNL     1      45.297  25.816  84.058  0.00  0.00    +0.000 C 
ATOM     12  C   UNL     1      43.436  26.873  85.395  0.00  0.00    +0.000 C 
ATOM     13  C   UNL     1      47.957  22.496  85.307  0.00  0.00    +0.000 A 
ATOM     14  C   UNL     1      42.254  25.291  86.858  0.00  0.00    +0.000 C 
ATOM     15  C   UNL     1      47.544  24.891  84.618  0.00  0.00    +0.000 C 
ATOM     16  C   UNL     1      42.784  26.660  86.561  0.00  0.00    +0.000 C 
ATOM     17  C   UNL     1      48.450  23.829  85.155  0.00  0.00    +0.000 A 
ATOM     18  C   UNL     1      46.367  21.417  83.656  0.00  0.00    +0.000 C 
ATOM     19  C   UNL     1      48.850  21.492  85.750  0.00  0.00    +0.000 A 
ATOM     20  C   UNL     1      49.786  24.094  85.526  0.00  0.00    +0.000 A 
ATOM     21  C   UNL     1      50.172  21.789  86.073  0.00  0.00    +0.000 A 
ATOM     22  C   UNL     1      50.636  23.087  85.977  0.00  0.00    +0.000 A 
ENDROOT
BRANCH  16  23
ATOM     23  C   UNL     1      42.477  27.752  87.527  0.00  0.00    +0.000 C 
ATOM     24  O   UNL     1      41.357  27.912  87.993  0.00  0.00    +0.000 OA
ATOM     25  N   UNL     1      43.498  28.587  87.861  0.00  0.00    +0.000 N 
ATOM     26  H   UNL     1      44.327  28.636  87.278  0.00  0.00    +0.000 HD
ATOM     27  H   UNL     1      43.262  29.396  88.420  0.00  0.00    +0.000 HD
ENDBRANCH  16  23
BRANCH   8  28
ATOM     28  N   UNL     1      40.731  24.150  85.198  0.00  0.00    +0.000 NA
ATOM     29  C   UNL     1      40.600  24.142  83.748  0.00  0.00    +0.000 C 
ATOM     30  C   UNL     1      40.175  22.912  85.705  0.00  0.00    +0.000 C 
ENDBRANCH   8  28
BRANCH  12  31
ATOM     31  O   UNL     1      43.832  28.163  85.029  0.00  0.00    +0.000 OA
ATOM     32  H   UNL     1      43.060  28.621  84.625  0.00  0.00    +0.000 HD
ENDBRANCH  12  31
BRANCH   7  33
ATOM     33  O   UNL     1      43.013  26.205  83.188  0.00  0.00    +0.000 OA
ATOM     34  H   UNL     1      42.584  27.059  83.385  0.00  0.00    +0.000 HD
ENDBRANCH   7  33
BRANCH  15  35
ATOM     35  O   UNL     1      48.158  26.048  84.189  0.00  0.00    +0.000 OA
ATOM     36  H   UNL     1      48.462  26.577  84.956  0.00  0.00    +0.000 HD
ENDBRANCH  15  35
BRANCH   9  37
ATOM     37  O   UNL     1      45.929  21.377  85.984  0.00  0.00    +0.000 OA
ATOM     38  H   UNL     1      46.726  20.994  86.395  0.00  0.00    +0.000 HD
ENDBRANCH   9  37
BRANCH  20  39
ATOM     39  O   UNL     1      50.296  25.364  85.505  0.00  0.00    +0.000 OA
ATOM     40  H   UNL     1      51.268  25.324  85.527  0.00  0.00    +0.000 HD
ENDBRANCH  20  39
TORSDOF 7
ENDMDL
MODEL 5
REMARK VINA RESULT:      -5.9     15.090     17.821
REMARK  Name = Chlortetracycline.pdbqt.pdb
REMARK  7 active torsions:
REMARK  status: ('A' for Active; 'I' for Inactive)
REMARK    1  A    between atoms: C_7  and  O_30
REMARK    2  A    between atoms: C_8  and  N_32
REMARK    3  A    between atoms: C_9  and  O_37
REMARK    4  A    between atoms: C_12  and  O_28
REMARK    5  A    between atoms: C_15  and  O_35
REMARK    6  A    between atoms: C_16  and  C_23
REMARK    7  A    between atoms: C_20  and  O_39
REMARK                            x       y       z     vdW  Elec       q    Type
REMARK                         _______ _______ _______ _____ _____    ______ ____
ROOT
ATOM      1 CL   UNL     1      45.942  42.102  78.760  0.00  0.00    +0.000 Cl
ATOM      2  O   UNL     1      44.669  35.128  82.085  0.00  0.00    +0.000 OA
ATOM      3  O   UNL     1      43.985  39.444  86.430  0.00  0.00    +0.000 OA
ATOM      4  C   UNL     1      46.111  37.747  84.319  0.00  0.00    +0.000 C 
ATOM      5  C   UNL     1      45.647  38.646  81.881  0.00  0.00    +0.000 C 
ATOM      6  C   UNL     1      46.144  38.604  83.199  0.00  0.00    +0.000 C 
ATOM      7  C   UNL     1      45.396  36.446  84.039  0.00  0.00    +0.000 C 
ATOM      8  C   UNL     1      45.916  38.310  85.643  0.00  0.00    +0.000 C 
ATOM      9  C   UNL     1      45.968  39.656  80.815  0.00  0.00    +0.000 C 
ATOM     10  C   UNL     1      44.921  37.439  81.547  0.00  0.00    +0.000 C 
ATOM     11  C   UNL     1      44.973  36.253  82.506  0.00  0.00    +0.000 C 
ATOM     12  C   UNL     1      44.133  36.259  84.886  0.00  0.00    +0.000 C 
ATOM     13  C   UNL     1      44.990  39.644  79.650  0.00  0.00    +0.000 A 
ATOM     14  C   UNL     1      44.485  38.397  86.048  0.00  0.00    +0.000 C 
ATOM     15  C   UNL     1      44.238  37.350  80.391  0.00  0.00    +0.000 C 
ATOM     16  C   UNL     1      43.686  37.155  85.796  0.00  0.00    +0.000 C 
ATOM     17  C   UNL     1      44.124  38.523  79.469  0.00  0.00    +0.000 A 
ATOM     18  C   UNL     1      47.416  39.417  80.343  0.00  0.00    +0.000 C 
ATOM     19  C   UNL     1      44.914  40.712  78.725  0.00  0.00    +0.000 A 
ATOM     20  C   UNL     1      43.182  38.568  78.418  0.00  0.00    +0.000 A 
ATOM     21  C   UNL     1      43.994  40.703  77.681  0.00  0.00    +0.000 A 
ATOM     22  C   UNL     1      43.119  39.642  77.535  0.00  0.00    +0.000 A 
ENDROOT
BRANCH  16  23
ATOM     23  C   UNL     1      42.481  36.917  86.640  0.00  0.00    +0.000 C 
ATOM     24  O   UNL     1      41.498  36.323  86.216  0.00  0.00    +0.000 OA
ATOM     25  N   UNL     1      42.508  37.406  87.909  0.00  0.00    +0.000 N 
ATOM     26  H   UNL     1      43.178  38.124  88.163  0.00  0.00    +0.000 HD
ATOM     27  H   UNL     1      41.649  37.350  88.439  0.00  0.00    +0.000 HD
ENDBRANCH  16  23
BRANCH   8  28
ATOM     28  N   UNL     1      46.928  38.211  86.661  0.00  0.00    +0.000 NA
ATOM     29  C   UNL     1      46.833  37.008  87.476  0.00  0.00    +0.000 C 
ATOM     30  C   UNL     1      48.281  38.301  86.152  0.00  0.00    +0.000 C 
ENDBRANCH   8  28
BRANCH  12  31
ATOM     31  O   UNL     1      43.482  35.034  84.717  0.00  0.00    +0.000 OA
ATOM     32  H   UNL     1      42.818  34.935  85.437  0.00  0.00    +0.000 HD
ENDBRANCH  12  31
BRANCH   7  33
ATOM     33  O   UNL     1      46.256  35.375  84.431  0.00  0.00    +0.000 OA
ATOM     34  H   UNL     1      47.123  35.511  84.006  0.00  0.00    +0.000 HD
ENDBRANCH   7  33
BRANCH  15  35
ATOM     35  O   UNL     1      43.623  36.190  79.969  0.00  0.00    +0.000 OA
ATOM     36  H   UNL     1      44.212  35.691  79.366  0.00  0.00    +0.000 HD
ENDBRANCH  15  35
BRANCH   9  37
ATOM     37  O   UNL     1      45.959  40.916  81.458  0.00  0.00    +0.000 OA
ATOM     38  H   UNL     1      45.149  40.848  81.996  0.00  0.00    +0.000 HD
ENDBRANCH   9  37
BRANCH  20  39
ATOM     39  O   UNL     1      42.253  37.577  78.247  0.00  0.00    +0.000 OA
ATOM     40  H   UNL     1      42.578  36.938  77.589  0.00  0.00    +0.000 HD
ENDBRANCH  20  39
TORSDOF 7
ENDMDL
MODEL 6
REMARK VINA RESULT:      -5.8     14.259     16.599
REMARK  Name = Chlortetracycline.pdbqt.pdb
REMARK  7 active torsions:
REMARK  status: ('A' for Active; 'I' for Inactive)
REMARK    1  A    between atoms: C_7  and  O_30
REMARK    2  A    between atoms: C_8  and  N_32
REMARK    3  A    between atoms: C_9  and  O_37
REMARK    4  A    between atoms: C_12  and  O_28
REMARK    5  A    between atoms: C_15  and  O_35
REMARK    6  A    between atoms: C_16  and  C_23
REMARK    7  A    between atoms: C_20  and  O_39
REMARK                            x       y       z     vdW  Elec       q    Type
REMARK                         _______ _______ _______ _____ _____    ______ ____
ROOT
ATOM      1 CL   UNL     1      44.347  42.729  76.455  0.00  0.00    +0.000 Cl
ATOM      2  O   UNL     1      48.141  37.319  80.654  0.00  0.00    +0.000 OA
ATOM      3  O   UNL     1      42.904  38.671  83.609  0.00  0.00    +0.000 OA
ATOM      4  C   UNL     1      46.035  39.700  82.608  0.00  0.00    +0.000 C 
ATOM      5  C   UNL     1      45.902  40.137  80.009  0.00  0.00    +0.000 C 
ATOM      6  C   UNL     1      45.744  40.354  81.393  0.00  0.00    +0.000 C 
ATOM      7  C   UNL     1      46.804  38.415  82.413  0.00  0.00    +0.000 C 
ATOM      8  C   UNL     1      45.044  39.696  83.670  0.00  0.00    +0.000 C 
ATOM      9  C   UNL     1      45.617  41.105  78.895  0.00  0.00    +0.000 C 
ATOM     10  C   UNL     1      46.609  38.903  79.740  0.00  0.00    +0.000 C 
ATOM     11  C   UNL     1      47.258  38.152  80.899  0.00  0.00    +0.000 C 
ATOM     12  C   UNL     1      46.032  37.176  82.877  0.00  0.00    +0.000 C 
ATOM     13  C   UNL     1      45.524  40.448  77.526  0.00  0.00    +0.000 A 
ATOM     14  C   UNL     1      44.119  38.531  83.616  0.00  0.00    +0.000 C 
ATOM     15  C   UNL     1      46.723  38.441  78.481  0.00  0.00    +0.000 C 
ATOM     16  C   UNL     1      44.788  37.207  83.410  0.00  0.00    +0.000 C 
ATOM     17  C   UNL     1      46.041  39.129  77.341  0.00  0.00    +0.000 A 
ATOM     18  C   UNL     1      46.696  42.206  78.923  0.00  0.00    +0.000 C 
ATOM     19  C   UNL     1      44.946  41.108  76.416  0.00  0.00    +0.000 A 
ATOM     20  C   UNL     1      45.882  38.519  76.077  0.00  0.00    +0.000 A 
ATOM     21  C   UNL     1      44.840  40.483  75.176  0.00  0.00    +0.000 A 
ATOM     22  C   UNL     1      45.291  39.188  75.009  0.00  0.00    +0.000 A 
ENDROOT
BRANCH  16  23
ATOM     23  C   UNL     1      44.087  35.986  83.899  0.00  0.00    +0.000 C 
ATOM     24  O   UNL     1      44.438  35.398  84.913  0.00  0.00    +0.000 OA
ATOM     25  N   UNL     1      43.041  35.535  83.156  0.00  0.00    +0.000 N 
ATOM     26  H   UNL     1      42.931  35.838  82.195  0.00  0.00    +0.000 HD
ATOM     27  H   UNL     1      42.644  34.644  83.421  0.00  0.00    +0.000 HD
ENDBRANCH  16  23
BRANCH   8  28
ATOM     28  N   UNL     1      45.293  40.337  84.935  0.00  0.00    +0.000 NA
ATOM     29  C   UNL     1      45.740  39.429  85.981  0.00  0.00    +0.000 C 
ATOM     30  C   UNL     1      46.236  41.433  84.861  0.00  0.00    +0.000 C 
ENDBRANCH   8  28
BRANCH  12  31
ATOM     31  O   UNL     1      46.735  35.971  82.788  0.00  0.00    +0.000 OA
ATOM     32  H   UNL     1      46.972  35.820  81.845  0.00  0.00    +0.000 HD
ENDBRANCH  12  31
BRANCH   7  33
ATOM     33  O   UNL     1      47.959  38.457  83.253  0.00  0.00    +0.000 OA
ATOM     34  H   UNL     1      47.853  37.781  83.947  0.00  0.00    +0.000 HD
ENDBRANCH   7  33
BRANCH  15  35
ATOM     35  O   UNL     1      47.477  37.334  78.153  0.00  0.00    +0.000 OA
ATOM     36  H   UNL     1      47.318  36.610  78.794  0.00  0.00    +0.000 HD
ENDBRANCH  15  35
BRANCH   9  37
ATOM     37  O   UNL     1      44.395  41.733  79.227  0.00  0.00    +0.000 OA
ATOM     38  H   UNL     1      44.291  41.464  80.159  0.00  0.00    +0.000 HD
ENDBRANCH   9  37
BRANCH  20  39
ATOM     39  O   UNL     1      46.260  37.222  75.856  0.00  0.00    +0.000 OA
ATOM     40  H   UNL     1      45.910  36.924  74.999  0.00  0.00    +0.000 HD
ENDBRANCH  20  39
TORSDOF 7
ENDMDL
MODEL 7
REMARK VINA RESULT:      -5.7     43.810     45.766
REMARK  Name = Chlortetracycline.pdbqt.pdb
REMARK  7 active torsions:
REMARK  status: ('A' for Active; 'I' for Inactive)
REMARK    1  A    between atoms: C_7  and  O_30
REMARK    2  A    between atoms: C_8  and  N_32
REMARK    3  A    between atoms: C_9  and  O_37
REMARK    4  A    between atoms: C_12  and  O_28
REMARK    5  A    between atoms: C_15  and  O_35
REMARK    6  A    between atoms: C_16  and  C_23
REMARK    7  A    between atoms: C_20  and  O_39
REMARK                            x       y       z     vdW  Elec       q    Type
REMARK                         _______ _______ _______ _____ _____    ______ ____
ROOT
ATOM      1 CL   UNL     1      20.555  21.683  93.545  0.00  0.00    +0.000 Cl
ATOM      2  O   UNL     1      18.953  15.583  88.905  0.00  0.00    +0.000 OA
ATOM      3  O   UNL     1      18.947  20.663  85.415  0.00  0.00    +0.000 OA
ATOM      4  C   UNL     1      17.416  18.831  87.897  0.00  0.00    +0.000 C 
ATOM      5  C   UNL     1      18.922  19.055  90.052  0.00  0.00    +0.000 C 
ATOM      6  C   UNL     1      17.983  19.396  89.058  0.00  0.00    +0.000 C 
ATOM      7  C   UNL     1      17.876  17.414  87.650  0.00  0.00    +0.000 C 
ATOM      8  C   UNL     1      17.235  19.658  86.716  0.00  0.00    +0.000 C 
ATOM      9  C   UNL     1      19.243  19.820  91.306  0.00  0.00    +0.000 C 
ATOM     10  C   UNL     1      19.432  17.713  89.866  0.00  0.00    +0.000 C 
ATOM     11  C   UNL     1      18.774  16.807  88.830  0.00  0.00    +0.000 C 
ATOM     12  C   UNL     1      18.669  17.256  86.349  0.00  0.00    +0.000 C 
ATOM     13  C   UNL     1      20.548  19.396  91.961  0.00  0.00    +0.000 A 
ATOM     14  C   UNL     1      18.402  19.635  85.790  0.00  0.00    +0.000 C 
ATOM     15  C   UNL     1      20.452  17.259  90.619  0.00  0.00    +0.000 C 
ATOM     16  C   UNL     1      18.941  18.270  85.494  0.00  0.00    +0.000 C 
ATOM     17  C   UNL     1      21.150  18.153  91.593  0.00  0.00    +0.000 A 
ATOM     18  C   UNL     1      18.051  19.681  92.275  0.00  0.00    +0.000 C 
ATOM     19  C   UNL     1      21.190  20.194  92.938  0.00  0.00    +0.000 A 
ATOM     20  C   UNL     1      22.395  17.816  92.169  0.00  0.00    +0.000 A 
ATOM     21  C   UNL     1      22.401  19.809  93.507  0.00  0.00    +0.000 A 
ATOM     22  C   UNL     1      23.010  18.632  93.115  0.00  0.00    +0.000 A 
ENDROOT
BRANCH  16  23
ATOM     23  C   UNL     1      19.672  18.071  84.211  0.00  0.00    +0.000 C 
ATOM     24  O   UNL     1      20.753  17.500  84.160  0.00  0.00    +0.000 OA
ATOM     25  N   UNL     1      19.092  18.569  83.086  0.00  0.00    +0.000 N 
ATOM     26  H   UNL     1      18.363  19.271  83.157  0.00  0.00    +0.000 HD
ATOM     27  H   UNL     1      19.641  18.540  82.238  0.00  0.00    +0.000 HD
ENDBRANCH  16  23
BRANCH   8  28
ATOM     28  N   UNL     1      15.927  19.944  86.190  0.00  0.00    +0.000 NA
ATOM     29  C   UNL     1      15.565  21.354  86.237  0.00  0.00    +0.000 C 
ATOM     30  C   UNL     1      15.725  19.475  84.835  0.00  0.00    +0.000 C 
ENDBRANCH   8  28
BRANCH  12  31
ATOM     31  O   UNL     1      19.049  15.947  86.040  0.00  0.00    +0.000 OA
ATOM     32  H   UNL     1      19.940  15.784  86.426  0.00  0.00    +0.000 HD
ENDBRANCH  12  31
BRANCH   7  33
ATOM     33  O   UNL     1      16.719  16.596  87.469  0.00  0.00    +0.000 OA
ATOM     34  H   UNL     1      15.930  17.151  87.616  0.00  0.00    +0.000 HD
ENDBRANCH   7  33
BRANCH  15  35
ATOM     35  O   UNL     1      20.904  15.958  90.563  0.00  0.00    +0.000 OA
ATOM     36  H   UNL     1      20.163  15.332  90.701  0.00  0.00    +0.000 HD
ENDBRANCH  15  35
BRANCH   9  37
ATOM     37  O   UNL     1      19.296  21.181  90.928  0.00  0.00    +0.000 OA
ATOM     38  H   UNL     1      19.751  21.122  90.068  0.00  0.00    +0.000 HD
ENDBRANCH   9  37
BRANCH  20  39
ATOM     39  O   UNL     1      23.078  16.693  91.789  0.00  0.00    +0.000 OA
ATOM     40  H   UNL     1      24.027  16.817  91.961  0.00  0.00    +0.000 HD
ENDBRANCH  20  39
TORSDOF 7
ENDMDL
MODEL 8
REMARK VINA RESULT:      -5.7     20.495     23.558
REMARK  Name = Chlortetracycline.pdbqt.pdb
REMARK  7 active torsions:
REMARK  status: ('A' for Active; 'I' for Inactive)
REMARK    1  A    between atoms: C_7  and  O_30
REMARK    2  A    between atoms: C_8  and  N_32
REMARK    3  A    between atoms: C_9  and  O_37
REMARK    4  A    between atoms: C_12  and  O_28
REMARK    5  A    between atoms: C_15  and  O_35
REMARK    6  A    between atoms: C_16  and  C_23
REMARK    7  A    between atoms: C_20  and  O_39
REMARK                            x       y       z     vdW  Elec       q    Type
REMARK                         _______ _______ _______ _____ _____    ______ ____
ROOT
ATOM      1 CL   UNL     1      39.431  21.138  79.085  0.00  0.00    +0.000 Cl
ATOM      2  O   UNL     1      40.715  22.990  86.583  0.00  0.00    +0.000 OA
ATOM      3  O   UNL     1      43.822  27.005  83.088  0.00  0.00    +0.000 OA
ATOM      4  C   UNL     1      43.499  23.770  84.224  0.00  0.00    +0.000 C 
ATOM      5  C   UNL     1      41.402  22.735  83.001  0.00  0.00    +0.000 C 
ATOM      6  C   UNL     1      42.722  23.186  83.202  0.00  0.00    +0.000 C 
ATOM      7  C   UNL     1      42.747  23.906  85.526  0.00  0.00    +0.000 C 
ATOM      8  C   UNL     1      44.410  24.852  83.897  0.00  0.00    +0.000 C 
ATOM      9  C   UNL     1      40.862  21.994  81.810  0.00  0.00    +0.000 C 
ATOM     10  C   UNL     1      40.607  22.861  84.204  0.00  0.00    +0.000 C 
ATOM     11  C   UNL     1      41.298  23.223  85.515  0.00  0.00    +0.000 C 
ATOM     12  C   UNL     1      42.558  25.363  85.963  0.00  0.00    +0.000 C 
ATOM     13  C   UNL     1      39.343  21.993  81.731  0.00  0.00    +0.000 A 
ATOM     14  C   UNL     1      43.794  26.203  84.011  0.00  0.00    +0.000 C 
ATOM     15  C   UNL     1      39.281  22.631  84.174  0.00  0.00    +0.000 C 
ATOM     16  C   UNL     1      43.012  26.432  85.267  0.00  0.00    +0.000 C 
ATOM     17  C   UNL     1      38.577  22.338  82.887  0.00  0.00    +0.000 A 
ATOM     18  C   UNL     1      41.429  20.560  81.834  0.00  0.00    +0.000 C 
ATOM     19  C   UNL     1      38.654  21.651  80.543  0.00  0.00    +0.000 A 
ATOM     20  C   UNL     1      37.171  22.392  82.766  0.00  0.00    +0.000 A 
ATOM     21  C   UNL     1      37.264  21.683  80.475  0.00  0.00    +0.000 A 
ATOM     22  C   UNL     1      36.524  22.067  81.577  0.00  0.00    +0.000 A 
ENDROOT
BRANCH  16  23
ATOM     23  C   UNL     1      42.856  27.834  85.748  0.00  0.00    +0.000 C 
ATOM     24  O   UNL     1      43.131  28.162  86.894  0.00  0.00    +0.000 OA
ATOM     25  N   UNL     1      42.372  28.742  84.858  0.00  0.00    +0.000 N 
ATOM     26  H   UNL     1      41.886  28.429  84.024  0.00  0.00    +0.000 HD
ATOM     27  H   UNL     1      42.155  29.661  85.217  0.00  0.00    +0.000 HD
ENDBRANCH  16  23
BRANCH   8  28
ATOM     28  N   UNL     1      45.833  24.714  84.059  0.00  0.00    +0.000 NA
ATOM     29  C   UNL     1      46.589  24.877  82.826  0.00  0.00    +0.000 C 
ATOM     30  C   UNL     1      46.399  25.604  85.052  0.00  0.00    +0.000 C 
ENDBRANCH   8  28
BRANCH  12  31
ATOM     31  O   UNL     1      41.935  25.535  87.202  0.00  0.00    +0.000 OA
ATOM     32  H   UNL     1      42.580  25.955  87.817  0.00  0.00    +0.000 HD
ENDBRANCH  12  31
BRANCH   7  33
ATOM     33  O   UNL     1      43.538  23.319  86.560  0.00  0.00    +0.000 OA
ATOM     34  H   UNL     1      43.245  23.688  87.414  0.00  0.00    +0.000 HD
ENDBRANCH   7  33
BRANCH  15  35
ATOM     35  O   UNL     1      38.494  22.627  85.306  0.00  0.00    +0.000 OA
ATOM     36  H   UNL     1      37.545  22.582  85.062  0.00  0.00    +0.000 HD
ENDBRANCH  15  35
BRANCH   9  37
ATOM     37  O   UNL     1      41.417  22.625  80.674  0.00  0.00    +0.000 OA
ATOM     38  H   UNL     1      40.716  23.265  80.450  0.00  0.00    +0.000 HD
ENDBRANCH   9  37
BRANCH  20  39
ATOM     39  O   UNL     1      36.380  22.813  83.800  0.00  0.00    +0.000 OA
ATOM     40  H   UNL     1      36.436  22.175  84.533  0.00  0.00    +0.000 HD
ENDBRANCH  20  39
TORSDOF 7
ENDMDL
MODEL 9
REMARK VINA RESULT:      -5.6     18.859     20.460
REMARK  Name = Chlortetracycline.pdbqt.pdb
REMARK  7 active torsions:
REMARK  status: ('A' for Active; 'I' for Inactive)
REMARK    1  A    between atoms: C_7  and  O_30
REMARK    2  A    between atoms: C_8  and  N_32
REMARK    3  A    between atoms: C_9  and  O_37
REMARK    4  A    between atoms: C_12  and  O_28
REMARK    5  A    between atoms: C_15  and  O_35
REMARK    6  A    between atoms: C_16  and  C_23
REMARK    7  A    between atoms: C_20  and  O_39
REMARK                            x       y       z     vdW  Elec       q    Type
REMARK                         _______ _______ _______ _____ _____    ______ ____
ROOT
ATOM      1 CL   UNL     1      47.744  25.518  91.620  0.00  0.00    +0.000 Cl
ATOM      2  O   UNL     1      45.659  28.363  84.630  0.00  0.00    +0.000 OA
ATOM      3  O   UNL     1      43.044  22.818  85.269  0.00  0.00    +0.000 OA
ATOM      4  C   UNL     1      45.932  24.648  84.849  0.00  0.00    +0.000 C 
ATOM      5  C   UNL     1      46.428  25.832  87.155  0.00  0.00    +0.000 C 
ATOM      6  C   UNL     1      46.359  24.813  86.183  0.00  0.00    +0.000 C 
ATOM      7  C   UNL     1      45.466  25.938  84.219  0.00  0.00    +0.000 C 
ATOM      8  C   UNL     1      45.191  23.453  84.481  0.00  0.00    +0.000 C 
ATOM      9  C   UNL     1      47.089  25.764  88.503  0.00  0.00    +0.000 C 
ATOM     10  C   UNL     1      45.969  27.101  86.631  0.00  0.00    +0.000 C 
ATOM     11  C   UNL     1      45.702  27.231  85.134  0.00  0.00    +0.000 C 
ATOM     12  C   UNL     1      43.983  25.919  83.834  0.00  0.00    +0.000 C 
ATOM     13  C   UNL     1      46.661  26.877  89.448  0.00  0.00    +0.000 A 
ATOM     14  C   UNL     1      43.716  23.603  84.616  0.00  0.00    +0.000 C 
ATOM     15  C   UNL     1      45.811  28.160  87.446  0.00  0.00    +0.000 C 
ATOM     16  C   UNL     1      43.158  24.864  84.031  0.00  0.00    +0.000 C 
ATOM     17  C   UNL     1      46.006  28.033  88.923  0.00  0.00    +0.000 A 
ATOM     18  C   UNL     1      48.617  25.755  88.293  0.00  0.00    +0.000 C 
ATOM     19  C   UNL     1      46.899  26.810  90.841  0.00  0.00    +0.000 A 
ATOM     20  C   UNL     1      45.562  29.020  89.831  0.00  0.00    +0.000 A 
ATOM     21  C   UNL     1      46.475  27.821  91.699  0.00  0.00    +0.000 A 
ATOM     22  C   UNL     1      45.795  28.916  91.200  0.00  0.00    +0.000 A 
ENDROOT
BRANCH  16  23
ATOM     23  C   UNL     1      41.732  24.862  83.597  0.00  0.00    +0.000 C 
ATOM     24  O   UNL     1      41.399  25.157  82.457  0.00  0.00    +0.000 OA
ATOM     25  N   UNL     1      40.801  24.532  84.533  0.00  0.00    +0.000 N 
ATOM     26  H   UNL     1      41.037  24.566  85.519  0.00  0.00    +0.000 HD
ATOM     27  H   UNL     1      39.831  24.646  84.272  0.00  0.00    +0.000 HD
ENDBRANCH  16  23
BRANCH   8  28
ATOM     28  N   UNL     1      45.716  22.502  83.538  0.00  0.00    +0.000 NA
ATOM     29  C   UNL     1      47.132  22.677  83.246  0.00  0.00    +0.000 C 
ATOM     30  C   UNL     1      45.505  21.121  83.920  0.00  0.00    +0.000 C 
ENDBRANCH   8  28
BRANCH  12  31
ATOM     31  O   UNL     1      43.526  27.064  83.176  0.00  0.00    +0.000 OA
ATOM     32  H   UNL     1      43.752  26.984  82.221  0.00  0.00    +0.000 HD
ENDBRANCH  12  31
BRANCH   7  33
ATOM     33  O   UNL     1      46.158  26.102  82.980  0.00  0.00    +0.000 OA
ATOM     34  H   UNL     1      46.792  26.836  83.082  0.00  0.00    +0.000 HD
ENDBRANCH   7  33
BRANCH  15  35
ATOM     35  O   UNL     1      45.484  29.418  86.987  0.00  0.00    +0.000 OA
ATOM     36  H   UNL     1      44.586  29.669  87.288  0.00  0.00    +0.000 HD
ENDBRANCH  15  35
BRANCH   9  37
ATOM     37  O   UNL     1      46.751  24.501  89.039  0.00  0.00    +0.000 OA
ATOM     38  H   UNL     1      45.877  24.687  89.429  0.00  0.00    +0.000 HD
ENDBRANCH   9  37
BRANCH  20  39
ATOM     39  O   UNL     1      44.838  30.103  89.412  0.00  0.00    +0.000 OA
ATOM     40  H   UNL     1      45.420  30.881  89.357  0.00  0.00    +0.000 HD
ENDBRANCH  20  39
TORSDOF 7
ENDMDL
