MODEL 1
REMARK VINA RESULT:      -4.9      0.000      0.000
REMARK  Name = Ciclopirox.pdbqt.pdb
REMARK  2 active torsions:
REMARK  status: ('A' for Active; 'I' for Inactive)
REMARK    1  A    between atoms: N_2  and  O_15
REMARK    2  A    between atoms: C_3  and  C_9
REMARK                            x       y       z     vdW  Elec       q    Type
REMARK                         _______ _______ _______ _____ _____    ______ ____
ROOT
ATOM      1  O   UNL     1      55.855  37.954  71.323  0.00  0.00    +0.000 OA
ATOM      2  N   UNL     1      56.167  38.200  73.631  0.00  0.00    +0.000 N 
ATOM      3  C   UNL     1      56.120  39.036  74.756  0.00  0.00    +0.000 C 
ATOM      4  C   UNL     1      55.780  40.256  74.425  0.00  0.00    +0.000 C 
ATOM      5  C   UNL     1      55.463  40.969  73.231  0.00  0.00    +0.000 C 
ATOM      6  C   UNL     1      55.874  38.648  72.330  0.00  0.00    +0.000 C 
ATOM      7  C   UNL     1      55.553  40.056  72.311  0.00  0.00    +0.000 C 
ATOM      8  C   UNL     1      55.995  42.345  73.009  0.00  0.00    +0.000 C 
ENDROOT
BRANCH   3   9
ATOM      9  C   UNL     1      56.390  38.620  76.101  0.00  0.00    +0.000 A 
ATOM     10  C   UNL     1      57.701  38.656  76.708  0.00  0.00    +0.000 A 
ATOM     11  C   UNL     1      58.217  38.026  78.022  0.00  0.00    +0.000 A 
ATOM     12  C   UNL     1      57.188  37.225  78.841  0.00  0.00    +0.000 A 
ATOM     13  C   UNL     1      55.758  37.129  78.279  0.00  0.00    +0.000 A 
ATOM     14  C   UNL     1      55.502  37.854  76.939  0.00  0.00    +0.000 A 
ENDBRANCH   3   9
BRANCH   2  15
ATOM     15  O   UNL     1      56.428  36.827  73.810  0.00  0.00    +0.000 OA
ATOM     16  H   UNL     1      57.406  36.792  73.783  0.00  0.00    +0.000 HD
ENDBRANCH   2  15
TORSDOF 2
ENDMDL
MODEL 2
REMARK VINA RESULT:      -4.7      5.258      6.106
REMARK  Name = Ciclopirox.pdbqt.pdb
REMARK  2 active torsions:
REMARK  status: ('A' for Active; 'I' for Inactive)
REMARK    1  A    between atoms: N_2  and  O_15
REMARK    2  A    between atoms: C_3  and  C_9
REMARK                            x       y       z     vdW  Elec       q    Type
REMARK                         _______ _______ _______ _____ _____    ______ ____
ROOT
ATOM      1  O   UNL     1      57.802  38.379  71.616  0.00  0.00    +0.000 OA
ATOM      2  N   UNL     1      58.632  36.262  72.178  0.00  0.00    +0.000 N 
ATOM      3  C   UNL     1      58.665  35.202  73.094  0.00  0.00    +0.000 C 
ATOM      4  C   UNL     1      57.943  35.469  74.154  0.00  0.00    +0.000 C 
ATOM      5  C   UNL     1      57.149  36.550  74.636  0.00  0.00    +0.000 C 
ATOM      6  C   UNL     1      57.902  37.444  72.398  0.00  0.00    +0.000 C 
ATOM      7  C   UNL     1      57.231  37.424  73.677  0.00  0.00    +0.000 C 
ATOM      8  C   UNL     1      57.226  36.965  76.067  0.00  0.00    +0.000 C 
ENDROOT
BRANCH   3   9
ATOM      9  C   UNL     1      59.377  33.972  72.904  0.00  0.00    +0.000 A 
ATOM     10  C   UNL     1      58.949  32.922  72.008  0.00  0.00    +0.000 A 
ATOM     11  C   UNL     1      59.435  31.462  71.867  0.00  0.00    +0.000 A 
ATOM     12  C   UNL     1      60.561  31.025  72.823  0.00  0.00    +0.000 A 
ATOM     13  C   UNL     1      61.090  32.075  73.817  0.00  0.00    +0.000 A 
ATOM     14  C   UNL     1      60.430  33.470  73.752  0.00  0.00    +0.000 A 
ENDBRANCH   3   9
BRANCH   2  15
ATOM     15  O   UNL     1      59.281  36.113  70.937  0.00  0.00    +0.000 OA
ATOM     16  H   UNL     1      58.543  35.878  70.338  0.00  0.00    +0.000 HD
ENDBRANCH   2  15
TORSDOF 2
ENDMDL
MODEL 3
REMARK VINA RESULT:      -4.5      9.469     11.632
REMARK  Name = Ciclopirox.pdbqt.pdb
REMARK  2 active torsions:
REMARK  status: ('A' for Active; 'I' for Inactive)
REMARK    1  A    between atoms: N_2  and  O_15
REMARK    2  A    between atoms: C_3  and  C_9
REMARK                            x       y       z     vdW  Elec       q    Type
REMARK                         _______ _______ _______ _____ _____    ______ ____
ROOT
ATOM      1  O   UNL     1      59.027  34.070  70.926  0.00  0.00    +0.000 OA
ATOM      2  N   UNL     1      59.326  32.457  69.255  0.00  0.00    +0.000 N 
ATOM      3  C   UNL     1      59.694  31.147  68.918  0.00  0.00    +0.000 C 
ATOM      4  C   UNL     1      60.084  30.478  69.974  0.00  0.00    +0.000 C 
ATOM      5  C   UNL     1      60.254  30.726  71.368  0.00  0.00    +0.000 C 
ATOM      6  C   UNL     1      59.377  32.954  70.569  0.00  0.00    +0.000 C 
ATOM      7  C   UNL     1      59.873  31.962  71.495  0.00  0.00    +0.000 C 
ATOM      8  C   UNL     1      61.457  30.211  72.086  0.00  0.00    +0.000 C 
ENDROOT
BRANCH   3   9
ATOM      9  C   UNL     1      59.640  30.591  67.597  0.00  0.00    +0.000 A 
ATOM     10  C   UNL     1      60.546  30.955  66.532  0.00  0.00    +0.000 A 
ATOM     11  C   UNL     1      60.483  30.661  65.016  0.00  0.00    +0.000 A 
ATOM     12  C   UNL     1      59.268  29.848  64.531  0.00  0.00    +0.000 A 
ATOM     13  C   UNL     1      58.242  29.410  65.593  0.00  0.00    +0.000 A 
ATOM     14  C   UNL     1      58.542  29.835  67.048  0.00  0.00    +0.000 A 
ENDBRANCH   3   9
BRANCH   2  15
ATOM     15  O   UNL     1      58.794  33.295  68.256  0.00  0.00    +0.000 OA
ATOM     16  H   UNL     1      58.403  34.026  68.777  0.00  0.00    +0.000 HD
ENDBRANCH   2  15
TORSDOF 2
ENDMDL
MODEL 4
REMARK VINA RESULT:      -4.3      1.350      2.207
REMARK  Name = Ciclopirox.pdbqt.pdb
REMARK  2 active torsions:
REMARK  status: ('A' for Active; 'I' for Inactive)
REMARK    1  A    between atoms: N_2  and  O_15
REMARK    2  A    between atoms: C_3  and  C_9
REMARK                            x       y       z     vdW  Elec       q    Type
REMARK                         _______ _______ _______ _____ _____    ______ ____
ROOT
ATOM      1  O   UNL     1      54.181  39.811  70.479  0.00  0.00    +0.000 OA
ATOM      2  N   UNL     1      55.309  39.498  72.508  0.00  0.00    +0.000 N 
ATOM      3  C   UNL     1      55.840  40.067  73.673  0.00  0.00    +0.000 C 
ATOM      4  C   UNL     1      55.694  41.369  73.674  0.00  0.00    +0.000 C 
ATOM      5  C   UNL     1      55.160  42.364  72.804  0.00  0.00    +0.000 C 
ATOM      6  C   UNL     1      54.699  40.258  71.493  0.00  0.00    +0.000 C 
ATOM      7  C   UNL     1      54.721  41.669  71.798  0.00  0.00    +0.000 C 
ATOM      8  C   UNL     1      55.883  43.653  72.596  0.00  0.00    +0.000 C 
ENDROOT
BRANCH   3   9
ATOM      9  C   UNL     1      56.451  39.333  74.742  0.00  0.00    +0.000 A 
ATOM     10  C   UNL     1      55.794  39.031  75.993  0.00  0.00    +0.000 A 
ATOM     11  C   UNL     1      56.365  38.489  77.323  0.00  0.00    +0.000 A 
ATOM     12  C   UNL     1      57.880  38.214  77.349  0.00  0.00    +0.000 A 
ATOM     13  C   UNL     1      58.673  38.501  76.061  0.00  0.00    +0.000 A 
ATOM     14  C   UNL     1      57.858  39.041  74.865  0.00  0.00    +0.000 A 
ENDBRANCH   3   9
BRANCH   2  15
ATOM     15  O   UNL     1      55.296  38.096  72.376  0.00  0.00    +0.000 OA
ATOM     16  H   UNL     1      55.077  37.799  73.283  0.00  0.00    +0.000 HD
ENDBRANCH   2  15
TORSDOF 2
ENDMDL
MODEL 5
REMARK VINA RESULT:      -4.3      6.486      7.793
REMARK  Name = Ciclopirox.pdbqt.pdb
REMARK  2 active torsions:
REMARK  status: ('A' for Active; 'I' for Inactive)
REMARK    1  A    between atoms: N_2  and  O_15
REMARK    2  A    between atoms: C_3  and  C_9
REMARK                            x       y       z     vdW  Elec       q    Type
REMARK                         _______ _______ _______ _____ _____    ______ ____
ROOT
ATOM      1  O   UNL     1      59.131  37.717  73.269  0.00  0.00    +0.000 OA
ATOM      2  N   UNL     1      59.872  35.532  72.867  0.00  0.00    +0.000 N 
ATOM      3  C   UNL     1      60.291  34.302  73.393  0.00  0.00    +0.000 C 
ATOM      4  C   UNL     1      60.336  34.337  74.701  0.00  0.00    +0.000 C 
ATOM      5  C   UNL     1      60.092  35.290  75.733  0.00  0.00    +0.000 C 
ATOM      6  C   UNL     1      59.544  36.638  73.671  0.00  0.00    +0.000 C 
ATOM      7  C   UNL     1      59.719  36.347  75.075  0.00  0.00    +0.000 C 
ATOM      8  C   UNL     1      61.015  35.393  76.901  0.00  0.00    +0.000 C 
ENDROOT
BRANCH   3   9
ATOM      9  C   UNL     1      60.617  33.143  72.614  0.00  0.00    +0.000 A 
ATOM     10  C   UNL     1      59.639  32.199  72.126  0.00  0.00    +0.000 A 
ATOM     11  C   UNL     1      59.820  30.794  71.507  0.00  0.00    +0.000 A 
ATOM     12  C   UNL     1      61.270  30.292  71.376  0.00  0.00    +0.000 A 
ATOM     13  C   UNL     1      62.389  31.228  71.868  0.00  0.00    +0.000 A 
ATOM     14  C   UNL     1      61.936  32.586  72.447  0.00  0.00    +0.000 A 
ENDBRANCH   3   9
BRANCH   2  15
ATOM     15  O   UNL     1      59.680  35.651  71.476  0.00  0.00    +0.000 OA
ATOM     16  H   UNL     1      59.857  34.741  71.159  0.00  0.00    +0.000 HD
ENDBRANCH   2  15
TORSDOF 2
ENDMDL
MODEL 6
REMARK VINA RESULT:      -4.3     57.346     58.363
REMARK  Name = Ciclopirox.pdbqt.pdb
REMARK  2 active torsions:
REMARK  status: ('A' for Active; 'I' for Inactive)
REMARK    1  A    between atoms: N_2  and  O_15
REMARK    2  A    between atoms: C_3  and  C_9
REMARK                            x       y       z     vdW  Elec       q    Type
REMARK                         _______ _______ _______ _____ _____    ______ ____
ROOT
ATOM      1  O   UNL     1      15.160  10.043 102.469  0.00  0.00    +0.000 OA
ATOM      2  N   UNL     1      14.375   8.666 100.745  0.00  0.00    +0.000 N 
ATOM      3  C   UNL     1      13.345   8.357  99.845  0.00  0.00    +0.000 C 
ATOM      4  C   UNL     1      12.314   9.147 100.015  0.00  0.00    +0.000 C 
ATOM      5  C   UNL     1      11.948  10.221 100.878  0.00  0.00    +0.000 C 
ATOM      6  C   UNL     1      14.280   9.702 101.692  0.00  0.00    +0.000 C 
ATOM      7  C   UNL     1      12.999  10.367 101.627  0.00  0.00    +0.000 C 
ATOM      8  C   UNL     1      10.572  10.293 101.453  0.00  0.00    +0.000 C 
ENDROOT
BRANCH   3   9
ATOM      9  C   UNL     1      13.405   7.326  98.851  0.00  0.00    +0.000 A 
ATOM     10  C   UNL     1      13.200   5.923  99.131  0.00  0.00    +0.000 A 
ATOM     11  C   UNL     1      13.470   4.675  98.261  0.00  0.00    +0.000 A 
ATOM     12  C   UNL     1      14.053   4.937  96.859  0.00  0.00    +0.000 A 
ATOM     13  C   UNL     1      14.307   6.403  96.463  0.00  0.00    +0.000 A 
ATOM     14  C   UNL     1      13.947   7.468  97.523  0.00  0.00    +0.000 A 
ENDBRANCH   3   9
BRANCH   2  15
ATOM     15  O   UNL     1      15.598   7.976 100.647  0.00  0.00    +0.000 OA
ATOM     16  H   UNL     1      15.329   7.045 100.786  0.00  0.00    +0.000 HD
ENDBRANCH   2  15
TORSDOF 2
ENDMDL
MODEL 7
REMARK VINA RESULT:      -4.3     18.605     19.634
REMARK  Name = Ciclopirox.pdbqt.pdb
REMARK  2 active torsions:
REMARK  status: ('A' for Active; 'I' for Inactive)
REMARK    1  A    between atoms: N_2  and  O_15
REMARK    2  A    between atoms: C_3  and  C_9
REMARK                            x       y       z     vdW  Elec       q    Type
REMARK                         _______ _______ _______ _____ _____    ______ ____
ROOT
ATOM      1  O   UNL     1      48.294  22.964  84.198  0.00  0.00    +0.000 OA
ATOM      2  N   UNL     1      46.869  24.768  84.645  0.00  0.00    +0.000 N 
ATOM      3  C   UNL     1      46.700  26.038  85.216  0.00  0.00    +0.000 C 
ATOM      4  C   UNL     1      47.796  26.440  85.809  0.00  0.00    +0.000 C 
ATOM      5  C   UNL     1      49.106  25.931  86.048  0.00  0.00    +0.000 C 
ATOM      6  C   UNL     1      48.077  24.051  84.715  0.00  0.00    +0.000 C 
ATOM      7  C   UNL     1      49.083  24.772  85.459  0.00  0.00    +0.000 C 
ATOM      8  C   UNL     1      49.755  26.107  87.381  0.00  0.00    +0.000 C 
ENDROOT
BRANCH   3   9
ATOM      9  C   UNL     1      45.496  26.814  85.154  0.00  0.00    +0.000 A 
ATOM     10  C   UNL     1      44.345  26.585  85.996  0.00  0.00    +0.000 A 
ATOM     11  C   UNL     1      42.904  27.137  85.900  0.00  0.00    +0.000 A 
ATOM     12  C   UNL     1      42.620  28.092  84.725  0.00  0.00    +0.000 A 
ATOM     13  C   UNL     1      43.786  28.403  83.769  0.00  0.00    +0.000 A 
ATOM     14  C   UNL     1      45.133  27.717  84.091  0.00  0.00    +0.000 A 
ENDBRANCH   3   9
BRANCH   2  15
ATOM     15  O   UNL     1      45.819  24.215  83.887  0.00  0.00    +0.000 OA
ATOM     16  H   UNL     1      45.649  24.911  83.220  0.00  0.00    +0.000 HD
ENDBRANCH   2  15
TORSDOF 2
ENDMDL
MODEL 8
REMARK VINA RESULT:      -4.2     44.618     46.359
REMARK  Name = Ciclopirox.pdbqt.pdb
REMARK  2 active torsions:
REMARK  status: ('A' for Active; 'I' for Inactive)
REMARK    1  A    between atoms: N_2  and  O_15
REMARK    2  A    between atoms: C_3  and  C_9
REMARK                            x       y       z     vdW  Elec       q    Type
REMARK                         _______ _______ _______ _____ _____    ______ ____
ROOT
ATOM      1  O   UNL     1      27.399   7.434  88.057  0.00  0.00    +0.000 OA
ATOM      2  N   UNL     1      25.209   7.726  87.280  0.00  0.00    +0.000 N 
ATOM      3  C   UNL     1      24.042   8.501  87.277  0.00  0.00    +0.000 C 
ATOM      4  C   UNL     1      24.156   9.533  88.077  0.00  0.00    +0.000 C 
ATOM      5  C   UNL     1      25.137  10.069  88.961  0.00  0.00    +0.000 C 
ATOM      6  C   UNL     1      26.341   8.047  88.051  0.00  0.00    +0.000 C 
ATOM      7  C   UNL     1      26.129   9.240  88.837  0.00  0.00    +0.000 C 
ATOM      8  C   UNL     1      24.738  10.603  90.297  0.00  0.00    +0.000 C 
ENDROOT
BRANCH   3   9
ATOM      9  C   UNL     1      22.873   8.224  86.495  0.00  0.00    +0.000 A 
ATOM     10  C   UNL     1      22.211   9.201  85.660  0.00  0.00    +0.000 A 
ATOM     11  C   UNL     1      20.831   9.158  84.965  0.00  0.00    +0.000 A 
ATOM     12  C   UNL     1      20.003   7.877  85.177  0.00  0.00    +0.000 A 
ATOM     13  C   UNL     1      20.623   6.772  86.052  0.00  0.00    +0.000 A 
ATOM     14  C   UNL     1      22.024   7.067  86.632  0.00  0.00    +0.000 A 
ENDBRANCH   3   9
BRANCH   2  15
ATOM     15  O   UNL     1      25.299   6.623  86.408  0.00  0.00    +0.000 OA
ATOM     16  H   UNL     1      24.541   6.766  85.806  0.00  0.00    +0.000 HD
ENDBRANCH   2  15
TORSDOF 2
ENDMDL
MODEL 9
REMARK VINA RESULT:      -4.1      7.321      9.219
REMARK  Name = Ciclopirox.pdbqt.pdb
REMARK  2 active torsions:
REMARK  status: ('A' for Active; 'I' for Inactive)
REMARK    1  A    between atoms: N_2  and  O_15
REMARK    2  A    between atoms: C_3  and  C_9
REMARK                            x       y       z     vdW  Elec       q    Type
REMARK                         _______ _______ _______ _____ _____    ______ ____
ROOT
ATOM      1  O   UNL     1      60.661  36.241  76.991  0.00  0.00    +0.000 OA
ATOM      2  N   UNL     1      61.081  34.614  75.359  0.00  0.00    +0.000 N 
ATOM      3  C   UNL     1      61.916  33.593  74.885  0.00  0.00    +0.000 C 
ATOM      4  C   UNL     1      62.977  33.459  75.641  0.00  0.00    +0.000 C 
ATOM      5  C   UNL     1      63.521  34.080  76.803  0.00  0.00    +0.000 C 
ATOM      6  C   UNL     1      61.373  35.372  76.508  0.00  0.00    +0.000 C 
ATOM      7  C   UNL     1      62.632  34.981  77.097  0.00  0.00    +0.000 C 
ATOM      8  C   UNL     1      64.981  34.378  76.888  0.00  0.00    +0.000 C 
ENDROOT
BRANCH   3   9
ATOM      9  C   UNL     1      61.650  32.782  73.732  0.00  0.00    +0.000 A 
ATOM     10  C   UNL     1      60.775  31.633  73.740  0.00  0.00    +0.000 A 
ATOM     11  C   UNL     1      60.572  30.518  72.689  0.00  0.00    +0.000 A 
ATOM     12  C   UNL     1      61.429  30.623  71.414  0.00  0.00    +0.000 A 
ATOM     13  C   UNL     1      62.395  31.817  71.308  0.00  0.00    +0.000 A 
ATOM     14  C   UNL     1      62.404  32.795  72.504  0.00  0.00    +0.000 A 
ENDBRANCH   3   9
BRANCH   2  15
ATOM     15  O   UNL     1      59.846  34.839  74.720  0.00  0.00    +0.000 OA
ATOM     16  H   UNL     1      59.868  34.196  73.982  0.00  0.00    +0.000 HD
ENDBRANCH   2  15
TORSDOF 2
ENDMDL
