MODEL 1
REMARK VINA RESULT:      -6.2      0.000      0.000
REMARK  Name = 
REMARK  14 active torsions:
REMARK  status: ('A' for Active; 'I' for Inactive)
REMARK    1  A    between atoms: S_2  and  C_21
REMARK    2  A    between atoms: S_2  and  C_27
REMARK    3  A    between atoms: O_4  and  C_16
REMARK    4  A    between atoms: O_5  and  C_18
REMARK    5  A    between atoms: O_6  and  C_20
REMARK    6  A    between atoms: N_8  and  C_23
REMARK    7  A    between atoms: N_9  and  C_15
REMARK    8  A    between atoms: C_10  and  C_17
REMARK    9  A    between atoms: C_11  and  C_19
REMARK   10  A    between atoms: C_14  and  C_15
REMARK   11  A    between atoms: C_15  and  C_22
REMARK   12  A    between atoms: C_17  and  C_24
REMARK   13  A    between atoms: C_22  and  C_25
REMARK   14  A    between atoms: C_24  and  C_26
REMARK                            x       y       z     vdW  Elec       q    Type
REMARK                         _______ _______ _______ _____ _____    ______ ____
ROOT
ATOM      1  C   UNL     1      58.965  36.278  74.833  0.00  0.00    +0.000 C 
ENDROOT
BRANCH   1   3
ATOM      2  O   UNL     1      58.313  36.697  77.125  0.00  0.00    +0.000 OA
ATOM      3  C   UNL     1      57.862  36.056  75.913  0.00  0.00    +0.000 C 
ATOM      4  C   UNL     1      56.473  36.582  75.493  0.00  0.00    +0.000 C 
ATOM      5  C   UNL     1      55.470  36.437  76.644  0.00  0.00    +0.000 C 
ATOM      6  C   UNL     1      56.009  37.116  77.910  0.00  0.00    +0.000 C 
ATOM      7  C   UNL     1      57.423  36.596  78.241  0.00  0.00    +0.000 C 
BRANCH   7   8
ATOM      8  S   UNL     1      57.406  34.895  78.946  0.00  0.00    +0.000 S 
ATOM      9  C   UNL     1      59.019  34.926  79.762  0.00  0.00    +0.000 C 
ENDBRANCH   7   8
BRANCH   4  10
ATOM     10  O   UNL     1      56.521  37.974  75.138  0.00  0.00    +0.000 OA
ATOM     11  H   UNL     1      55.666  38.180  74.691  0.00  0.00    +0.000 HD
ENDBRANCH   4  10
BRANCH   5  12
ATOM     12  O   UNL     1      54.222  37.026  76.247  0.00  0.00    +0.000 OA
ATOM     13  H   UNL     1      53.742  37.197  77.082  0.00  0.00    +0.000 HD
ENDBRANCH   5  12
BRANCH   6  14
ATOM     14  O   UNL     1      55.114  36.959  79.021  0.00  0.00    +0.000 OA
ATOM     15  H   UNL     1      54.465  36.277  78.771  0.00  0.00    +0.000 HD
ENDBRANCH   6  14
ENDBRANCH   1   3
BRANCH   1  17
ATOM     16  O   UNL     1      58.610  36.942  72.120  0.00  0.00    +0.000 OA
ATOM     17  N   UNL     1      58.844  35.334  73.710  0.00  0.00    +0.000 N 
ATOM     18  C   UNL     1      58.707  35.748  72.398  0.00  0.00    +0.000 C 
ATOM     19  H   UNL     1      58.826  34.342  73.927  0.00  0.00    +0.000 HD
BRANCH  18  22
ATOM     20  N   UNL     1      59.709  34.636  70.394  0.00  0.00    +0.000 NA
ATOM     21  C   UNL     1      59.943  32.545  71.343  0.00  0.00    +0.000 C 
ATOM     22  C   UNL     1      58.618  34.587  71.387  0.00  0.00    +0.000 C 
ATOM     23  C   UNL     1      58.777  33.220  72.068  0.00  0.00    +0.000 C 
ATOM     24  C   UNL     1      59.964  33.255  69.994  0.00  0.00    +0.000 C 
ATOM     25  C   UNL     1      59.415  35.503  69.263  0.00  0.00    +0.000 C 
BRANCH  21  26
ATOM     26  C   UNL     1      59.820  31.026  71.211  0.00  0.00    +0.000 C 
BRANCH  26  27
ATOM     27  C   UNL     1      60.921  30.283  71.971  0.00  0.00    +0.000 C 
ATOM     28  C   UNL     1      60.937  30.666  73.442  0.00  0.00    +0.000 C 
ENDBRANCH  26  27
ENDBRANCH  21  26
ENDBRANCH  18  22
ENDBRANCH   1  17
BRANCH   1  30
ATOM     29 CL   UNL     1      61.160  34.619  75.135  0.00  0.00    +0.000 Cl
ATOM     30  C   UNL     1      60.394  36.219  75.439  0.00  0.00    +0.000 C 
ATOM     31  C   UNL     1      61.303  37.307  74.867  0.00  0.00    +0.000 C 
ENDBRANCH   1  30
TORSDOF 10
ENDMDL
MODEL 2
REMARK VINA RESULT:      -5.5     19.780     22.228
REMARK  Name = 
REMARK  14 active torsions:
REMARK  status: ('A' for Active; 'I' for Inactive)
REMARK    1  A    between atoms: S_2  and  C_21
REMARK    2  A    between atoms: S_2  and  C_27
REMARK    3  A    between atoms: O_4  and  C_16
REMARK    4  A    between atoms: O_5  and  C_18
REMARK    5  A    between atoms: O_6  and  C_20
REMARK    6  A    between atoms: N_8  and  C_23
REMARK    7  A    between atoms: N_9  and  C_15
REMARK    8  A    between atoms: C_10  and  C_17
REMARK    9  A    between atoms: C_11  and  C_19
REMARK   10  A    between atoms: C_14  and  C_15
REMARK   11  A    between atoms: C_15  and  C_22
REMARK   12  A    between atoms: C_17  and  C_24
REMARK   13  A    between atoms: C_22  and  C_25
REMARK   14  A    between atoms: C_24  and  C_26
REMARK                            x       y       z     vdW  Elec       q    Type
REMARK                         _______ _______ _______ _____ _____    ______ ____
ROOT
ATOM      1  C   UNL     1      43.597  24.090  83.661  0.00  0.00    +0.000 C 
ENDROOT
BRANCH   1   3
ATOM      2  O   UNL     1      45.305  25.619  84.438  0.00  0.00    +0.000 OA
ATOM      3  C   UNL     1      43.937  25.224  84.677  0.00  0.00    +0.000 C 
ATOM      4  C   UNL     1      42.987  26.438  84.586  0.00  0.00    +0.000 C 
ATOM      5  C   UNL     1      43.449  27.557  85.526  0.00  0.00    +0.000 C 
ATOM      6  C   UNL     1      44.914  27.921  85.244  0.00  0.00    +0.000 C 
ATOM      7  C   UNL     1      45.800  26.659  85.286  0.00  0.00    +0.000 C 
BRANCH   7   8
ATOM      8  S   UNL     1      46.095  26.057  87.001  0.00  0.00    +0.000 S 
ATOM      9  C   UNL     1      47.871  26.380  87.098  0.00  0.00    +0.000 C 
ENDBRANCH   7   8
BRANCH   4  10
ATOM     10  O   UNL     1      42.952  26.982  83.255  0.00  0.00    +0.000 OA
ATOM     11  H   UNL     1      43.264  26.267  82.651  0.00  0.00    +0.000 HD
ENDBRANCH   4  10
BRANCH   5  12
ATOM     12  O   UNL     1      42.600  28.699  85.339  0.00  0.00    +0.000 OA
ATOM     13  H   UNL     1      43.047  29.243  84.659  0.00  0.00    +0.000 HD
ENDBRANCH   5  12
BRANCH   6  14
ATOM     14  O   UNL     1      45.393  28.935  86.139  0.00  0.00    +0.000 OA
ATOM     15  H   UNL     1      44.628  29.242  86.658  0.00  0.00    +0.000 HD
ENDBRANCH   6  14
ENDBRANCH   1   3
BRANCH   1  17
ATOM     16  O   UNL     1      42.212  24.568  81.257  0.00  0.00    +0.000 OA
ATOM     17  N   UNL     1      42.149  23.952  83.444  0.00  0.00    +0.000 N 
ATOM     18  C   UNL     1      41.552  24.172  82.216  0.00  0.00    +0.000 C 
ATOM     19  H   UNL     1      41.571  23.718  84.246  0.00  0.00    +0.000 HD
BRANCH  18  22
ATOM     20  N   UNL     1      39.681  22.514  82.199  0.00  0.00    +0.000 NA
ATOM     21  C   UNL     1      38.619  23.294  84.094  0.00  0.00    +0.000 C 
ATOM     22  C   UNL     1      40.027  23.948  82.218  0.00  0.00    +0.000 C 
ATOM     23  C   UNL     1      39.370  24.487  83.496  0.00  0.00    +0.000 C 
ATOM     24  C   UNL     1      38.398  22.390  82.887  0.00  0.00    +0.000 C 
ATOM     25  C   UNL     1      39.656  21.948  80.858  0.00  0.00    +0.000 C 
BRANCH  21  26
ATOM     26  C   UNL     1      37.317  23.654  84.811  0.00  0.00    +0.000 C 
BRANCH  26  27
ATOM     27  C   UNL     1      36.098  23.558  83.891  0.00  0.00    +0.000 C 
ATOM     28  C   UNL     1      35.014  22.680  84.495  0.00  0.00    +0.000 C 
ENDBRANCH  26  27
ENDBRANCH  21  26
ENDBRANCH  18  22
ENDBRANCH   1  17
BRANCH   1  30
ATOM     29 CL   UNL     1      45.917  22.589  83.509  0.00  0.00    +0.000 Cl
ATOM     30  C   UNL     1      44.216  22.728  84.081  0.00  0.00    +0.000 C 
ATOM     31  C   UNL     1      44.198  22.534  85.597  0.00  0.00    +0.000 C 
ENDBRANCH   1  30
TORSDOF 10
ENDMDL
MODEL 3
REMARK VINA RESULT:      -5.4      2.116      2.656
REMARK  Name = 
REMARK  14 active torsions:
REMARK  status: ('A' for Active; 'I' for Inactive)
REMARK    1  A    between atoms: S_2  and  C_21
REMARK    2  A    between atoms: S_2  and  C_27
REMARK    3  A    between atoms: O_4  and  C_16
REMARK    4  A    between atoms: O_5  and  C_18
REMARK    5  A    between atoms: O_6  and  C_20
REMARK    6  A    between atoms: N_8  and  C_23
REMARK    7  A    between atoms: N_9  and  C_15
REMARK    8  A    between atoms: C_10  and  C_17
REMARK    9  A    between atoms: C_11  and  C_19
REMARK   10  A    between atoms: C_14  and  C_15
REMARK   11  A    between atoms: C_15  and  C_22
REMARK   12  A    between atoms: C_17  and  C_24
REMARK   13  A    between atoms: C_22  and  C_25
REMARK   14  A    between atoms: C_24  and  C_26
REMARK                            x       y       z     vdW  Elec       q    Type
REMARK                         _______ _______ _______ _____ _____    ______ ____
ROOT
ATOM      1  C   UNL     1      60.545  35.463  74.211  0.00  0.00    +0.000 C 
ENDROOT
BRANCH   1   3
ATOM      2  O   UNL     1      59.633  36.570  76.160  0.00  0.00    +0.000 OA
ATOM      3  C   UNL     1      59.401  36.377  74.749  0.00  0.00    +0.000 C 
ATOM      4  C   UNL     1      59.300  37.732  74.016  0.00  0.00    +0.000 C 
ATOM      5  C   UNL     1      58.237  38.623  74.671  0.00  0.00    +0.000 C 
ATOM      6  C   UNL     1      58.519  38.774  76.172  0.00  0.00    +0.000 C 
ATOM      7  C   UNL     1      58.674  37.389  76.834  0.00  0.00    +0.000 C 
BRANCH   7   8
ATOM      8  S   UNL     1      57.064  36.520  77.044  0.00  0.00    +0.000 S 
ATOM      9  C   UNL     1      57.480  35.532  78.500  0.00  0.00    +0.000 C 
ENDBRANCH   7   8
BRANCH   4  10
ATOM     10  O   UNL     1      60.545  38.449  74.056  0.00  0.00    +0.000 OA
ATOM     11  H   UNL     1      61.034  38.119  74.847  0.00  0.00    +0.000 HD
ENDBRANCH   4  10
BRANCH   5  12
ATOM     12  O   UNL     1      58.243  39.904  74.024  0.00  0.00    +0.000 OA
ATOM     13  H   UNL     1      58.407  40.551  74.739  0.00  0.00    +0.000 HD
ENDBRANCH   5  12
BRANCH   6  14
ATOM     14  O   UNL     1      57.516  39.564  76.826  0.00  0.00    +0.000 OA
ATOM     15  H   UNL     1      56.714  39.014  76.888  0.00  0.00    +0.000 HD
ENDBRANCH   6  14
ENDBRANCH   1   3
BRANCH   1  17
ATOM     16  O   UNL     1      60.605  35.551  71.397  0.00  0.00    +0.000 OA
ATOM     17  N   UNL     1      60.045  34.428  73.292  0.00  0.00    +0.000 N 
ATOM     18  C   UNL     1      60.147  34.535  71.917  0.00  0.00    +0.000 C 
ATOM     19  H   UNL     1      59.577  33.623  73.697  0.00  0.00    +0.000 HD
BRANCH  18  22
ATOM     20  N   UNL     1      59.938  33.351  69.725  0.00  0.00    +0.000 NA
ATOM     21  C   UNL     1      60.757  31.317  70.445  0.00  0.00    +0.000 C 
ATOM     22  C   UNL     1      59.575  33.323  71.155  0.00  0.00    +0.000 C 
ATOM     23  C   UNL     1      60.148  31.997  71.674  0.00  0.00    +0.000 C 
ATOM     24  C   UNL     1      59.999  31.958  69.289  0.00  0.00    +0.000 C 
ATOM     25  C   UNL     1      59.030  34.153  68.919  0.00  0.00    +0.000 C 
BRANCH  21  26
ATOM     26  C   UNL     1      60.656  29.790  70.446  0.00  0.00    +0.000 C 
BRANCH  26  27
ATOM     27  C   UNL     1      61.979  29.118  70.072  0.00  0.00    +0.000 C 
ATOM     28  C   UNL     1      63.151  29.758  70.798  0.00  0.00    +0.000 C 
ENDBRANCH  26  27
ENDBRANCH  21  26
ENDBRANCH  18  22
ENDBRANCH   1  17
BRANCH   1  30
ATOM     29 CL   UNL     1      61.578  33.051  75.091  0.00  0.00    +0.000 Cl
ATOM     30  C   UNL     1      61.365  34.818  75.362  0.00  0.00    +0.000 C 
ATOM     31  C   UNL     1      62.746  35.455  75.507  0.00  0.00    +0.000 C 
ENDBRANCH   1  30
TORSDOF 10
ENDMDL
MODEL 4
REMARK VINA RESULT:      -5.2      4.787      7.666
REMARK  Name = 
REMARK  14 active torsions:
REMARK  status: ('A' for Active; 'I' for Inactive)
REMARK    1  A    between atoms: S_2  and  C_21
REMARK    2  A    between atoms: S_2  and  C_27
REMARK    3  A    between atoms: O_4  and  C_16
REMARK    4  A    between atoms: O_5  and  C_18
REMARK    5  A    between atoms: O_6  and  C_20
REMARK    6  A    between atoms: N_8  and  C_23
REMARK    7  A    between atoms: N_9  and  C_15
REMARK    8  A    between atoms: C_10  and  C_17
REMARK    9  A    between atoms: C_11  and  C_19
REMARK   10  A    between atoms: C_14  and  C_15
REMARK   11  A    between atoms: C_15  and  C_22
REMARK   12  A    between atoms: C_17  and  C_24
REMARK   13  A    between atoms: C_22  and  C_25
REMARK   14  A    between atoms: C_24  and  C_26
REMARK                            x       y       z     vdW  Elec       q    Type
REMARK                         _______ _______ _______ _____ _____    ______ ____
ROOT
ATOM      1  C   UNL     1      56.422  39.127  71.477  0.00  0.00    +0.000 C 
ENDROOT
BRANCH   1   3
ATOM      2  O   UNL     1      56.005  37.202  70.072  0.00  0.00    +0.000 OA
ATOM      3  C   UNL     1      55.562  38.555  70.309  0.00  0.00    +0.000 C 
ATOM      4  C   UNL     1      54.043  38.599  70.583  0.00  0.00    +0.000 C 
ATOM      5  C   UNL     1      53.269  37.916  69.448  0.00  0.00    +0.000 C 
ATOM      6  C   UNL     1      53.797  36.492  69.225  0.00  0.00    +0.000 C 
ATOM      7  C   UNL     1      55.326  36.508  69.022  0.00  0.00    +0.000 C 
BRANCH   7   8
ATOM      8  S   UNL     1      55.813  37.139  67.362  0.00  0.00    +0.000 S 
ATOM      9  C   UNL     1      57.598  36.875  67.488  0.00  0.00    +0.000 C 
ENDBRANCH   7   8
BRANCH   4  10
ATOM     10  O   UNL     1      53.706  37.917  71.803  0.00  0.00    +0.000 OA
ATOM     11  H   UNL     1      54.559  37.645  72.217  0.00  0.00    +0.000 HD
ENDBRANCH   4  10
BRANCH   5  12
ATOM     12  O   UNL     1      51.875  37.892  69.788  0.00  0.00    +0.000 OA
ATOM     13  H   UNL     1      51.519  37.091  69.353  0.00  0.00    +0.000 HD
ENDBRANCH   5  12
BRANCH   6  14
ATOM     14  O   UNL     1      53.125  35.840  68.137  0.00  0.00    +0.000 OA
ATOM     15  H   UNL     1      53.792  35.310  67.665  0.00  0.00    +0.000 HD
ENDBRANCH   6  14
ENDBRANCH   1   3
BRANCH   1  17
ATOM     16  O   UNL     1      58.583  37.630  72.485  0.00  0.00    +0.000 OA
ATOM     17  N   UNL     1      56.404  38.255  72.662  0.00  0.00    +0.000 N 
ATOM     18  C   UNL     1      57.525  37.581  73.111  0.00  0.00    +0.000 C 
ATOM     19  H   UNL     1      55.518  38.124  73.139  0.00  0.00    +0.000 HD
BRANCH  18  22
ATOM     20  N   UNL     1      58.322  36.966  75.400  0.00  0.00    +0.000 NA
ATOM     21  C   UNL     1      56.370  37.495  76.510  0.00  0.00    +0.000 C 
ATOM     22  C   UNL     1      57.278  36.742  74.380  0.00  0.00    +0.000 C 
ATOM     23  C   UNL     1      55.968  37.131  75.079  0.00  0.00    +0.000 C 
ATOM     24  C   UNL     1      57.686  36.749  76.696  0.00  0.00    +0.000 C 
ATOM     25  C   UNL     1      59.500  36.133  75.206  0.00  0.00    +0.000 C 
BRANCH  21  26
ATOM     26  C   UNL     1      55.331  37.139  77.575  0.00  0.00    +0.000 C 
BRANCH  26  27
ATOM     27  C   UNL     1      55.900  36.226  78.663  0.00  0.00    +0.000 C 
ATOM     28  C   UNL     1      55.309  34.827  78.578  0.00  0.00    +0.000 C 
ENDBRANCH  26  27
ENDBRANCH  21  26
ENDBRANCH  18  22
ENDBRANCH   1  17
BRANCH   1  30
ATOM     29 CL   UNL     1      55.596  40.684  73.612  0.00  0.00    +0.000 Cl
ATOM     30  C   UNL     1      55.996  40.572  71.860  0.00  0.00    +0.000 C 
ATOM     31  C   UNL     1      57.089  41.592  71.547  0.00  0.00    +0.000 C 
ENDBRANCH   1  30
TORSDOF 10
ENDMDL
MODEL 5
REMARK VINA RESULT:      -5.2      3.721      7.625
REMARK  Name = 
REMARK  14 active torsions:
REMARK  status: ('A' for Active; 'I' for Inactive)
REMARK    1  A    between atoms: S_2  and  C_21
REMARK    2  A    between atoms: S_2  and  C_27
REMARK    3  A    between atoms: O_4  and  C_16
REMARK    4  A    between atoms: O_5  and  C_18
REMARK    5  A    between atoms: O_6  and  C_20
REMARK    6  A    between atoms: N_8  and  C_23
REMARK    7  A    between atoms: N_9  and  C_15
REMARK    8  A    between atoms: C_10  and  C_17
REMARK    9  A    between atoms: C_11  and  C_19
REMARK   10  A    between atoms: C_14  and  C_15
REMARK   11  A    between atoms: C_15  and  C_22
REMARK   12  A    between atoms: C_17  and  C_24
REMARK   13  A    between atoms: C_22  and  C_25
REMARK   14  A    between atoms: C_24  and  C_26
REMARK                            x       y       z     vdW  Elec       q    Type
REMARK                         _______ _______ _______ _____ _____    ______ ____
ROOT
ATOM      1  C   UNL     1      60.166  33.205  73.000  0.00  0.00    +0.000 C 
ENDROOT
BRANCH   1   3
ATOM      2  O   UNL     1      61.334  32.308  71.080  0.00  0.00    +0.000 OA
ATOM      3  C   UNL     1      61.219  33.499  71.887  0.00  0.00    +0.000 C 
ATOM      4  C   UNL     1      60.869  34.725  71.016  0.00  0.00    +0.000 C 
ATOM      5  C   UNL     1      61.881  34.884  69.875  0.00  0.00    +0.000 C 
ATOM      6  C   UNL     1      61.980  33.583  69.066  0.00  0.00    +0.000 C 
ATOM      7  C   UNL     1      62.266  32.388  69.998  0.00  0.00    +0.000 C 
BRANCH   7   8
ATOM      8  S   UNL     1      64.008  32.357  70.596  0.00  0.00    +0.000 S 
ATOM      9  C   UNL     1      63.907  30.884  71.640  0.00  0.00    +0.000 C 
ENDBRANCH   7   8
BRANCH   4  10
ATOM     10  O   UNL     1      59.567  34.596  70.421  0.00  0.00    +0.000 OA
ATOM     11  H   UNL     1      59.710  34.498  69.450  0.00  0.00    +0.000 HD
ENDBRANCH   4  10
BRANCH   5  12
ATOM     12  O   UNL     1      61.465  35.972  69.036  0.00  0.00    +0.000 OA
ATOM     13  H   UNL     1      61.584  36.775  69.580  0.00  0.00    +0.000 HD
ENDBRANCH   5  12
BRANCH   6  14
ATOM     14  O   UNL     1      62.954  33.682  68.016  0.00  0.00    +0.000 OA
ATOM     15  H   UNL     1      63.247  32.776  67.812  0.00  0.00    +0.000 HD
ENDBRANCH   6  14
ENDBRANCH   1   3
BRANCH   1  17
ATOM     16  O   UNL     1      57.564  34.223  72.649  0.00  0.00    +0.000 OA
ATOM     17  N   UNL     1      59.621  34.438  73.592  0.00  0.00    +0.000 N 
ATOM     18  C   UNL     1      58.315  34.847  73.396  0.00  0.00    +0.000 C 
ATOM     19  H   UNL     1      60.252  35.019  74.135  0.00  0.00    +0.000 HD
BRANCH  18  22
ATOM     20  N   UNL     1      57.049  37.002  73.332  0.00  0.00    +0.000 NA
ATOM     21  C   UNL     1      55.897  36.691  75.307  0.00  0.00    +0.000 C 
ATOM     22  C   UNL     1      57.959  36.157  74.128  0.00  0.00    +0.000 C 
ATOM     23  C   UNL     1      57.198  35.894  75.435  0.00  0.00    +0.000 C 
ATOM     24  C   UNL     1      56.254  37.767  74.289  0.00  0.00    +0.000 C 
ATOM     25  C   UNL     1      57.744  37.850  72.375  0.00  0.00    +0.000 C 
BRANCH  21  26
ATOM     26  C   UNL     1      55.372  37.269  76.622  0.00  0.00    +0.000 C 
BRANCH  26  27
ATOM     27  C   UNL     1      55.383  36.244  77.758  0.00  0.00    +0.000 C 
ATOM     28  C   UNL     1      56.194  36.739  78.945  0.00  0.00    +0.000 C 
ENDBRANCH  26  27
ENDBRANCH  21  26
ENDBRANCH  18  22
ENDBRANCH   1  17
BRANCH   1  30
ATOM     29 CL   UNL     1      60.724  30.556  73.575  0.00  0.00    +0.000 Cl
ATOM     30  C   UNL     1      60.734  32.276  74.108  0.00  0.00    +0.000 C 
ATOM     31  C   UNL     1      62.162  32.654  74.495  0.00  0.00    +0.000 C 
ENDBRANCH   1  30
TORSDOF 10
ENDMDL
MODEL 6
REMARK VINA RESULT:      -4.8      5.749      8.172
REMARK  Name = 
REMARK  14 active torsions:
REMARK  status: ('A' for Active; 'I' for Inactive)
REMARK    1  A    between atoms: S_2  and  C_21
REMARK    2  A    between atoms: S_2  and  C_27
REMARK    3  A    between atoms: O_4  and  C_16
REMARK    4  A    between atoms: O_5  and  C_18
REMARK    5  A    between atoms: O_6  and  C_20
REMARK    6  A    between atoms: N_8  and  C_23
REMARK    7  A    between atoms: N_9  and  C_15
REMARK    8  A    between atoms: C_10  and  C_17
REMARK    9  A    between atoms: C_11  and  C_19
REMARK   10  A    between atoms: C_14  and  C_15
REMARK   11  A    between atoms: C_15  and  C_22
REMARK   12  A    between atoms: C_17  and  C_24
REMARK   13  A    between atoms: C_22  and  C_25
REMARK   14  A    between atoms: C_24  and  C_26
REMARK                            x       y       z     vdW  Elec       q    Type
REMARK                         _______ _______ _______ _____ _____    ______ ____
ROOT
ATOM      1  C   UNL     1      55.453  39.807  71.636  0.00  0.00    +0.000 C 
ENDROOT
BRANCH   1   3
ATOM      2  O   UNL     1      54.210  40.059  69.575  0.00  0.00    +0.000 OA
ATOM      3  C   UNL     1      54.112  39.499  70.902  0.00  0.00    +0.000 C 
ATOM      4  C   UNL     1      53.774  37.994  70.843  0.00  0.00    +0.000 C 
ATOM      5  C   UNL     1      52.509  37.756  70.009  0.00  0.00    +0.000 C 
ATOM      6  C   UNL     1      52.659  38.391  68.620  0.00  0.00    +0.000 C 
ATOM      7  C   UNL     1      53.059  39.876  68.746  0.00  0.00    +0.000 C 
BRANCH   7   8
ATOM      8  S   UNL     1      51.658  40.945  69.278  0.00  0.00    +0.000 S 
ATOM      9  C   UNL     1      52.540  42.522  69.361  0.00  0.00    +0.000 C 
ENDBRANCH   7   8
BRANCH   4  10
ATOM     10  O   UNL     1      54.836  37.237  70.237  0.00  0.00    +0.000 OA
ATOM     11  H   UNL     1      54.576  37.093  69.296  0.00  0.00    +0.000 HD
ENDBRANCH   4  10
BRANCH   5  12
ATOM     12  O   UNL     1      52.286  36.343  69.897  0.00  0.00    +0.000 OA
ATOM     13  H   UNL     1      52.952  35.931  70.485  0.00  0.00    +0.000 HD
ENDBRANCH   5  12
BRANCH   6  14
ATOM     14  O   UNL     1      51.473  38.228  67.828  0.00  0.00    +0.000 OA
ATOM     15  H   UNL     1      51.658  37.527  67.178  0.00  0.00    +0.000 HD
ENDBRANCH   6  14
ENDBRANCH   1   3
BRANCH   1  17
ATOM     16  O   UNL     1      57.826  38.504  72.412  0.00  0.00    +0.000 OA
ATOM     17  N   UNL     1      55.640  38.969  72.831  0.00  0.00    +0.000 N 
ATOM     18  C   UNL     1      56.854  38.393  73.158  0.00  0.00    +0.000 C 
ATOM     19  H   UNL     1      54.827  38.785  73.411  0.00  0.00    +0.000 HD
BRANCH  18  22
ATOM     20  N   UNL     1      58.017  36.720  74.608  0.00  0.00    +0.000 NA
ATOM     21  C   UNL     1      58.043  38.005  76.525  0.00  0.00    +0.000 C 
ATOM     22  C   UNL     1      56.821  37.573  74.463  0.00  0.00    +0.000 C 
ATOM     23  C   UNL     1      56.837  38.474  75.707  0.00  0.00    +0.000 C 
ATOM     24  C   UNL     1      58.247  36.574  76.043  0.00  0.00    +0.000 C 
ATOM     25  C   UNL     1      57.893  35.441  73.926  0.00  0.00    +0.000 C 
BRANCH  21  26
ATOM     26  C   UNL     1      57.861  38.099  78.040  0.00  0.00    +0.000 C 
BRANCH  26  27
ATOM     27  C   UNL     1      58.110  36.763  78.743  0.00  0.00    +0.000 C 
ATOM     28  C   UNL     1      57.026  36.463  79.766  0.00  0.00    +0.000 C 
ENDBRANCH  26  27
ENDBRANCH  21  26
ENDBRANCH  18  22
ENDBRANCH   1  17
BRANCH   1  30
ATOM     29 CL   UNL     1      55.477  41.554  73.783  0.00  0.00    +0.000 Cl
ATOM     30  C   UNL     1      55.584  41.311  72.002  0.00  0.00    +0.000 C 
ATOM     31  C   UNL     1      56.903  41.906  71.512  0.00  0.00    +0.000 C 
ENDBRANCH   1  30
TORSDOF 10
ENDMDL
MODEL 7
REMARK VINA RESULT:      -4.7     11.374     13.417
REMARK  Name = 
REMARK  14 active torsions:
REMARK  status: ('A' for Active; 'I' for Inactive)
REMARK    1  A    between atoms: S_2  and  C_21
REMARK    2  A    between atoms: S_2  and  C_27
REMARK    3  A    between atoms: O_4  and  C_16
REMARK    4  A    between atoms: O_5  and  C_18
REMARK    5  A    between atoms: O_6  and  C_20
REMARK    6  A    between atoms: N_8  and  C_23
REMARK    7  A    between atoms: N_9  and  C_15
REMARK    8  A    between atoms: C_10  and  C_17
REMARK    9  A    between atoms: C_11  and  C_19
REMARK   10  A    between atoms: C_14  and  C_15
REMARK   11  A    between atoms: C_15  and  C_22
REMARK   12  A    between atoms: C_17  and  C_24
REMARK   13  A    between atoms: C_22  and  C_25
REMARK   14  A    between atoms: C_24  and  C_26
REMARK                            x       y       z     vdW  Elec       q    Type
REMARK                         _______ _______ _______ _____ _____    ______ ____
ROOT
ATOM      1  C   UNL     1      58.491  35.077  87.983  0.00  0.00    +0.000 C 
ENDROOT
BRANCH   1   3
ATOM      2  O   UNL     1      57.220  37.061  87.431  0.00  0.00    +0.000 OA
ATOM      3  C   UNL     1      57.643  35.792  86.887  0.00  0.00    +0.000 C 
ATOM      4  C   UNL     1      58.397  35.986  85.554  0.00  0.00    +0.000 C 
ATOM      5  C   UNL     1      57.549  36.797  84.566  0.00  0.00    +0.000 C 
ATOM      6  C   UNL     1      57.108  38.122  85.204  0.00  0.00    +0.000 C 
ATOM      7  C   UNL     1      56.420  37.865  86.560  0.00  0.00    +0.000 C 
BRANCH   7   8
ATOM      8  S   UNL     1      54.719  37.185  86.375  0.00  0.00    +0.000 S 
ATOM      9  C   UNL     1      54.195  37.297  88.102  0.00  0.00    +0.000 C 
ENDBRANCH   7   8
BRANCH   4  10
ATOM     10  O   UNL     1      59.631  36.698  85.744  0.00  0.00    +0.000 OA
ATOM     11  H   UNL     1      59.444  37.417  86.394  0.00  0.00    +0.000 HD
ENDBRANCH   4  10
BRANCH   5  12
ATOM     12  O   UNL     1      58.322  37.038  83.381  0.00  0.00    +0.000 OA
ATOM     13  H   UNL     1      58.885  36.245  83.277  0.00  0.00    +0.000 HD
ENDBRANCH   5  12
BRANCH   6  14
ATOM     14  O   UNL     1      56.272  38.885  84.321  0.00  0.00    +0.000 OA
ATOM     15  H   UNL     1      56.761  38.992  83.486  0.00  0.00    +0.000 HD
ENDBRANCH   6  14
ENDBRANCH   1   3
BRANCH   1  17
ATOM     16  O   UNL     1      61.275  35.424  88.222  0.00  0.00    +0.000 OA
ATOM     17  N   UNL     1      59.533  34.212  87.406  0.00  0.00    +0.000 N 
ATOM     18  C   UNL     1      60.883  34.435  87.604  0.00  0.00    +0.000 C 
ATOM     19  H   UNL     1      59.234  33.445  86.813  0.00  0.00    +0.000 HD
BRANCH  18  22
ATOM     20  N   UNL     1      63.207  33.565  87.299  0.00  0.00    +0.000 NA
ATOM     21  C   UNL     1      62.756  31.386  87.909  0.00  0.00    +0.000 C 
ATOM     22  C   UNL     1      61.791  33.392  86.923  0.00  0.00    +0.000 C 
ATOM     23  C   UNL     1      61.448  31.961  87.359  0.00  0.00    +0.000 C 
ATOM     24  C   UNL     1      63.818  32.240  87.228  0.00  0.00    +0.000 C 
ATOM     25  C   UNL     1      63.901  34.548  86.480  0.00  0.00    +0.000 C 
BRANCH  21  26
ATOM     26  C   UNL     1      62.949  29.890  87.660  0.00  0.00    +0.000 C 
BRANCH  26  27
ATOM     27  C   UNL     1      61.623  29.127  87.625  0.00  0.00    +0.000 C 
ATOM     28  C   UNL     1      61.835  27.659  87.291  0.00  0.00    +0.000 C 
ENDBRANCH  26  27
ENDBRANCH  21  26
ENDBRANCH  18  22
ENDBRANCH   1  17
BRANCH   1  30
ATOM     29 CL   UNL     1      55.957  34.008  88.295  0.00  0.00    +0.000 Cl
ATOM     30  C   UNL     1      57.604  34.272  88.972  0.00  0.00    +0.000 C 
ATOM     31  C   UNL     1      58.212  32.911  89.309  0.00  0.00    +0.000 C 
ENDBRANCH   1  30
TORSDOF 10
ENDMDL
MODEL 8
REMARK VINA RESULT:      -4.7     18.860     20.993
REMARK  Name = 
REMARK  14 active torsions:
REMARK  status: ('A' for Active; 'I' for Inactive)
REMARK    1  A    between atoms: S_2  and  C_21
REMARK    2  A    between atoms: S_2  and  C_27
REMARK    3  A    between atoms: O_4  and  C_16
REMARK    4  A    between atoms: O_5  and  C_18
REMARK    5  A    between atoms: O_6  and  C_20
REMARK    6  A    between atoms: N_8  and  C_23
REMARK    7  A    between atoms: N_9  and  C_15
REMARK    8  A    between atoms: C_10  and  C_17
REMARK    9  A    between atoms: C_11  and  C_19
REMARK   10  A    between atoms: C_14  and  C_15
REMARK   11  A    between atoms: C_15  and  C_22
REMARK   12  A    between atoms: C_17  and  C_24
REMARK   13  A    between atoms: C_22  and  C_25
REMARK   14  A    between atoms: C_24  and  C_26
REMARK                            x       y       z     vdW  Elec       q    Type
REMARK                         _______ _______ _______ _____ _____    ______ ____
ROOT
ATOM      1  C   UNL     1      43.515  26.412  85.937  0.00  0.00    +0.000 C 
ENDROOT
BRANCH   1   3
ATOM      2  O   UNL     1      41.353  25.592  85.223  0.00  0.00    +0.000 OA
ATOM      3  C   UNL     1      42.768  25.343  85.082  0.00  0.00    +0.000 C 
ATOM      4  C   UNL     1      43.184  25.342  83.596  0.00  0.00    +0.000 C 
ATOM      5  C   UNL     1      42.330  24.351  82.796  0.00  0.00    +0.000 C 
ATOM      6  C   UNL     1      40.838  24.647  83.000  0.00  0.00    +0.000 C 
ATOM      7  C   UNL     1      40.499  24.698  84.504  0.00  0.00    +0.000 C 
BRANCH   7   8
ATOM      8  S   UNL     1      40.455  23.028  85.277  0.00  0.00    +0.000 S 
ATOM      9  C   UNL     1      38.670  22.900  85.540  0.00  0.00    +0.000 C 
ENDBRANCH   7   8
BRANCH   4  10
ATOM     10  O   UNL     1      43.011  26.638  82.998  0.00  0.00    +0.000 OA
ATOM     11  H   UNL     1      43.558  26.644  82.177  0.00  0.00    +0.000 HD
ENDBRANCH   4  10
BRANCH   5  12
ATOM     12  O   UNL     1      42.681  24.453  81.408  0.00  0.00    +0.000 OA
ATOM     13  H   UNL     1      43.268  23.690  81.235  0.00  0.00    +0.000 HD
ENDBRANCH   5  12
BRANCH   6  14
ATOM     14  O   UNL     1      40.008  23.708  82.301  0.00  0.00    +0.000 OA
ATOM     15  H   UNL     1      40.136  23.866  81.349  0.00  0.00    +0.000 HD
ENDBRANCH   6  14
ENDBRANCH   1   3
BRANCH   1  17
ATOM     16  O   UNL     1      45.638  28.131  85.252  0.00  0.00    +0.000 OA
ATOM     17  N   UNL     1      44.952  26.121  86.064  0.00  0.00    +0.000 N 
ATOM     18  C   UNL     1      45.933  27.039  85.737  0.00  0.00    +0.000 C 
ATOM     19  H   UNL     1      45.220  25.192  86.373  0.00  0.00    +0.000 HD
BRANCH  18  22
ATOM     20  N   UNL     1      47.516  25.886  87.291  0.00  0.00    +0.000 NA
ATOM     21  C   UNL     1      48.168  24.230  85.822  0.00  0.00    +0.000 C 
ATOM     22  C   UNL     1      47.367  26.525  85.969  0.00  0.00    +0.000 C 
ATOM     23  C   UNL     1      47.752  25.429  84.965  0.00  0.00    +0.000 C 
ATOM     24  C   UNL     1      48.561  24.876  87.146  0.00  0.00    +0.000 C 
ATOM     25  C   UNL     1      47.797  26.836  88.357  0.00  0.00    +0.000 C 
BRANCH  21  26
ATOM     26  C   UNL     1      49.288  23.377  85.225  0.00  0.00    +0.000 C 
BRANCH  26  27
ATOM     27  C   UNL     1      48.754  22.252  84.335  0.00  0.00    +0.000 C 
ATOM     28  C   UNL     1      49.820  21.202  84.068  0.00  0.00    +0.000 C 
ENDBRANCH  26  27
ENDBRANCH  21  26
ENDBRANCH  18  22
ENDBRANCH   1  17
BRANCH   1  30
ATOM     29 CL   UNL     1      44.026  26.134  88.643  0.00  0.00    +0.000 Cl
ATOM     30  C   UNL     1      42.871  26.590  87.340  0.00  0.00    +0.000 C 
ATOM     31  C   UNL     1      42.412  28.027  87.581  0.00  0.00    +0.000 C 
ENDBRANCH   1  30
TORSDOF 10
ENDMDL
MODEL 9
REMARK VINA RESULT:      -4.7     10.653     14.214
REMARK  Name = 
REMARK  14 active torsions:
REMARK  status: ('A' for Active; 'I' for Inactive)
REMARK    1  A    between atoms: S_2  and  C_21
REMARK    2  A    between atoms: S_2  and  C_27
REMARK    3  A    between atoms: O_4  and  C_16
REMARK    4  A    between atoms: O_5  and  C_18
REMARK    5  A    between atoms: O_6  and  C_20
REMARK    6  A    between atoms: N_8  and  C_23
REMARK    7  A    between atoms: N_9  and  C_15
REMARK    8  A    between atoms: C_10  and  C_17
REMARK    9  A    between atoms: C_11  and  C_19
REMARK   10  A    between atoms: C_14  and  C_15
REMARK   11  A    between atoms: C_15  and  C_22
REMARK   12  A    between atoms: C_17  and  C_24
REMARK   13  A    between atoms: C_22  and  C_25
REMARK   14  A    between atoms: C_24  and  C_26
REMARK                            x       y       z     vdW  Elec       q    Type
REMARK                         _______ _______ _______ _____ _____    ______ ____
ROOT
ATOM      1  C   UNL     1      56.298  37.087  85.245  0.00  0.00    +0.000 C 
ENDROOT
BRANCH   1   3
ATOM      2  O   UNL     1      55.021  39.115  85.583  0.00  0.00    +0.000 OA
ATOM      3  C   UNL     1      56.360  38.644  85.322  0.00  0.00    +0.000 C 
ATOM      4  C   UNL     1      57.349  39.169  86.385  0.00  0.00    +0.000 C 
ATOM      5  C   UNL     1      57.271  40.697  86.486  0.00  0.00    +0.000 C 
ATOM      6  C   UNL     1      55.825  41.143  86.741  0.00  0.00    +0.000 C 
ATOM      7  C   UNL     1      54.879  40.534  85.685  0.00  0.00    +0.000 C 
BRANCH   7   8
ATOM      8  S   UNL     1      55.029  41.353  84.043  0.00  0.00    +0.000 S 
ATOM      9  C   UNL     1      53.426  42.190  84.013  0.00  0.00    +0.000 C 
ENDBRANCH   7   8
BRANCH   4  10
ATOM     10  O   UNL     1      57.055  38.637  87.688  0.00  0.00    +0.000 OA
ATOM     11  H   UNL     1      57.886  38.216  88.013  0.00  0.00    +0.000 HD
ENDBRANCH   4  10
BRANCH   5  12
ATOM     12  O   UNL     1      58.130  41.135  87.549  0.00  0.00    +0.000 OA
ATOM     13  H   UNL     1      57.763  40.728  88.360  0.00  0.00    +0.000 HD
ENDBRANCH   5  12
BRANCH   6  14
ATOM     14  O   UNL     1      55.709  42.572  86.794  0.00  0.00    +0.000 OA
ATOM     15  H   UNL     1      55.066  42.781  87.496  0.00  0.00    +0.000 HD
ENDBRANCH   6  14
ENDBRANCH   1   3
BRANCH   1  17
ATOM     16  O   UNL     1      53.831  35.926  85.947  0.00  0.00    +0.000 OA
ATOM     17  N   UNL     1      55.955  36.478  86.540  0.00  0.00    +0.000 N 
ATOM     18  C   UNL     1      54.726  35.895  86.790  0.00  0.00    +0.000 C 
ATOM     19  H   UNL     1      56.646  36.526  87.282  0.00  0.00    +0.000 HD
BRANCH  18  22
ATOM     20  N   UNL     1      53.327  35.692  88.852  0.00  0.00    +0.000 NA
ATOM     21  C   UNL     1      53.268  33.386  88.905  0.00  0.00    +0.000 C 
ATOM     22  C   UNL     1      54.597  35.303  88.207  0.00  0.00    +0.000 C 
ATOM     23  C   UNL     1      54.565  33.769  88.187  0.00  0.00    +0.000 C 
ATOM     24  C   UNL     1      52.982  34.609  89.768  0.00  0.00    +0.000 C 
ATOM     25  C   UNL     1      53.394  36.987  89.513  0.00  0.00    +0.000 C 
BRANCH  21  26
ATOM     26  C   UNL     1      53.347  32.092  89.718  0.00  0.00    +0.000 C 
BRANCH  26  27
ATOM     27  C   UNL     1      54.790  31.652  89.977  0.00  0.00    +0.000 C 
ATOM     28  C   UNL     1      55.038  30.240  89.472  0.00  0.00    +0.000 C 
ENDBRANCH  26  27
ENDBRANCH  21  26
ENDBRANCH  18  22
ENDBRANCH   1  17
BRANCH   1  30
ATOM     29 CL   UNL     1      57.967  34.889  85.461  0.00  0.00    +0.000 Cl
ATOM     30  C   UNL     1      57.616  36.478  84.691  0.00  0.00    +0.000 C 
ATOM     31  C   UNL     1      57.563  36.281  83.177  0.00  0.00    +0.000 C 
ENDBRANCH   1  30
TORSDOF 10
ENDMDL
