MODEL 1
REMARK VINA RESULT:      -6.5      0.000      0.000
REMARK  Name = 
REMARK  5 active torsions:
REMARK  status: ('A' for Active; 'I' for Inactive)
REMARK    1  A    between atoms: O_5  and  C_10
REMARK    2  A    between atoms: N_9  and  C_20
REMARK    3  A    between atoms: N_9  and  C_25
REMARK    4  A    between atoms: C_10  and  C_11
REMARK    5  A    between atoms: C_18  and  C_19
REMARK                            x       y       z     vdW  Elec       q    Type
REMARK                         _______ _______ _______ _____ _____    ______ ____
ROOT
ATOM      1  F   UNL     1      62.180  32.406  75.346  0.00  0.00    +0.000 F 
ATOM      2  F   UNL     1      62.032  29.957  74.221  0.00  0.00    +0.000 F 
ATOM      3  C   UNL     1      59.730  33.010  72.723  0.00  0.00    +0.000 A 
ATOM      4  C   UNL     1      60.575  33.286  73.821  0.00  0.00    +0.000 A 
ATOM      5  C   UNL     1      59.670  31.736  72.133  0.00  0.00    +0.000 A 
ATOM      6  C   UNL     1      61.341  32.221  74.315  0.00  0.00    +0.000 A 
ATOM      7  C   UNL     1      60.453  30.704  72.645  0.00  0.00    +0.000 A 
ATOM      8  C   UNL     1      61.282  30.955  73.731  0.00  0.00    +0.000 A 
ENDROOT
BRANCH   3  14
ATOM      9  O   UNL     1      57.695  34.136  72.530  0.00  0.00    +0.000 OA
ATOM     10  N   UNL     1      59.444  34.939  71.267  0.00  0.00    +0.000 N 
ATOM     11  C   UNL     1      59.480  35.154  69.192  0.00  0.00    +0.000 C 
ATOM     12  C   UNL     1      60.472  34.637  70.273  0.00  0.00    +0.000 C 
ATOM     13  C   UNL     1      58.713  35.829  70.368  0.00  0.00    +0.000 C 
ATOM     14  C   UNL     1      58.870  34.085  72.183  0.00  0.00    +0.000 C 
BRANCH  11  16
ATOM     15  N   UNL     1      58.194  34.622  67.139  0.00  0.00    +0.000 NA
ATOM     16  C   UNL     1      58.622  34.089  68.459  0.00  0.00    +0.000 C 
ATOM     17  C   UNL     1      59.404  32.781  68.246  0.00  0.00    +0.000 C 
ATOM     18  C   UNL     1      58.555  31.751  67.500  0.00  0.00    +0.000 C 
ATOM     19  C   UNL     1      57.278  33.674  66.488  0.00  0.00    +0.000 C 
ATOM     20  C   UNL     1      57.968  32.338  66.221  0.00  0.00    +0.000 C 
ATOM     21  H   UNL     1      59.024  34.690  66.545  0.00  0.00    +0.000 HD
ENDBRANCH  11  16
BRANCH  11  22
ATOM     22  O   UNL     1      60.055  36.084  68.228  0.00  0.00    +0.000 OA
ATOM     23  H   UNL     1      59.504  35.946  67.434  0.00  0.00    +0.000 HD
ENDBRANCH  11  22
ENDBRANCH   3  14
BRANCH   4  24
ATOM     24  N   UNL     1      60.556  34.564  74.421  0.00  0.00    +0.000 N 
ATOM     25  H   UNL     1      59.643  34.818  74.817  0.00  0.00    +0.000 HD
BRANCH  24  28
ATOM     26  I   UNL     1      65.069  38.547  76.284  0.00  0.00    +0.000 I 
ATOM     27  F   UNL     1      61.161  34.960  77.063  0.00  0.00    +0.000 F 
ATOM     28  C   UNL     1      61.580  35.459  74.783  0.00  0.00    +0.000 A 
ATOM     29  C   UNL     1      61.858  35.654  76.148  0.00  0.00    +0.000 A 
ATOM     30  C   UNL     1      62.329  36.198  73.863  0.00  0.00    +0.000 A 
ATOM     31  C   UNL     1      62.845  36.529  76.592  0.00  0.00    +0.000 A 
ATOM     32  C   UNL     1      63.326  37.085  74.293  0.00  0.00    +0.000 A 
ATOM     33  C   UNL     1      63.581  37.244  75.654  0.00  0.00    +0.000 A 
ENDBRANCH  24  28
ENDBRANCH   4  24
TORSDOF 5
ENDMDL
MODEL 2
REMARK VINA RESULT:      -6.2     21.500     23.528
REMARK  Name = 
REMARK  5 active torsions:
REMARK  status: ('A' for Active; 'I' for Inactive)
REMARK    1  A    between atoms: O_5  and  C_10
REMARK    2  A    between atoms: N_9  and  C_20
REMARK    3  A    between atoms: N_9  and  C_25
REMARK    4  A    between atoms: C_10  and  C_11
REMARK    5  A    between atoms: C_18  and  C_19
REMARK                            x       y       z     vdW  Elec       q    Type
REMARK                         _______ _______ _______ _____ _____    ______ ____
ROOT
ATOM      1  F   UNL     1      47.850  23.908  83.483  0.00  0.00    +0.000 F 
ATOM      2  F   UNL     1      49.773  24.180  85.359  0.00  0.00    +0.000 F 
ATOM      3  C   UNL     1      46.441  26.576  85.517  0.00  0.00    +0.000 A 
ATOM      4  C   UNL     1      46.538  25.634  84.469  0.00  0.00    +0.000 A 
ATOM      5  C   UNL     1      47.439  26.702  86.499  0.00  0.00    +0.000 A 
ATOM      6  C   UNL     1      47.691  24.837  84.437  0.00  0.00    +0.000 A 
ATOM      7  C   UNL     1      48.567  25.887  86.441  0.00  0.00    +0.000 A 
ATOM      8  C   UNL     1      48.683  24.961  85.411  0.00  0.00    +0.000 A 
ENDROOT
BRANCH   3  14
ATOM      9  O   UNL     1      45.351  28.599  85.109  0.00  0.00    +0.000 OA
ATOM     10  N   UNL     1      44.150  26.985  86.227  0.00  0.00    +0.000 N 
ATOM     11  C   UNL     1      43.272  27.174  88.111  0.00  0.00    +0.000 C 
ATOM     12  C   UNL     1      44.094  26.079  87.372  0.00  0.00    +0.000 C 
ATOM     13  C   UNL     1      43.030  27.795  86.702  0.00  0.00    +0.000 C 
ATOM     14  C   UNL     1      45.265  27.470  85.581  0.00  0.00    +0.000 C 
BRANCH  11  16
ATOM     15  N   UNL     1      43.476  29.492  88.967  0.00  0.00    +0.000 NA
ATOM     16  C   UNL     1      44.056  28.128  89.050  0.00  0.00    +0.000 C 
ATOM     17  C   UNL     1      44.009  27.646  90.511  0.00  0.00    +0.000 C 
ATOM     18  C   UNL     1      44.763  28.609  91.429  0.00  0.00    +0.000 C 
ATOM     19  C   UNL     1      44.285  30.432  89.755  0.00  0.00    +0.000 C 
ATOM     20  C   UNL     1      44.292  30.046  91.233  0.00  0.00    +0.000 C 
ATOM     21  H   UNL     1      42.548  29.465  89.398  0.00  0.00    +0.000 HD
ENDBRANCH  11  16
BRANCH  11  22
ATOM     22  O   UNL     1      42.069  26.691  88.778  0.00  0.00    +0.000 OA
ATOM     23  H   UNL     1      42.258  26.860  89.720  0.00  0.00    +0.000 HD
ENDBRANCH  11  22
ENDBRANCH   3  14
BRANCH   4  24
ATOM     24  N   UNL     1      45.541  25.587  83.470  0.00  0.00    +0.000 N 
ATOM     25  H   UNL     1      45.815  26.049  82.595  0.00  0.00    +0.000 HD
BRANCH  24  28
ATOM     26  I   UNL     1      40.078  22.492  82.952  0.00  0.00    +0.000 I 
ATOM     27  F   UNL     1      43.155  26.880  83.099  0.00  0.00    +0.000 F 
ATOM     28  C   UNL     1      44.350  24.847  83.351  0.00  0.00    +0.000 A 
ATOM     29  C   UNL     1      43.138  25.539  83.177  0.00  0.00    +0.000 A 
ATOM     30  C   UNL     1      44.289  23.453  83.425  0.00  0.00    +0.000 A 
ATOM     31  C   UNL     1      41.914  24.885  83.064  0.00  0.00    +0.000 A 
ATOM     32  C   UNL     1      43.065  22.778  83.314  0.00  0.00    +0.000 A 
ATOM     33  C   UNL     1      41.885  23.497  83.132  0.00  0.00    +0.000 A 
ENDBRANCH  24  28
ENDBRANCH   4  24
TORSDOF 5
ENDMDL
MODEL 3
REMARK VINA RESULT:      -6.2     16.972     19.794
REMARK  Name = 
REMARK  5 active torsions:
REMARK  status: ('A' for Active; 'I' for Inactive)
REMARK    1  A    between atoms: O_5  and  C_10
REMARK    2  A    between atoms: N_9  and  C_20
REMARK    3  A    between atoms: N_9  and  C_25
REMARK    4  A    between atoms: C_10  and  C_11
REMARK    5  A    between atoms: C_18  and  C_19
REMARK                            x       y       z     vdW  Elec       q    Type
REMARK                         _______ _______ _______ _____ _____    ______ ____
ROOT
ATOM      1  F   UNL     1      52.979  20.257  74.885  0.00  0.00    +0.000 F 
ATOM      2  F   UNL     1      53.164  22.938  75.137  0.00  0.00    +0.000 F 
ATOM      3  C   UNL     1      52.734  20.619  78.498  0.00  0.00    +0.000 A 
ATOM      4  C   UNL     1      52.776  19.974  77.242  0.00  0.00    +0.000 A 
ATOM      5  C   UNL     1      52.846  22.014  78.622  0.00  0.00    +0.000 A 
ATOM      6  C   UNL     1      52.915  20.794  76.113  0.00  0.00    +0.000 A 
ATOM      7  C   UNL     1      52.992  22.796  77.479  0.00  0.00    +0.000 A 
ATOM      8  C   UNL     1      53.026  22.180  76.234  0.00  0.00    +0.000 A 
ENDROOT
BRANCH   3  14
ATOM      9  O   UNL     1      53.525  19.244  80.210  0.00  0.00    +0.000 OA
ATOM     10  N   UNL     1      51.268  19.697  80.207  0.00  0.00    +0.000 N 
ATOM     11  C   UNL     1      49.722  18.296  80.129  0.00  0.00    +0.000 C 
ATOM     12  C   UNL     1      50.017  19.664  79.451  0.00  0.00    +0.000 C 
ATOM     13  C   UNL     1      50.813  18.694  81.169  0.00  0.00    +0.000 C 
ATOM     14  C   UNL     1      52.552  19.809  79.722  0.00  0.00    +0.000 C 
BRANCH  11  16
ATOM     15  N   UNL     1      49.362  15.855  79.883  0.00  0.00    +0.000 NA
ATOM     16  C   UNL     1      50.102  17.020  79.333  0.00  0.00    +0.000 C 
ATOM     17  C   UNL     1      49.772  17.168  77.837  0.00  0.00    +0.000 C 
ATOM     18  C   UNL     1      50.127  15.894  77.070  0.00  0.00    +0.000 C 
ATOM     19  C   UNL     1      49.805  14.620  79.221  0.00  0.00    +0.000 C 
ATOM     20  C   UNL     1      49.509  14.663  77.723  0.00  0.00    +0.000 C 
ATOM     21  H   UNL     1      48.372  15.977  79.655  0.00  0.00    +0.000 HD
ENDBRANCH  11  16
BRANCH  11  22
ATOM     22  O   UNL     1      48.379  18.162  80.679  0.00  0.00    +0.000 OA
ATOM     23  H   UNL     1      47.823  18.075  79.882  0.00  0.00    +0.000 HD
ENDBRANCH  11  22
ENDBRANCH   3  14
BRANCH   4  24
ATOM     24  N   UNL     1      52.597  18.576  77.161  0.00  0.00    +0.000 N 
ATOM     25  H   UNL     1      51.611  18.289  77.152  0.00  0.00    +0.000 HD
BRANCH  24  28
ATOM     26  I   UNL     1      56.429  13.820  75.615  0.00  0.00    +0.000 I 
ATOM     27  F   UNL     1      52.619  17.469  74.656  0.00  0.00    +0.000 F 
ATOM     28  C   UNL     1      53.479  17.521  76.865  0.00  0.00    +0.000 A 
ATOM     29  C   UNL     1      53.457  16.961  75.575  0.00  0.00    +0.000 A 
ATOM     30  C   UNL     1      54.367  16.966  77.791  0.00  0.00    +0.000 A 
ATOM     31  C   UNL     1      54.287  15.907  75.203  0.00  0.00    +0.000 A 
ATOM     32  C   UNL     1      55.210  15.904  77.434  0.00  0.00    +0.000 A 
ATOM     33  C   UNL     1      55.168  15.382  76.142  0.00  0.00    +0.000 A 
ENDBRANCH  24  28
ENDBRANCH   4  24
TORSDOF 5
ENDMDL
MODEL 4
REMARK VINA RESULT:      -6.1     16.079     19.394
REMARK  Name = 
REMARK  5 active torsions:
REMARK  status: ('A' for Active; 'I' for Inactive)
REMARK    1  A    between atoms: O_5  and  C_10
REMARK    2  A    between atoms: N_9  and  C_20
REMARK    3  A    between atoms: N_9  and  C_25
REMARK    4  A    between atoms: C_10  and  C_11
REMARK    5  A    between atoms: C_18  and  C_19
REMARK                            x       y       z     vdW  Elec       q    Type
REMARK                         _______ _______ _______ _____ _____    ______ ____
ROOT
ATOM      1  F   UNL     1      53.045  21.109  74.665  0.00  0.00    +0.000 F 
ATOM      2  F   UNL     1      53.795  23.571  75.482  0.00  0.00    +0.000 F 
ATOM      3  C   UNL     1      52.353  20.883  78.231  0.00  0.00    +0.000 A 
ATOM      4  C   UNL     1      52.434  20.479  76.879  0.00  0.00    +0.000 A 
ATOM      5  C   UNL     1      52.759  22.161  78.650  0.00  0.00    +0.000 A 
ATOM      6  C   UNL     1      52.922  21.422  75.964  0.00  0.00    +0.000 A 
ATOM      7  C   UNL     1      53.248  23.069  77.714  0.00  0.00    +0.000 A 
ATOM      8  C   UNL     1      53.326  22.692  76.379  0.00  0.00    +0.000 A 
ENDROOT
BRANCH   3  14
ATOM      9  O   UNL     1      50.693  20.150  79.699  0.00  0.00    +0.000 OA
ATOM     10  N   UNL     1      52.634  18.913  79.631  0.00  0.00    +0.000 N 
ATOM     11  C   UNL     1      53.897  18.498  81.240  0.00  0.00    +0.000 C 
ATOM     12  C   UNL     1      54.090  18.919  79.755  0.00  0.00    +0.000 C 
ATOM     13  C   UNL     1      52.449  18.096  80.829  0.00  0.00    +0.000 C 
ATOM     14  C   UNL     1      51.810  19.943  79.236  0.00  0.00    +0.000 C 
BRANCH  11  16
ATOM     15  N   UNL     1      53.469  19.092  83.609  0.00  0.00    +0.000 NA
ATOM     16  C   UNL     1      53.919  19.631  82.300  0.00  0.00    +0.000 C 
ATOM     17  C   UNL     1      55.327  20.232  82.457  0.00  0.00    +0.000 C 
ATOM     18  C   UNL     1      55.339  21.328  83.523  0.00  0.00    +0.000 C 
ATOM     19  C   UNL     1      53.365  20.180  84.592  0.00  0.00    +0.000 C 
ATOM     20  C   UNL     1      54.724  20.838  84.829  0.00  0.00    +0.000 C 
ATOM     21  H   UNL     1      54.192  18.452  83.949  0.00  0.00    +0.000 HD
ENDBRANCH  11  16
BRANCH  11  22
ATOM     22  O   UNL     1      54.736  17.388  81.676  0.00  0.00    +0.000 OA
ATOM     23  H   UNL     1      54.675  16.761  80.931  0.00  0.00    +0.000 HD
ENDBRANCH  11  22
ENDBRANCH   3  14
BRANCH   4  24
ATOM     24  N   UNL     1      51.955  19.208  76.495  0.00  0.00    +0.000 N 
ATOM     25  H   UNL     1      50.933  19.163  76.409  0.00  0.00    +0.000 HD
BRANCH  24  28
ATOM     26  I   UNL     1      54.613  13.984  74.180  0.00  0.00    +0.000 I 
ATOM     27  F   UNL     1      50.510  17.288  75.180  0.00  0.00    +0.000 F 
ATOM     28  C   UNL     1      52.600  18.063  75.989  0.00  0.00    +0.000 A 
ATOM     29  C   UNL     1      51.829  17.087  75.332  0.00  0.00    +0.000 A 
ATOM     30  C   UNL     1      53.969  17.817  76.124  0.00  0.00    +0.000 A 
ATOM     31  C   UNL     1      52.385  15.920  74.814  0.00  0.00    +0.000 A 
ATOM     32  C   UNL     1      54.545  16.648  75.609  0.00  0.00    +0.000 A 
ATOM     33  C   UNL     1      53.751  15.707  74.954  0.00  0.00    +0.000 A 
ENDBRANCH  24  28
ENDBRANCH   4  24
TORSDOF 5
ENDMDL
MODEL 5
REMARK VINA RESULT:      -6.1     46.114     47.846
REMARK  Name = 
REMARK  5 active torsions:
REMARK  status: ('A' for Active; 'I' for Inactive)
REMARK    1  A    between atoms: O_5  and  C_10
REMARK    2  A    between atoms: N_9  and  C_20
REMARK    3  A    between atoms: N_9  and  C_25
REMARK    4  A    between atoms: C_10  and  C_11
REMARK    5  A    between atoms: C_18  and  C_19
REMARK                            x       y       z     vdW  Elec       q    Type
REMARK                         _______ _______ _______ _____ _____    ______ ____
ROOT
ATOM      1  F   UNL     1      23.983  10.082  88.714  0.00  0.00    +0.000 F 
ATOM      2  F   UNL     1      25.999  10.628  90.424  0.00  0.00    +0.000 F 
ATOM      3  C   UNL     1      26.477   7.670  87.616  0.00  0.00    +0.000 A 
ATOM      4  C   UNL     1      25.249   8.366  87.651  0.00  0.00    +0.000 A 
ATOM      5  C   UNL     1      27.528   7.970  88.501  0.00  0.00    +0.000 A 
ATOM      6  C   UNL     1      25.113   9.364  88.627  0.00  0.00    +0.000 A 
ATOM      7  C   UNL     1      27.361   8.974  89.450  0.00  0.00    +0.000 A 
ATOM      8  C   UNL     1      26.156   9.663  89.505  0.00  0.00    +0.000 A 
ENDROOT
BRANCH   3  14
ATOM      9  O   UNL     1      26.978   6.868  85.483  0.00  0.00    +0.000 OA
ATOM     10  N   UNL     1      26.417   5.299  87.071  0.00  0.00    +0.000 N 
ATOM     11  C   UNL     1      24.854   3.920  86.956  0.00  0.00    +0.000 C 
ATOM     12  C   UNL     1      25.431   4.857  88.056  0.00  0.00    +0.000 C 
ATOM     13  C   UNL     1      26.204   4.138  86.209  0.00  0.00    +0.000 C 
ATOM     14  C   UNL     1      26.665   6.581  86.633  0.00  0.00    +0.000 C 
BRANCH  11  16
ATOM     15  N   UNL     1      23.173   3.397  85.209  0.00  0.00    +0.000 NA
ATOM     16  C   UNL     1      23.639   4.450  86.149  0.00  0.00    +0.000 C 
ATOM     17  C   UNL     1      22.477   4.852  87.074  0.00  0.00    +0.000 C 
ATOM     18  C   UNL     1      21.278   5.346  86.264  0.00  0.00    +0.000 C 
ATOM     19  C   UNL     1      22.104   3.927  84.351  0.00  0.00    +0.000 C 
ATOM     20  C   UNL     1      20.891   4.346  85.180  0.00  0.00    +0.000 C 
ATOM     21  H   UNL     1      22.763   2.642  85.764  0.00  0.00    +0.000 HD
ENDBRANCH  11  16
BRANCH  11  22
ATOM     22  O   UNL     1      24.611   2.549  87.385  0.00  0.00    +0.000 OA
ATOM     23  H   UNL     1      24.400   2.649  88.333  0.00  0.00    +0.000 HD
ENDBRANCH  11  22
ENDBRANCH   3  14
BRANCH   4  24
ATOM     24  N   UNL     1      24.200   7.987  86.786  0.00  0.00    +0.000 N 
ATOM     25  H   UNL     1      23.888   7.019  86.918  0.00  0.00    +0.000 HD
BRANCH  24  28
ATOM     26  I   UNL     1      20.200  11.242  83.164  0.00  0.00    +0.000 I 
ATOM     27  F   UNL     1      21.616   8.491  87.543  0.00  0.00    +0.000 F 
ATOM     28  C   UNL     1      23.350   8.728  85.943  0.00  0.00    +0.000 A 
ATOM     29  C   UNL     1      22.023   8.957  86.351  0.00  0.00    +0.000 A 
ATOM     30  C   UNL     1      23.735   9.231  84.697  0.00  0.00    +0.000 A 
ATOM     31  C   UNL     1      21.114   9.668  85.573  0.00  0.00    +0.000 A 
ATOM     32  C   UNL     1      22.832   9.948  83.900  0.00  0.00    +0.000 A 
ATOM     33  C   UNL     1      21.528  10.165  84.342  0.00  0.00    +0.000 A 
ENDBRANCH  24  28
ENDBRANCH   4  24
TORSDOF 5
ENDMDL
MODEL 6
REMARK VINA RESULT:      -5.5     45.739     47.196
REMARK  Name = 
REMARK  5 active torsions:
REMARK  status: ('A' for Active; 'I' for Inactive)
REMARK    1  A    between atoms: O_5  and  C_10
REMARK    2  A    between atoms: N_9  and  C_20
REMARK    3  A    between atoms: N_9  and  C_25
REMARK    4  A    between atoms: C_10  and  C_11
REMARK    5  A    between atoms: C_18  and  C_19
REMARK                            x       y       z     vdW  Elec       q    Type
REMARK                         _______ _______ _______ _____ _____    ______ ____
ROOT
ATOM      1  F   UNL     1      23.774   5.994  86.792  0.00  0.00    +0.000 F 
ATOM      2  F   UNL     1      21.210   5.190  86.533  0.00  0.00    +0.000 F 
ATOM      3  C   UNL     1      22.151   9.150  85.989  0.00  0.00    +0.000 A 
ATOM      4  C   UNL     1      23.194   8.253  86.311  0.00  0.00    +0.000 A 
ATOM      5  C   UNL     1      20.821   8.722  85.841  0.00  0.00    +0.000 A 
ATOM      6  C   UNL     1      22.839   6.910  86.499  0.00  0.00    +0.000 A 
ATOM      7  C   UNL     1      20.507   7.378  86.026  0.00  0.00    +0.000 A 
ATOM      8  C   UNL     1      21.519   6.483  86.353  0.00  0.00    +0.000 A 
ENDROOT
BRANCH   3  14
ATOM      9  O   UNL     1      22.533  11.302  86.809  0.00  0.00    +0.000 OA
ATOM     10  N   UNL     1      22.591  11.042  84.522  0.00  0.00    +0.000 N 
ATOM     11  C   UNL     1      21.406  12.048  83.129  0.00  0.00    +0.000 C 
ATOM     12  C   UNL     1      21.885  10.582  83.328  0.00  0.00    +0.000 C 
ATOM     13  C   UNL     1      22.548  12.444  84.113  0.00  0.00    +0.000 C 
ATOM     14  C   UNL     1      22.459  10.587  85.815  0.00  0.00    +0.000 C 
BRANCH  11  16
ATOM     15  N   UNL     1      19.836  13.885  83.687  0.00  0.00    +0.000 NA
ATOM     16  C   UNL     1      20.000  12.409  83.679  0.00  0.00    +0.000 C 
ATOM     17  C   UNL     1      18.882  11.780  82.828  0.00  0.00    +0.000 C 
ATOM     18  C   UNL     1      17.503  12.165  83.365  0.00  0.00    +0.000 C 
ATOM     19  C   UNL     1      18.560  14.246  84.320  0.00  0.00    +0.000 C 
ATOM     20  C   UNL     1      17.378  13.675  83.538  0.00  0.00    +0.000 C 
ATOM     21  H   UNL     1      19.785  14.200  82.715  0.00  0.00    +0.000 HD
ENDBRANCH  11  16
BRANCH  11  22
ATOM     22  O   UNL     1      21.562  12.565  81.776  0.00  0.00    +0.000 OA
ATOM     23  H   UNL     1      21.610  13.530  81.914  0.00  0.00    +0.000 HD
ENDBRANCH  11  22
ENDBRANCH   3  14
BRANCH   4  24
ATOM     24  N   UNL     1      24.504   8.740  86.511  0.00  0.00    +0.000 N 
ATOM     25  H   UNL     1      24.828   9.366  85.765  0.00  0.00    +0.000 HD
BRANCH  24  28
ATOM     26  I   UNL     1      28.450   8.446  91.415  0.00  0.00    +0.000 I 
ATOM     27  F   UNL     1      26.534   6.906  86.650  0.00  0.00    +0.000 F 
ATOM     28  C   UNL     1      25.364   8.723  87.626  0.00  0.00    +0.000 A 
ATOM     29  C   UNL     1      26.388   7.759  87.677  0.00  0.00    +0.000 A 
ATOM     30  C   UNL     1      25.247   9.594  88.713  0.00  0.00    +0.000 A 
ATOM     31  C   UNL     1      27.272   7.665  88.748  0.00  0.00    +0.000 A 
ATOM     32  C   UNL     1      26.128   9.512  89.799  0.00  0.00    +0.000 A 
ATOM     33  C   UNL     1      27.138   8.551  89.810  0.00  0.00    +0.000 A 
ENDBRANCH  24  28
ENDBRANCH   4  24
TORSDOF 5
ENDMDL
MODEL 7
REMARK VINA RESULT:      -5.5     21.464     23.030
REMARK  Name = 
REMARK  5 active torsions:
REMARK  status: ('A' for Active; 'I' for Inactive)
REMARK    1  A    between atoms: O_5  and  C_10
REMARK    2  A    between atoms: N_9  and  C_20
REMARK    3  A    between atoms: N_9  and  C_25
REMARK    4  A    between atoms: C_10  and  C_11
REMARK    5  A    between atoms: C_18  and  C_19
REMARK                            x       y       z     vdW  Elec       q    Type
REMARK                         _______ _______ _______ _____ _____    ______ ____
ROOT
ATOM      1  F   UNL     1      46.605  27.640  90.319  0.00  0.00    +0.000 F 
ATOM      2  F   UNL     1      45.762  30.163  90.782  0.00  0.00    +0.000 F 
ATOM      3  C   UNL     1      43.479  27.666  88.455  0.00  0.00    +0.000 A 
ATOM      4  C   UNL     1      44.690  27.166  88.984  0.00  0.00    +0.000 A 
ATOM      5  C   UNL     1      43.040  28.976  88.713  0.00  0.00    +0.000 A 
ATOM      6  C   UNL     1      45.450  28.045  89.767  0.00  0.00    +0.000 A 
ATOM      7  C   UNL     1      43.817  29.818  89.503  0.00  0.00    +0.000 A 
ATOM      8  C   UNL     1      45.016  29.346  90.024  0.00  0.00    +0.000 A 
ENDROOT
BRANCH   3  14
ATOM      9  O   UNL     1      42.173  25.771  88.065  0.00  0.00    +0.000 OA
ATOM     10  N   UNL     1      42.520  27.175  86.273  0.00  0.00    +0.000 N 
ATOM     11  C   UNL     1      43.378  26.660  84.442  0.00  0.00    +0.000 C 
ATOM     12  C   UNL     1      43.498  27.857  85.428  0.00  0.00    +0.000 C 
ATOM     13  C   UNL     1      42.056  26.311  85.189  0.00  0.00    +0.000 C 
ATOM     14  C   UNL     1      42.653  26.796  87.590  0.00  0.00    +0.000 C 
BRANCH  11  16
ATOM     15  N   UNL     1      43.798  24.218  84.335  0.00  0.00    +0.000 NA
ATOM     16  C   UNL     1      44.442  25.536  84.567  0.00  0.00    +0.000 C 
ATOM     17  C   UNL     1      45.586  25.726  83.555  0.00  0.00    +0.000 C 
ATOM     18  C   UNL     1      46.612  24.598  83.671  0.00  0.00    +0.000 C 
ATOM     19  C   UNL     1      44.766  23.137  84.573  0.00  0.00    +0.000 C 
ATOM     20  C   UNL     1      45.943  23.230  83.603  0.00  0.00    +0.000 C 
ATOM     21  H   UNL     1      43.533  24.168  83.348  0.00  0.00    +0.000 HD
ENDBRANCH  11  16
BRANCH  11  22
ATOM     22  O   UNL     1      43.207  27.033  83.043  0.00  0.00    +0.000 OA
ATOM     23  H   UNL     1      42.991  26.184  82.614  0.00  0.00    +0.000 HD
ENDBRANCH  11  22
ENDBRANCH   3  14
BRANCH   4  24
ATOM     24  N   UNL     1      45.121  25.865  88.646  0.00  0.00    +0.000 N 
ATOM     25  H   UNL     1      44.365  25.170  88.640  0.00  0.00    +0.000 HD
BRANCH  24  28
ATOM     26  I   UNL     1      50.496  23.859  86.039  0.00  0.00    +0.000 I 
ATOM     27  F   UNL     1      46.493  27.345  86.794  0.00  0.00    +0.000 F 
ATOM     28  C   UNL     1      46.323  25.374  88.101  0.00  0.00    +0.000 A 
ATOM     29  C   UNL     1      46.997  26.149  87.140  0.00  0.00    +0.000 A 
ATOM     30  C   UNL     1      46.882  24.137  88.436  0.00  0.00    +0.000 A 
ATOM     31  C   UNL     1      48.183  25.733  86.543  0.00  0.00    +0.000 A 
ATOM     32  C   UNL     1      48.075  23.702  87.843  0.00  0.00    +0.000 A 
ATOM     33  C   UNL     1      48.721  24.502  86.902  0.00  0.00    +0.000 A 
ENDBRANCH  24  28
ENDBRANCH   4  24
TORSDOF 5
ENDMDL
MODEL 8
REMARK VINA RESULT:      -5.5     21.264     22.963
REMARK  Name = 
REMARK  5 active torsions:
REMARK  status: ('A' for Active; 'I' for Inactive)
REMARK    1  A    between atoms: O_5  and  C_10
REMARK    2  A    between atoms: N_9  and  C_20
REMARK    3  A    between atoms: N_9  and  C_25
REMARK    4  A    between atoms: C_10  and  C_11
REMARK    5  A    between atoms: C_18  and  C_19
REMARK                            x       y       z     vdW  Elec       q    Type
REMARK                         _______ _______ _______ _____ _____    ______ ____
ROOT
ATOM      1  F   UNL     1      46.526  20.598  84.215  0.00  0.00    +0.000 F 
ATOM      2  F   UNL     1      44.758  18.571  84.445  0.00  0.00    +0.000 F 
ATOM      3  C   UNL     1      43.404  22.337  83.526  0.00  0.00    +0.000 A 
ATOM      4  C   UNL     1      44.792  22.153  83.715  0.00  0.00    +0.000 A 
ATOM      5  C   UNL     1      42.492  21.274  83.633  0.00  0.00    +0.000 A 
ATOM      6  C   UNL     1      45.222  20.858  84.036  0.00  0.00    +0.000 A 
ATOM      7  C   UNL     1      42.956  19.999  83.944  0.00  0.00    +0.000 A 
ATOM      8  C   UNL     1      44.317  19.801  84.142  0.00  0.00    +0.000 A 
ENDROOT
BRANCH   3  14
ATOM      9  O   UNL     1      43.215  24.226  82.168  0.00  0.00    +0.000 OA
ATOM     10  N   UNL     1      42.106  24.287  84.185  0.00  0.00    +0.000 N 
ATOM     11  C   UNL     1      42.359  25.701  85.698  0.00  0.00    +0.000 C 
ATOM     12  C   UNL     1      42.205  24.155  85.637  0.00  0.00    +0.000 C 
ATOM     13  C   UNL     1      41.786  25.712  84.249  0.00  0.00    +0.000 C 
ATOM     14  C   UNL     1      42.888  23.690  83.222  0.00  0.00    +0.000 C 
BRANCH  11  16
ATOM     15  N   UNL     1      43.910  27.467  84.905  0.00  0.00    +0.000 NA
ATOM     16  C   UNL     1      43.805  26.261  85.766  0.00  0.00    +0.000 C 
ATOM     17  C   UNL     1      44.200  26.633  87.207  0.00  0.00    +0.000 C 
ATOM     18  C   UNL     1      45.616  27.208  87.255  0.00  0.00    +0.000 C 
ATOM     19  C   UNL     1      45.303  27.935  84.862  0.00  0.00    +0.000 C 
ATOM     20  C   UNL     1      45.789  28.342  86.251  0.00  0.00    +0.000 C 
ATOM     21  H   UNL     1      43.360  28.212  85.340  0.00  0.00    +0.000 HD
ENDBRANCH  11  16
BRANCH  11  22
ATOM     22  O   UNL     1      41.519  26.362  86.689  0.00  0.00    +0.000 OA
ATOM     23  H   UNL     1      41.682  27.309  86.519  0.00  0.00    +0.000 HD
ENDBRANCH  11  22
ENDBRANCH   3  14
BRANCH   4  24
ATOM     24  N   UNL     1      45.664  23.263  83.660  0.00  0.00    +0.000 N 
ATOM     25  H   UNL     1      45.526  23.851  82.830  0.00  0.00    +0.000 HD
BRANCH  24  28
ATOM     26  I   UNL     1      49.623  25.984  87.737  0.00  0.00    +0.000 I 
ATOM     27  F   UNL     1      47.509  25.132  82.883  0.00  0.00    +0.000 F 
ATOM     28  C   UNL     1      46.519  23.847  84.613  0.00  0.00    +0.000 A 
ATOM     29  C   UNL     1      47.467  24.792  84.182  0.00  0.00    +0.000 A 
ATOM     30  C   UNL     1      46.506  23.523  85.972  0.00  0.00    +0.000 A 
ATOM     31  C   UNL     1      48.359  25.408  85.056  0.00  0.00    +0.000 A 
ATOM     32  C   UNL     1      47.397  24.133  86.866  0.00  0.00    +0.000 A 
ATOM     33  C   UNL     1      48.317  25.074  86.405  0.00  0.00    +0.000 A 
ENDBRANCH  24  28
ENDBRANCH   4  24
TORSDOF 5
ENDMDL
MODEL 9
REMARK VINA RESULT:      -5.5      4.930      6.608
REMARK  Name = 
REMARK  5 active torsions:
REMARK  status: ('A' for Active; 'I' for Inactive)
REMARK    1  A    between atoms: O_5  and  C_10
REMARK    2  A    between atoms: N_9  and  C_20
REMARK    3  A    between atoms: N_9  and  C_25
REMARK    4  A    between atoms: C_10  and  C_11
REMARK    5  A    between atoms: C_18  and  C_19
REMARK                            x       y       z     vdW  Elec       q    Type
REMARK                         _______ _______ _______ _____ _____    ______ ____
ROOT
ATOM      1  F   UNL     1      64.236  31.926  72.990  0.00  0.00    +0.000 F 
ATOM      2  F   UNL     1      62.470  32.356  74.987  0.00  0.00    +0.000 F 
ATOM      3  C   UNL     1      61.230  30.448  71.568  0.00  0.00    +0.000 A 
ATOM      4  C   UNL     1      62.578  30.861  71.652  0.00  0.00    +0.000 A 
ATOM      5  C   UNL     1      60.320  30.662  72.618  0.00  0.00    +0.000 A 
ATOM      6  C   UNL     1      62.968  31.517  72.827  0.00  0.00    +0.000 A 
ATOM      7  C   UNL     1      60.746  31.309  73.775  0.00  0.00    +0.000 A 
ATOM      8  C   UNL     1      62.066  31.731  73.871  0.00  0.00    +0.000 A 
ENDROOT
BRANCH   3  14
ATOM      9  O   UNL     1      61.196  28.678  70.048  0.00  0.00    +0.000 OA
ATOM     10  N   UNL     1      59.862  30.489  69.556  0.00  0.00    +0.000 N 
ATOM     11  C   UNL     1      59.940  31.653  67.825  0.00  0.00    +0.000 C 
ATOM     12  C   UNL     1      59.794  31.934  69.348  0.00  0.00    +0.000 C 
ATOM     13  C   UNL     1      59.537  30.186  68.163  0.00  0.00    +0.000 C 
ATOM     14  C   UNL     1      60.751  29.784  70.337  0.00  0.00    +0.000 C 
BRANCH  11  16
ATOM     15  N   UNL     1      61.324  31.395  65.783  0.00  0.00    +0.000 NA
ATOM     16  C   UNL     1      61.368  31.750  67.225  0.00  0.00    +0.000 C 
ATOM     17  C   UNL     1      61.950  33.166  67.380  0.00  0.00    +0.000 C 
ATOM     18  C   UNL     1      63.346  33.255  66.762  0.00  0.00    +0.000 C 
ATOM     19  C   UNL     1      62.686  31.362  65.232  0.00  0.00    +0.000 C 
ATOM     20  C   UNL     1      63.351  32.734  65.328  0.00  0.00    +0.000 C 
ATOM     21  H   UNL     1      60.822  32.140  65.293  0.00  0.00    +0.000 HD
ENDBRANCH  11  16
BRANCH  11  22
ATOM     22  O   UNL     1      58.991  32.364  66.978  0.00  0.00    +0.000 OA
ATOM     23  H   UNL     1      58.887  33.220  67.435  0.00  0.00    +0.000 HD
ENDBRANCH  11  22
ENDBRANCH   3  14
BRANCH   4  24
ATOM     24  N   UNL     1      63.439  30.681  70.548  0.00  0.00    +0.000 N 
ATOM     25  H   UNL     1      63.426  31.465  69.885  0.00  0.00    +0.000 HD
BRANCH  24  28
ATOM     26  I   UNL     1      67.992  26.559  69.137  0.00  0.00    +0.000 I 
ATOM     27  F   UNL     1      64.140  30.100  67.964  0.00  0.00    +0.000 F 
ATOM     28  C   UNL     1      64.470  29.759  70.287  0.00  0.00    +0.000 A 
ATOM     29  C   UNL     1      64.797  29.469  68.950  0.00  0.00    +0.000 A 
ATOM     30  C   UNL     1      65.179  29.083  71.284  0.00  0.00    +0.000 A 
ATOM     31  C   UNL     1      65.794  28.560  68.606  0.00  0.00    +0.000 A 
ATOM     32  C   UNL     1      66.185  28.164  70.955  0.00  0.00    +0.000 A 
ATOM     33  C   UNL     1      66.490  27.909  69.618  0.00  0.00    +0.000 A 
ENDBRANCH  24  28
ENDBRANCH   4  24
TORSDOF 5
ENDMDL
