MODEL 1
REMARK VINA RESULT:      -8.1      0.000      0.000
REMARK  Name = COUMESTROL.pdbqt.pdb
REMARK  2 active torsions:
REMARK  status: ('A' for Active; 'I' for Inactive)
REMARK    1  A    between atoms: C_16  and  O_19
REMARK    2  A    between atoms: C_18  and  O_21
REMARK                            x       y       z     vdW  Elec       q    Type
REMARK                         _______ _______ _______ _____ _____    ______ ____
ROOT
ATOM      1  O   UNL     1      58.660  36.593  78.422  0.00  0.00    +0.000 OA
ATOM      2  O   UNL     1      55.675  36.064  75.684  0.00  0.00    +0.000 OA
ATOM      3  O   UNL     1      54.872  34.360  77.023  0.00  0.00    +0.000 OA
ATOM      4  C   UNL     1      56.805  35.492  77.746  0.00  0.00    +0.000 A 
ATOM      5  C   UNL     1      57.708  36.485  77.469  0.00  0.00    +0.000 A 
ATOM      6  C   UNL     1      57.218  34.925  78.977  0.00  0.00    +0.000 A 
ATOM      7  C   UNL     1      57.687  37.334  76.317  0.00  0.00    +0.000 A 
ATOM      8  C   UNL     1      58.363  35.635  79.353  0.00  0.00    +0.000 A 
ATOM      9  C   UNL     1      56.633  37.092  75.423  0.00  0.00    +0.000 A 
ATOM     10  C   UNL     1      55.713  35.230  76.836  0.00  0.00    +0.000 A 
ATOM     11  C   UNL     1      56.761  33.896  79.816  0.00  0.00    +0.000 A 
ATOM     12  C   UNL     1      58.610  38.337  76.047  0.00  0.00    +0.000 A 
ATOM     13  C   UNL     1      59.093  35.393  80.516  0.00  0.00    +0.000 A 
ATOM     14  C   UNL     1      56.482  37.836  74.260  0.00  0.00    +0.000 A 
ATOM     15  C   UNL     1      57.469  33.626  80.991  0.00  0.00    +0.000 A 
ATOM     16  C   UNL     1      58.604  34.363  81.322  0.00  0.00    +0.000 A 
ATOM     17  C   UNL     1      58.471  39.092  74.883  0.00  0.00    +0.000 A 
ATOM     18  C   UNL     1      57.414  38.836  74.005  0.00  0.00    +0.000 A 
ENDROOT
BRANCH  16  19
ATOM     19  O   UNL     1      59.249  34.044  82.488  0.00  0.00    +0.000 OA
ATOM     20  H   UNL     1      60.009  33.477  82.273  0.00  0.00    +0.000 HD
ENDBRANCH  16  19
BRANCH  18  21
ATOM     21  O   UNL     1      57.272  39.572  72.862  0.00  0.00    +0.000 OA
ATOM     22  H   UNL     1      57.356  40.515  73.091  0.00  0.00    +0.000 HD
ENDBRANCH  18  21
TORSDOF 2
ENDMDL
MODEL 2
REMARK VINA RESULT:      -7.5      1.326      6.193
REMARK  Name = COUMESTROL.pdbqt.pdb
REMARK  2 active torsions:
REMARK  status: ('A' for Active; 'I' for Inactive)
REMARK    1  A    between atoms: C_16  and  O_19
REMARK    2  A    between atoms: C_18  and  O_21
REMARK                            x       y       z     vdW  Elec       q    Type
REMARK                         _______ _______ _______ _____ _____    ______ ____
ROOT
ATOM      1  O   UNL     1      58.775  37.364  76.601  0.00  0.00    +0.000 OA
ATOM      2  O   UNL     1      55.266  35.586  77.700  0.00  0.00    +0.000 OA
ATOM      3  O   UNL     1      54.221  36.841  76.065  0.00  0.00    +0.000 OA
ATOM      4  C   UNL     1      56.545  37.116  76.329  0.00  0.00    +0.000 A 
ATOM      5  C   UNL     1      57.661  36.730  77.026  0.00  0.00    +0.000 A 
ATOM      6  C   UNL     1      56.990  38.073  75.384  0.00  0.00    +0.000 A 
ATOM      7  C   UNL     1      57.690  35.771  78.088  0.00  0.00    +0.000 A 
ATOM      8  C   UNL     1      58.368  38.192  75.590  0.00  0.00    +0.000 A 
ATOM      9  C   UNL     1      56.448  35.205  78.408  0.00  0.00    +0.000 A 
ATOM     10  C   UNL     1      55.257  36.542  76.647  0.00  0.00    +0.000 A 
ATOM     11  C   UNL     1      56.391  38.852  74.381  0.00  0.00    +0.000 A 
ATOM     12  C   UNL     1      58.829  35.389  78.786  0.00  0.00    +0.000 A 
ATOM     13  C   UNL     1      59.202  39.039  74.862  0.00  0.00    +0.000 A 
ATOM     14  C   UNL     1      56.320  34.259  79.418  0.00  0.00    +0.000 A 
ATOM     15  C   UNL     1      57.198  39.713  73.631  0.00  0.00    +0.000 A 
ATOM     16  C   UNL     1      58.567  39.796  73.874  0.00  0.00    +0.000 A 
ATOM     17  C   UNL     1      58.715  34.441  79.802  0.00  0.00    +0.000 A 
ATOM     18  C   UNL     1      57.469  33.887  80.107  0.00  0.00    +0.000 A 
ENDROOT
BRANCH  16  19
ATOM     19  O   UNL     1      59.297  40.660  73.102  0.00  0.00    +0.000 OA
ATOM     20  H   UNL     1      58.687  41.306  72.704  0.00  0.00    +0.000 HD
ENDBRANCH  16  19
BRANCH  18  21
ATOM     21  O   UNL     1      57.350  32.957  81.101  0.00  0.00    +0.000 OA
ATOM     22  H   UNL     1      58.045  32.286  80.980  0.00  0.00    +0.000 HD
ENDBRANCH  18  21
TORSDOF 2
ENDMDL
MODEL 3
REMARK VINA RESULT:      -7.2      1.831      2.334
REMARK  Name = COUMESTROL.pdbqt.pdb
REMARK  2 active torsions:
REMARK  status: ('A' for Active; 'I' for Inactive)
REMARK    1  A    between atoms: C_16  and  O_19
REMARK    2  A    between atoms: C_18  and  O_21
REMARK                            x       y       z     vdW  Elec       q    Type
REMARK                         _______ _______ _______ _____ _____    ______ ____
ROOT
ATOM      1  O   UNL     1      56.639  36.796  79.647  0.00  0.00    +0.000 OA
ATOM      2  O   UNL     1      58.523  36.279  76.060  0.00  0.00    +0.000 OA
ATOM      3  O   UNL     1      59.861  34.702  77.091  0.00  0.00    +0.000 OA
ATOM      4  C   UNL     1      58.221  35.764  78.405  0.00  0.00    +0.000 A 
ATOM      5  C   UNL     1      57.208  36.687  78.427  0.00  0.00    +0.000 A 
ATOM      6  C   UNL     1      58.301  35.246  79.721  0.00  0.00    +0.000 A 
ATOM      7  C   UNL     1      56.767  37.468  77.311  0.00  0.00    +0.000 A 
ATOM      8  C   UNL     1      57.308  35.911  80.448  0.00  0.00    +0.000 A 
ATOM      9  C   UNL     1      57.462  37.235  76.115  0.00  0.00    +0.000 A 
ATOM     10  C   UNL     1      58.946  35.512  77.180  0.00  0.00    +0.000 A 
ATOM     11  C   UNL     1      59.094  34.295  80.382  0.00  0.00    +0.000 A 
ATOM     12  C   UNL     1      55.738  38.401  77.346  0.00  0.00    +0.000 A 
ATOM     13  C   UNL     1      57.046  35.696  81.800  0.00  0.00    +0.000 A 
ATOM     14  C   UNL     1      57.146  37.919  74.947  0.00  0.00    +0.000 A 
ATOM     15  C   UNL     1      58.857  34.053  81.739  0.00  0.00    +0.000 A 
ATOM     16  C   UNL     1      57.856  34.742  82.420  0.00  0.00    +0.000 A 
ATOM     17  C   UNL     1      55.411  39.095  76.182  0.00  0.00    +0.000 A 
ATOM     18  C   UNL     1      56.114  38.849  74.999  0.00  0.00    +0.000 A 
ENDROOT
BRANCH  16  19
ATOM     19  O   UNL     1      57.680  34.456  83.748  0.00  0.00    +0.000 OA
ATOM     20  H   UNL     1      57.438  35.277  84.209  0.00  0.00    +0.000 HD
ENDBRANCH  16  19
BRANCH  18  21
ATOM     21  O   UNL     1      55.799  39.525  73.854  0.00  0.00    +0.000 OA
ATOM     22  H   UNL     1      56.517  40.152  73.660  0.00  0.00    +0.000 HD
ENDBRANCH  18  21
TORSDOF 2
ENDMDL
MODEL 4
REMARK VINA RESULT:      -7.1      1.728      6.508
REMARK  Name = COUMESTROL.pdbqt.pdb
REMARK  2 active torsions:
REMARK  status: ('A' for Active; 'I' for Inactive)
REMARK    1  A    between atoms: C_16  and  O_19
REMARK    2  A    between atoms: C_18  and  O_21
REMARK                            x       y       z     vdW  Elec       q    Type
REMARK                         _______ _______ _______ _____ _____    ______ ____
ROOT
ATOM      1  O   UNL     1      56.448  37.158  77.678  0.00  0.00    +0.000 OA
ATOM      2  O   UNL     1      59.540  34.756  78.843  0.00  0.00    +0.000 OA
ATOM      3  O   UNL     1      60.214  34.704  76.633  0.00  0.00    +0.000 OA
ATOM      4  C   UNL     1      58.291  35.959  77.155  0.00  0.00    +0.000 A 
ATOM      5  C   UNL     1      57.439  36.369  78.146  0.00  0.00    +0.000 A 
ATOM      6  C   UNL     1      57.798  36.535  75.958  0.00  0.00    +0.000 A 
ATOM      7  C   UNL     1      57.548  36.028  79.533  0.00  0.00    +0.000 A 
ATOM      8  C   UNL     1      56.664  37.263  76.331  0.00  0.00    +0.000 A 
ATOM      9  C   UNL     1      58.634  35.201  79.855  0.00  0.00    +0.000 A 
ATOM     10  C   UNL     1      59.415  35.106  77.470  0.00  0.00    +0.000 A 
ATOM     11  C   UNL     1      58.176  36.527  74.605  0.00  0.00    +0.000 A 
ATOM     12  C   UNL     1      56.677  36.451  80.529  0.00  0.00    +0.000 A 
ATOM     13  C   UNL     1      55.870  37.991  75.445  0.00  0.00    +0.000 A 
ATOM     14  C   UNL     1      58.868  34.787  81.160  0.00  0.00    +0.000 A 
ATOM     15  C   UNL     1      57.403  37.247  73.690  0.00  0.00    +0.000 A 
ATOM     16  C   UNL     1      56.280  37.957  74.111  0.00  0.00    +0.000 A 
ATOM     17  C   UNL     1      56.900  36.043  81.843  0.00  0.00    +0.000 A 
ATOM     18  C   UNL     1      57.988  35.219  82.146  0.00  0.00    +0.000 A 
ENDROOT
BRANCH  16  19
ATOM     19  O   UNL     1      55.569  38.640  73.160  0.00  0.00    +0.000 OA
ATOM     20  H   UNL     1      55.337  38.020  72.447  0.00  0.00    +0.000 HD
ENDBRANCH  16  19
BRANCH  18  21
ATOM     21  O   UNL     1      58.212  34.815  83.432  0.00  0.00    +0.000 OA
ATOM     22  H   UNL     1      59.074  35.165  83.718  0.00  0.00    +0.000 HD
ENDBRANCH  18  21
TORSDOF 2
ENDMDL
MODEL 5
REMARK VINA RESULT:      -6.8     55.284     58.035
REMARK  Name = COUMESTROL.pdbqt.pdb
REMARK  2 active torsions:
REMARK  status: ('A' for Active; 'I' for Inactive)
REMARK    1  A    between atoms: C_16  and  O_19
REMARK    2  A    between atoms: C_18  and  O_21
REMARK                            x       y       z     vdW  Elec       q    Type
REMARK                         _______ _______ _______ _____ _____    ______ ____
ROOT
ATOM      1  O   UNL     1      12.473   6.083  99.685  0.00  0.00    +0.000 OA
ATOM      2  O   UNL     1      14.091   3.983  96.578  0.00  0.00    +0.000 OA
ATOM      3  O   UNL     1      15.139   5.935  95.921  0.00  0.00    +0.000 OA
ATOM      4  C   UNL     1      13.781   6.022  97.843  0.00  0.00    +0.000 A 
ATOM      5  C   UNL     1      12.965   5.317  98.688  0.00  0.00    +0.000 A 
ATOM      6  C   UNL     1      13.809   7.346  98.347  0.00  0.00    +0.000 A 
ATOM      7  C   UNL     1      12.642   3.927  98.568  0.00  0.00    +0.000 A 
ATOM      8  C   UNL     1      12.990   7.334  99.480  0.00  0.00    +0.000 A 
ATOM      9  C   UNL     1      13.235   3.275  97.477  0.00  0.00    +0.000 A 
ATOM     10  C   UNL     1      14.400   5.365  96.714  0.00  0.00    +0.000 A 
ATOM     11  C   UNL     1      14.429   8.552  97.979  0.00  0.00    +0.000 A 
ATOM     12  C   UNL     1      11.813   3.223  99.432  0.00  0.00    +0.000 A 
ATOM     13  C   UNL     1      12.740   8.446 100.283  0.00  0.00    +0.000 A 
ATOM     14  C   UNL     1      13.014   1.925  97.231  0.00  0.00    +0.000 A 
ATOM     15  C   UNL     1      14.200   9.687  98.762  0.00  0.00    +0.000 A 
ATOM     16  C   UNL     1      13.375   9.624  99.883  0.00  0.00    +0.000 A 
ATOM     17  C   UNL     1      11.582   1.868  99.197  0.00  0.00    +0.000 A 
ATOM     18  C   UNL     1      12.181   1.234  98.105  0.00  0.00    +0.000 A 
ENDROOT
BRANCH  16  19
ATOM     19  O   UNL     1      13.196  10.775 100.604  0.00  0.00    +0.000 OA
ATOM     20  H   UNL     1      14.069  11.169 100.776  0.00  0.00    +0.000 HD
ENDBRANCH  16  19
BRANCH  18  21
ATOM     21  O   UNL     1      11.959  -0.093  97.869  0.00  0.00    +0.000 OA
ATOM     22  H   UNL     1      11.333  -0.173  97.128  0.00  0.00    +0.000 HD
ENDBRANCH  18  21
TORSDOF 2
ENDMDL
MODEL 6
REMARK VINA RESULT:      -6.4      5.678      7.126
REMARK  Name = COUMESTROL.pdbqt.pdb
REMARK  2 active torsions:
REMARK  status: ('A' for Active; 'I' for Inactive)
REMARK    1  A    between atoms: C_16  and  O_19
REMARK    2  A    between atoms: C_18  and  O_21
REMARK                            x       y       z     vdW  Elec       q    Type
REMARK                         _______ _______ _______ _____ _____    ______ ____
ROOT
ATOM      1  O   UNL     1      59.224  33.778  72.704  0.00  0.00    +0.000 OA
ATOM      2  O   UNL     1      61.220  34.546  76.184  0.00  0.00    +0.000 OA
ATOM      3  O   UNL     1      62.379  32.575  75.849  0.00  0.00    +0.000 OA
ATOM      4  C   UNL     1      60.772  33.179  74.238  0.00  0.00    +0.000 A 
ATOM      5  C   UNL     1      59.836  34.106  73.862  0.00  0.00    +0.000 A 
ATOM      6  C   UNL     1      60.750  32.178  73.235  0.00  0.00    +0.000 A 
ATOM      7  C   UNL     1      59.511  35.301  74.581  0.00  0.00    +0.000 A 
ATOM      8  C   UNL     1      59.783  32.591  72.313  0.00  0.00    +0.000 A 
ATOM      9  C   UNL     1      60.238  35.495  75.765  0.00  0.00    +0.000 A 
ATOM     10  C   UNL     1      61.529  33.364  75.455  0.00  0.00    +0.000 A 
ATOM     11  C   UNL     1      61.433  30.975  72.997  0.00  0.00    +0.000 A 
ATOM     12  C   UNL     1      58.559  36.234  74.188  0.00  0.00    +0.000 A 
ATOM     13  C   UNL     1      59.443  31.885  71.160  0.00  0.00    +0.000 A 
ATOM     14  C   UNL     1      60.032  36.610  76.568  0.00  0.00    +0.000 A 
ATOM     15  C   UNL     1      61.117  30.241  71.850  0.00  0.00    +0.000 A 
ATOM     16  C   UNL     1      60.145  30.694  70.961  0.00  0.00    +0.000 A 
ATOM     17  C   UNL     1      58.342  37.358  74.985  0.00  0.00    +0.000 A 
ATOM     18  C   UNL     1      59.076  37.535  76.162  0.00  0.00    +0.000 A 
ENDROOT
BRANCH  16  19
ATOM     19  O   UNL     1      59.886  29.925  69.858  0.00  0.00    +0.000 OA
ATOM     20  H   UNL     1      60.729  29.568  69.528  0.00  0.00    +0.000 HD
ENDBRANCH  16  19
BRANCH  18  21
ATOM     21  O   UNL     1      58.868  38.633  76.947  0.00  0.00    +0.000 OA
ATOM     22  H   UNL     1      59.616  39.244  76.826  0.00  0.00    +0.000 HD
ENDBRANCH  18  21
TORSDOF 2
ENDMDL
MODEL 7
REMARK VINA RESULT:      -6.3      4.766      9.214
REMARK  Name = COUMESTROL.pdbqt.pdb
REMARK  2 active torsions:
REMARK  status: ('A' for Active; 'I' for Inactive)
REMARK    1  A    between atoms: C_16  and  O_19
REMARK    2  A    between atoms: C_18  and  O_21
REMARK                            x       y       z     vdW  Elec       q    Type
REMARK                         _______ _______ _______ _____ _____    ______ ____
ROOT
ATOM      1  O   UNL     1      58.356  34.347  84.028  0.00  0.00    +0.000 OA
ATOM      2  O   UNL     1      57.074  37.821  85.752  0.00  0.00    +0.000 OA
ATOM      3  O   UNL     1      56.430  38.523  83.648  0.00  0.00    +0.000 OA
ATOM      4  C   UNL     1      57.412  36.391  83.830  0.00  0.00    +0.000 A 
ATOM      5  C   UNL     1      57.959  35.463  84.677  0.00  0.00    +0.000 A 
ATOM      6  C   UNL     1      57.466  35.814  82.537  0.00  0.00    +0.000 A 
ATOM      7  C   UNL     1      58.114  35.615  86.092  0.00  0.00    +0.000 A 
ATOM      8  C   UNL     1      58.055  34.558  82.710  0.00  0.00    +0.000 A 
ATOM      9  C   UNL     1      57.650  36.833  86.610  0.00  0.00    +0.000 A 
ATOM     10  C   UNL     1      56.930  37.651  84.348  0.00  0.00    +0.000 A 
ATOM     11  C   UNL     1      57.088  36.206  81.242  0.00  0.00    +0.000 A 
ATOM     12  C   UNL     1      58.671  34.666  86.940  0.00  0.00    +0.000 A 
ATOM     13  C   UNL     1      58.297  33.653  81.677  0.00  0.00    +0.000 A 
ATOM     14  C   UNL     1      57.734  37.124  87.966  0.00  0.00    +0.000 A 
ATOM     15  C   UNL     1      57.316  35.323  80.183  0.00  0.00    +0.000 A 
ATOM     16  C   UNL     1      57.907  34.081  80.406  0.00  0.00    +0.000 A 
ATOM     17  C   UNL     1      58.761  34.944  88.304  0.00  0.00    +0.000 A 
ATOM     18  C   UNL     1      58.294  36.164  88.802  0.00  0.00    +0.000 A 
ENDROOT
BRANCH  16  19
ATOM     19  O   UNL     1      58.100  33.267  79.323  0.00  0.00    +0.000 OA
ATOM     20  H   UNL     1      57.360  32.637  79.275  0.00  0.00    +0.000 HD
ENDBRANCH  16  19
BRANCH  18  21
ATOM     21  O   UNL     1      58.379  36.443  90.137  0.00  0.00    +0.000 OA
ATOM     22  H   UNL     1      59.135  35.954  90.506  0.00  0.00    +0.000 HD
ENDBRANCH  18  21
TORSDOF 2
ENDMDL
MODEL 8
REMARK VINA RESULT:      -6.2      3.593      5.521
REMARK  Name = COUMESTROL.pdbqt.pdb
REMARK  2 active torsions:
REMARK  status: ('A' for Active; 'I' for Inactive)
REMARK    1  A    between atoms: C_16  and  O_19
REMARK    2  A    between atoms: C_18  and  O_21
REMARK                            x       y       z     vdW  Elec       q    Type
REMARK                         _______ _______ _______ _____ _____    ______ ____
ROOT
ATOM      1  O   UNL     1      58.668  36.318  74.928  0.00  0.00    +0.000 OA
ATOM      2  O   UNL     1      61.453  34.970  77.594  0.00  0.00    +0.000 OA
ATOM      3  O   UNL     1      59.766  34.871  79.170  0.00  0.00    +0.000 OA
ATOM      4  C   UNL     1      59.195  35.611  77.009  0.00  0.00    +0.000 A 
ATOM      5  C   UNL     1      59.650  35.878  75.745  0.00  0.00    +0.000 A 
ATOM      6  C   UNL     1      57.809  35.906  76.992  0.00  0.00    +0.000 A 
ATOM      7  C   UNL     1      61.000  35.724  75.295  0.00  0.00    +0.000 A 
ATOM      8  C   UNL     1      57.533  36.337  75.691  0.00  0.00    +0.000 A 
ATOM      9  C   UNL     1      61.898  35.257  76.267  0.00  0.00    +0.000 A 
ATOM     10  C   UNL     1      60.106  35.129  78.022  0.00  0.00    +0.000 A 
ATOM     11  C   UNL     1      56.757  35.860  77.922  0.00  0.00    +0.000 A 
ATOM     12  C   UNL     1      61.449  35.999  74.009  0.00  0.00    +0.000 A 
ATOM     13  C   UNL     1      56.272  36.730  75.243  0.00  0.00    +0.000 A 
ATOM     14  C   UNL     1      63.242  35.059  75.977  0.00  0.00    +0.000 A 
ATOM     15  C   UNL     1      55.479  36.246  77.507  0.00  0.00    +0.000 A 
ATOM     16  C   UNL     1      55.254  36.669  76.198  0.00  0.00    +0.000 A 
ATOM     17  C   UNL     1      62.796  35.804  73.705  0.00  0.00    +0.000 A 
ATOM     18  C   UNL     1      63.676  35.338  74.686  0.00  0.00    +0.000 A 
ENDROOT
BRANCH  16  19
ATOM     19  O   UNL     1      53.978  37.033  75.860  0.00  0.00    +0.000 OA
ATOM     20  H   UNL     1      54.016  37.883  75.389  0.00  0.00    +0.000 HD
ENDBRANCH  16  19
BRANCH  18  21
ATOM     21  O   UNL     1      64.997  35.145  74.395  0.00  0.00    +0.000 OA
ATOM     22  H   UNL     1      65.149  34.192  74.275  0.00  0.00    +0.000 HD
ENDBRANCH  18  21
TORSDOF 2
ENDMDL
MODEL 9
REMARK VINA RESULT:      -5.8     16.540     17.578
REMARK  Name = COUMESTROL.pdbqt.pdb
REMARK  2 active torsions:
REMARK  status: ('A' for Active; 'I' for Inactive)
REMARK    1  A    between atoms: C_16  and  O_19
REMARK    2  A    between atoms: C_18  and  O_21
REMARK                            x       y       z     vdW  Elec       q    Type
REMARK                         _______ _______ _______ _____ _____    ______ ____
ROOT
ATOM      1  O   UNL     1      46.256  23.753  83.550  0.00  0.00    +0.000 OA
ATOM      2  O   UNL     1      46.728  27.146  85.774  0.00  0.00    +0.000 OA
ATOM      3  O   UNL     1      48.735  26.273  86.517  0.00  0.00    +0.000 OA
ATOM      4  C   UNL     1      47.478  24.979  85.004  0.00  0.00    +0.000 A 
ATOM      5  C   UNL     1      46.334  24.903  84.254  0.00  0.00    +0.000 A 
ATOM      6  C   UNL     1      48.184  23.775  84.754  0.00  0.00    +0.000 A 
ATOM      7  C   UNL     1      45.311  25.903  84.191  0.00  0.00    +0.000 A 
ATOM      8  C   UNL     1      47.393  23.055  83.855  0.00  0.00    +0.000 A 
ATOM      9  C   UNL     1      45.544  27.038  84.981  0.00  0.00    +0.000 A 
ATOM     10  C   UNL     1      47.734  26.141  85.823  0.00  0.00    +0.000 A 
ATOM     11  C   UNL     1      49.397  23.212  85.183  0.00  0.00    +0.000 A 
ATOM     12  C   UNL     1      44.155  25.814  83.426  0.00  0.00    +0.000 A 
ATOM     13  C   UNL     1      47.724  21.800  83.345  0.00  0.00    +0.000 A 
ATOM     14  C   UNL     1      44.640  28.092  85.023  0.00  0.00    +0.000 A 
ATOM     15  C   UNL     1      49.761  21.955  84.692  0.00  0.00    +0.000 A 
ATOM     16  C   UNL     1      48.938  21.275  83.796  0.00  0.00    +0.000 A 
ATOM     17  C   UNL     1      43.238  26.865  83.458  0.00  0.00    +0.000 A 
ATOM     18  C   UNL     1      43.487  27.988  84.251  0.00  0.00    +0.000 A 
ENDROOT
BRANCH  16  19
ATOM     19  O   UNL     1      49.356  20.048  83.356  0.00  0.00    +0.000 OA
ATOM     20  H   UNL     1      49.253  20.017  82.389  0.00  0.00    +0.000 HD
ENDBRANCH  16  19
BRANCH  18  21
ATOM     21  O   UNL     1      42.593  29.021  84.287  0.00  0.00    +0.000 OA
ATOM     22  H   UNL     1      42.011  28.951  83.511  0.00  0.00    +0.000 HD
ENDBRANCH  18  21
TORSDOF 2
ENDMDL
