MODEL 1
REMARK VINA RESULT:      -7.2      0.000      0.000
REMARK  Name = CP466722.pdbqt.pdb
REMARK  3 active torsions:
REMARK  status: ('A' for Active; 'I' for Inactive)
REMARK    1  A    between atoms: C_5  and  C_23
REMARK    2  A    between atoms: C_14  and  O_16
REMARK    3  A    between atoms: C_15  and  O_18
REMARK                            x       y       z     vdW  Elec       q    Type
REMARK                         _______ _______ _______ _____ _____    ______ ____
ROOT
ATOM      1  N   UNL     1      57.094  35.923  76.712  0.00  0.00    +0.000 N 
ATOM      2  N   UNL     1      57.849  35.405  77.709  0.00  0.00    +0.000 NA
ATOM      3  N   UNL     1      55.757  35.883  78.473  0.00  0.00    +0.000 NA
ATOM      4  C   UNL     1      55.815  36.193  77.203  0.00  0.00    +0.000 A 
ATOM      5  C   UNL     1      57.012  35.397  78.758  0.00  0.00    +0.000 A 
ATOM      6  C   UNL     1      57.604  36.169  75.393  0.00  0.00    +0.000 A 
ATOM      7  N   UNL     1      56.779  36.816  74.528  0.00  0.00    +0.000 NA
ATOM      8  C   UNL     1      57.263  37.065  73.307  0.00  0.00    +0.000 A 
ATOM      9  N   UNL     1      58.485  36.738  72.876  0.00  0.00    +0.000 NA
ATOM     10  C   UNL     1      59.290  36.103  73.729  0.00  0.00    +0.000 A 
ATOM     11  C   UNL     1      58.906  35.768  75.034  0.00  0.00    +0.000 A 
ATOM     12  C   UNL     1      60.565  35.767  73.295  0.00  0.00    +0.000 A 
ATOM     13  C   UNL     1      59.828  35.064  75.845  0.00  0.00    +0.000 A 
ATOM     14  C   UNL     1      61.089  34.700  75.387  0.00  0.00    +0.000 A 
ATOM     15  C   UNL     1      61.480  35.105  74.116  0.00  0.00    +0.000 A 
ATOM     16  N   UNL     1      54.798  36.689  76.472  0.00  0.00    +0.000 N 
ATOM     17  H   UNL     1      53.997  37.070  76.963  0.00  0.00    +0.000 HD
ATOM     18  H   UNL     1      54.991  37.106  75.562  0.00  0.00    +0.000 HD
ENDROOT
BRANCH   5  19
ATOM     19  C   UNL     1      57.378  34.925  80.097  0.00  0.00    +0.000 A 
ATOM     20  N   UNL     1      57.412  35.836  81.108  0.00  0.00    +0.000 NA
ATOM     21  C   UNL     1      57.754  35.377  82.332  0.00  0.00    +0.000 A 
ATOM     22  C   UNL     1      58.062  34.058  82.609  0.00  0.00    +0.000 A 
ATOM     23  C   UNL     1      58.016  33.150  81.559  0.00  0.00    +0.000 A 
ATOM     24  C   UNL     1      57.672  33.580  80.283  0.00  0.00    +0.000 A 
ENDBRANCH   5  19
BRANCH  14  25
ATOM     25  O   UNL     1      61.927  34.040  76.244  0.00  0.00    +0.000 OA
ATOM     26  C   UNL     1      62.667  34.956  77.012  0.00  0.00    +0.000 C 
ENDBRANCH  14  25
BRANCH  15  27
ATOM     27  O   UNL     1      62.718  34.790  73.625  0.00  0.00    +0.000 OA
ATOM     28  C   UNL     1      62.632  33.676  72.771  0.00  0.00    +0.000 C 
ENDBRANCH  15  27
TORSDOF 3
ENDMDL
MODEL 2
REMARK VINA RESULT:      -7.2      3.126      5.829
REMARK  Name = CP466722.pdbqt.pdb
REMARK  3 active torsions:
REMARK  status: ('A' for Active; 'I' for Inactive)
REMARK    1  A    between atoms: C_5  and  C_23
REMARK    2  A    between atoms: C_14  and  O_16
REMARK    3  A    between atoms: C_15  and  O_18
REMARK                            x       y       z     vdW  Elec       q    Type
REMARK                         _______ _______ _______ _____ _____    ______ ____
ROOT
ATOM      1  N   UNL     1      58.369  36.141  77.324  0.00  0.00    +0.000 N 
ATOM      2  N   UNL     1      59.550  36.395  76.714  0.00  0.00    +0.000 NA
ATOM      3  N   UNL     1      59.823  34.806  78.322  0.00  0.00    +0.000 NA
ATOM      4  C   UNL     1      58.562  35.154  78.294  0.00  0.00    +0.000 A 
ATOM      5  C   UNL     1      60.406  35.575  77.341  0.00  0.00    +0.000 A 
ATOM      6  C   UNL     1      57.157  36.840  77.006  0.00  0.00    +0.000 A 
ATOM      7  N   UNL     1      56.075  36.580  77.788  0.00  0.00    +0.000 NA
ATOM      8  C   UNL     1      54.953  37.250  77.504  0.00  0.00    +0.000 A 
ATOM      9  N   UNL     1      54.813  38.152  76.528  0.00  0.00    +0.000 NA
ATOM     10  C   UNL     1      55.878  38.402  75.764  0.00  0.00    +0.000 A 
ATOM     11  C   UNL     1      57.112  37.763  75.942  0.00  0.00    +0.000 A 
ATOM     12  C   UNL     1      55.747  39.344  74.753  0.00  0.00    +0.000 A 
ATOM     13  C   UNL     1      58.166  38.080  75.053  0.00  0.00    +0.000 A 
ATOM     14  C   UNL     1      58.012  38.998  74.020  0.00  0.00    +0.000 A 
ATOM     15  C   UNL     1      56.805  39.677  73.905  0.00  0.00    +0.000 A 
ATOM     16  N   UNL     1      57.591  34.639  79.073  0.00  0.00    +0.000 N 
ATOM     17  H   UNL     1      57.866  34.113  79.896  0.00  0.00    +0.000 HD
ATOM     18  H   UNL     1      56.694  35.119  79.141  0.00  0.00    +0.000 HD
ENDROOT
BRANCH   5  19
ATOM     19  C   UNL     1      61.837  35.491  77.034  0.00  0.00    +0.000 A 
ATOM     20  N   UNL     1      62.487  34.333  77.332  0.00  0.00    +0.000 NA
ATOM     21  C   UNL     1      63.806  34.281  77.040  0.00  0.00    +0.000 A 
ATOM     22  C   UNL     1      64.516  35.319  76.465  0.00  0.00    +0.000 A 
ATOM     23  C   UNL     1      63.826  36.487  76.170  0.00  0.00    +0.000 A 
ATOM     24  C   UNL     1      62.469  36.584  76.454  0.00  0.00    +0.000 A 
ENDBRANCH   5  19
BRANCH  14  25
ATOM     25  O   UNL     1      59.090  39.262  73.219  0.00  0.00    +0.000 OA
ATOM     26  C   UNL     1      60.265  39.340  73.986  0.00  0.00    +0.000 C 
ENDBRANCH  14  25
BRANCH  15  27
ATOM     27  O   UNL     1      56.609  40.604  72.917  0.00  0.00    +0.000 OA
ATOM     28  C   UNL     1      55.269  41.031  72.912  0.00  0.00    +0.000 C 
ENDBRANCH  15  27
TORSDOF 3
ENDMDL
MODEL 3
REMARK VINA RESULT:      -7.1      1.986      2.623
REMARK  Name = CP466722.pdbqt.pdb
REMARK  3 active torsions:
REMARK  status: ('A' for Active; 'I' for Inactive)
REMARK    1  A    between atoms: C_5  and  C_23
REMARK    2  A    between atoms: C_14  and  O_16
REMARK    3  A    between atoms: C_15  and  O_18
REMARK                            x       y       z     vdW  Elec       q    Type
REMARK                         _______ _______ _______ _____ _____    ______ ____
ROOT
ATOM      1  N   UNL     1      56.379  37.341  76.402  0.00  0.00    +0.000 N 
ATOM      2  N   UNL     1      57.141  36.328  76.878  0.00  0.00    +0.000 NA
ATOM      3  N   UNL     1      55.861  37.199  78.547  0.00  0.00    +0.000 NA
ATOM      4  C   UNL     1      55.594  37.846  77.441  0.00  0.00    +0.000 A 
ATOM      5  C   UNL     1      56.805  36.271  78.175  0.00  0.00    +0.000 A 
ATOM      6  C   UNL     1      56.446  37.799  75.044  0.00  0.00    +0.000 A 
ATOM      7  N   UNL     1      55.726  38.910  74.735  0.00  0.00    +0.000 NA
ATOM      8  C   UNL     1      55.808  39.349  73.475  0.00  0.00    +0.000 A 
ATOM      9  N   UNL     1      56.542  38.794  72.506  0.00  0.00    +0.000 NA
ATOM     10  C   UNL     1      57.246  37.704  72.814  0.00  0.00    +0.000 A 
ATOM     11  C   UNL     1      57.242  37.129  74.093  0.00  0.00    +0.000 A 
ATOM     12  C   UNL     1      58.019  37.124  71.818  0.00  0.00    +0.000 A 
ATOM     13  C   UNL     1      58.000  35.953  74.302  0.00  0.00    +0.000 A 
ATOM     14  C   UNL     1      58.741  35.359  73.287  0.00  0.00    +0.000 A 
ATOM     15  C   UNL     1      58.794  35.984  72.046  0.00  0.00    +0.000 A 
ATOM     16  N   UNL     1      54.697  38.842  77.315  0.00  0.00    +0.000 N 
ATOM     17  H   UNL     1      54.359  39.293  78.158  0.00  0.00    +0.000 HD
ATOM     18  H   UNL     1      54.716  39.432  76.483  0.00  0.00    +0.000 HD
ENDROOT
BRANCH   5  19
ATOM     19  C   UNL     1      57.382  35.321  79.131  0.00  0.00    +0.000 A 
ATOM     20  N   UNL     1      58.533  35.674  79.767  0.00  0.00    +0.000 NA
ATOM     21  C   UNL     1      59.045  34.781  80.643  0.00  0.00    +0.000 A 
ATOM     22  C   UNL     1      58.474  33.554  80.925  0.00  0.00    +0.000 A 
ATOM     23  C   UNL     1      57.298  33.222  80.263  0.00  0.00    +0.000 A 
ATOM     24  C   UNL     1      56.738  34.110  79.354  0.00  0.00    +0.000 A 
ENDBRANCH   5  19
BRANCH  14  25
ATOM     25  O   UNL     1      59.464  34.235  73.581  0.00  0.00    +0.000 OA
ATOM     26  C   UNL     1      60.515  34.543  74.462  0.00  0.00    +0.000 C 
ENDBRANCH  14  25
BRANCH  15  27
ATOM     27  O   UNL     1      59.524  35.451  71.019  0.00  0.00    +0.000 OA
ATOM     28  C   UNL     1      58.786  35.500  69.823  0.00  0.00    +0.000 C 
ENDBRANCH  15  27
TORSDOF 3
ENDMDL
MODEL 4
REMARK VINA RESULT:      -7.0      2.285      6.245
REMARK  Name = CP466722.pdbqt.pdb
REMARK  3 active torsions:
REMARK  status: ('A' for Active; 'I' for Inactive)
REMARK    1  A    between atoms: C_5  and  C_23
REMARK    2  A    between atoms: C_14  and  O_16
REMARK    3  A    between atoms: C_15  and  O_18
REMARK                            x       y       z     vdW  Elec       q    Type
REMARK                         _______ _______ _______ _____ _____    ______ ____
ROOT
ATOM      1  N   UNL     1      57.056  36.760  75.761  0.00  0.00    +0.000 N 
ATOM      2  N   UNL     1      57.400  37.327  74.582  0.00  0.00    +0.000 NA
ATOM      3  N   UNL     1      55.146  37.443  74.882  0.00  0.00    +0.000 NA
ATOM      4  C   UNL     1      55.672  36.858  75.926  0.00  0.00    +0.000 A 
ATOM      5  C   UNL     1      56.223  37.727  74.076  0.00  0.00    +0.000 A 
ATOM      6  C   UNL     1      58.008  36.137  76.637  0.00  0.00    +0.000 A 
ATOM      7  N   UNL     1      57.509  35.488  77.722  0.00  0.00    +0.000 NA
ATOM      8  C   UNL     1      58.395  34.888  78.524  0.00  0.00    +0.000 A 
ATOM      9  N   UNL     1      59.719  34.869  78.341  0.00  0.00    +0.000 NA
ATOM     10  C   UNL     1      60.202  35.508  77.274  0.00  0.00    +0.000 A 
ATOM     11  C   UNL     1      59.388  36.188  76.359  0.00  0.00    +0.000 A 
ATOM     12  C   UNL     1      61.575  35.486  77.068  0.00  0.00    +0.000 A 
ATOM     13  C   UNL     1      60.009  36.860  75.279  0.00  0.00    +0.000 A 
ATOM     14  C   UNL     1      61.388  36.863  75.104  0.00  0.00    +0.000 A 
ATOM     15  C   UNL     1      62.173  36.121  75.978  0.00  0.00    +0.000 A 
ATOM     16  N   UNL     1      54.992  36.420  77.004  0.00  0.00    +0.000 N 
ATOM     17  H   UNL     1      53.986  36.318  76.926  0.00  0.00    +0.000 HD
ATOM     18  H   UNL     1      55.446  35.784  77.659  0.00  0.00    +0.000 HD
ENDROOT
BRANCH   5  19
ATOM     19  C   UNL     1      56.072  38.400  72.782  0.00  0.00    +0.000 A 
ATOM     20  N   UNL     1      54.919  38.198  72.088  0.00  0.00    +0.000 NA
ATOM     21  C   UNL     1      54.804  38.828  70.898  0.00  0.00    +0.000 A 
ATOM     22  C   UNL     1      55.774  39.654  70.359  0.00  0.00    +0.000 A 
ATOM     23  C   UNL     1      56.939  39.844  71.092  0.00  0.00    +0.000 A 
ATOM     24  C   UNL     1      57.099  39.214  72.319  0.00  0.00    +0.000 A 
ENDBRANCH   5  19
BRANCH  14  25
ATOM     25  O   UNL     1      61.904  37.520  74.020  0.00  0.00    +0.000 OA
ATOM     26  C   UNL     1      62.033  38.893  74.292  0.00  0.00    +0.000 C 
ENDBRANCH  14  25
BRANCH  15  27
ATOM     27  O   UNL     1      63.534  36.075  75.838  0.00  0.00    +0.000 OA
ATOM     28  C   UNL     1      64.136  37.078  76.618  0.00  0.00    +0.000 C 
ENDBRANCH  15  27
TORSDOF 3
ENDMDL
MODEL 5
REMARK VINA RESULT:      -6.8      1.875      2.366
REMARK  Name = CP466722.pdbqt.pdb
REMARK  3 active torsions:
REMARK  status: ('A' for Active; 'I' for Inactive)
REMARK    1  A    between atoms: C_5  and  C_23
REMARK    2  A    between atoms: C_14  and  O_16
REMARK    3  A    between atoms: C_15  and  O_18
REMARK                            x       y       z     vdW  Elec       q    Type
REMARK                         _______ _______ _______ _____ _____    ______ ____
ROOT
ATOM      1  N   UNL     1      57.263  36.713  75.116  0.00  0.00    +0.000 N 
ATOM      2  N   UNL     1      57.846  35.841  75.971  0.00  0.00    +0.000 NA
ATOM      3  N   UNL     1      56.442  37.231  77.103  0.00  0.00    +0.000 NA
ATOM      4  C   UNL     1      56.398  37.542  75.833  0.00  0.00    +0.000 A 
ATOM      5  C   UNL     1      57.331  36.182  77.162  0.00  0.00    +0.000 A 
ATOM      6  C   UNL     1      57.564  36.752  73.713  0.00  0.00    +0.000 A 
ATOM      7  N   UNL     1      57.009  37.765  72.996  0.00  0.00    +0.000 NA
ATOM      8  C   UNL     1      57.308  37.813  71.693  0.00  0.00    +0.000 A 
ATOM      9  N   UNL     1      58.109  36.959  71.049  0.00  0.00    +0.000 NA
ATOM     10  C   UNL     1      58.650  35.968  71.758  0.00  0.00    +0.000 A 
ATOM     11  C   UNL     1      58.411  35.791  73.128  0.00  0.00    +0.000 A 
ATOM     12  C   UNL     1      59.491  35.080  71.101  0.00  0.00    +0.000 A 
ATOM     13  C   UNL     1      59.011  34.685  73.776  0.00  0.00    +0.000 A 
ATOM     14  C   UNL     1      59.821  33.781  73.099  0.00  0.00    +0.000 A 
ATOM     15  C   UNL     1      60.107  34.014  71.759  0.00  0.00    +0.000 A 
ATOM     16  N   UNL     1      55.631  38.509  75.291  0.00  0.00    +0.000 N 
ATOM     17  H   UNL     1      55.228  39.203  75.910  0.00  0.00    +0.000 HD
ATOM     18  H   UNL     1      55.824  38.829  74.342  0.00  0.00    +0.000 HD
ENDROOT
BRANCH   5  19
ATOM     19  C   UNL     1      57.671  35.520  78.424  0.00  0.00    +0.000 A 
ATOM     20  N   UNL     1      56.889  34.485  78.834  0.00  0.00    +0.000 NA
ATOM     21  C   UNL     1      57.222  33.892  80.001  0.00  0.00    +0.000 A 
ATOM     22  C   UNL     1      58.296  34.271  80.787  0.00  0.00    +0.000 A 
ATOM     23  C   UNL     1      59.078  35.329  80.342  0.00  0.00    +0.000 A 
ATOM     24  C   UNL     1      58.770  35.968  79.148  0.00  0.00    +0.000 A 
ENDBRANCH   5  19
BRANCH  14  25
ATOM     25  O   UNL     1      60.379  32.751  73.808  0.00  0.00    +0.000 OA
ATOM     26  C   UNL     1      61.289  33.245  74.758  0.00  0.00    +0.000 C 
ENDBRANCH  14  25
BRANCH  15  27
ATOM     27  O   UNL     1      60.915  33.165  71.052  0.00  0.00    +0.000 OA
ATOM     28  C   UNL     1      62.225  33.674  71.000  0.00  0.00    +0.000 C 
ENDBRANCH  15  27
TORSDOF 3
ENDMDL
MODEL 6
REMARK VINA RESULT:      -6.5      3.060      4.522
REMARK  Name = CP466722.pdbqt.pdb
REMARK  3 active torsions:
REMARK  status: ('A' for Active; 'I' for Inactive)
REMARK    1  A    between atoms: C_5  and  C_23
REMARK    2  A    between atoms: C_14  and  O_16
REMARK    3  A    between atoms: C_15  and  O_18
REMARK                            x       y       z     vdW  Elec       q    Type
REMARK                         _______ _______ _______ _____ _____    ______ ____
ROOT
ATOM      1  N   UNL     1      58.493  36.166  72.797  0.00  0.00    +0.000 N 
ATOM      2  N   UNL     1      58.856  35.650  73.995  0.00  0.00    +0.000 NA
ATOM      3  N   UNL     1      58.021  37.751  74.266  0.00  0.00    +0.000 NA
ATOM      4  C   UNL     1      57.971  37.446  72.994  0.00  0.00    +0.000 A 
ATOM      5  C   UNL     1      58.561  36.633  74.858  0.00  0.00    +0.000 A 
ATOM      6  C   UNL     1      58.680  35.470  71.556  0.00  0.00    +0.000 A 
ATOM      7  N   UNL     1      58.395  36.157  70.419  0.00  0.00    +0.000 NA
ATOM      8  C   UNL     1      58.592  35.515  69.263  0.00  0.00    +0.000 A 
ATOM      9  N   UNL     1      59.051  34.266  69.137  0.00  0.00    +0.000 NA
ATOM     10  C   UNL     1      59.328  33.596  70.257  0.00  0.00    +0.000 A 
ATOM     11  C   UNL     1      59.156  34.143  71.535  0.00  0.00    +0.000 A 
ATOM     12  C   UNL     1      59.813  32.301  70.138  0.00  0.00    +0.000 A 
ATOM     13  C   UNL     1      59.450  33.332  72.657  0.00  0.00    +0.000 A 
ATOM     14  C   UNL     1      59.900  32.024  72.527  0.00  0.00    +0.000 A 
ATOM     15  C   UNL     1      60.136  31.523  71.252  0.00  0.00    +0.000 A 
ATOM     16  N   UNL     1      57.485  38.238  72.018  0.00  0.00    +0.000 N 
ATOM     17  H   UNL     1      57.355  39.224  72.222  0.00  0.00    +0.000 HD
ATOM     18  H   UNL     1      57.689  38.017  71.044  0.00  0.00    +0.000 HD
ENDROOT
BRANCH   5  19
ATOM     19  C   UNL     1      58.788  36.552  76.304  0.00  0.00    +0.000 A 
ATOM     20  N   UNL     1      58.137  37.441  77.104  0.00  0.00    +0.000 NA
ATOM     21  C   UNL     1      58.364  37.346  78.433  0.00  0.00    +0.000 A 
ATOM     22  C   UNL     1      59.203  36.412  79.014  0.00  0.00    +0.000 A 
ATOM     23  C   UNL     1      59.850  35.516  78.173  0.00  0.00    +0.000 A 
ATOM     24  C   UNL     1      59.647  35.579  76.800  0.00  0.00    +0.000 A 
ENDBRANCH   5  19
BRANCH  14  25
ATOM     25  O   UNL     1      60.182  31.317  73.664  0.00  0.00    +0.000 OA
ATOM     26  C   UNL     1      61.374  31.779  74.247  0.00  0.00    +0.000 C 
ENDBRANCH  14  25
BRANCH  15  27
ATOM     27  O   UNL     1      60.598  30.247  71.070  0.00  0.00    +0.000 OA
ATOM     28  C   UNL     1      60.442  29.863  69.726  0.00  0.00    +0.000 C 
ENDBRANCH  15  27
TORSDOF 3
ENDMDL
MODEL 7
REMARK VINA RESULT:      -6.2      3.365      5.233
REMARK  Name = CP466722.pdbqt.pdb
REMARK  3 active torsions:
REMARK  status: ('A' for Active; 'I' for Inactive)
REMARK    1  A    between atoms: C_5  and  C_23
REMARK    2  A    between atoms: C_14  and  O_16
REMARK    3  A    between atoms: C_15  and  O_18
REMARK                            x       y       z     vdW  Elec       q    Type
REMARK                         _______ _______ _______ _____ _____    ______ ____
ROOT
ATOM      1  N   UNL     1      59.897  35.271  75.924  0.00  0.00    +0.000 N 
ATOM      2  N   UNL     1      58.757  35.905  75.560  0.00  0.00    +0.000 NA
ATOM      3  N   UNL     1      59.346  36.501  77.678  0.00  0.00    +0.000 NA
ATOM      4  C   UNL     1      60.243  35.665  77.219  0.00  0.00    +0.000 A 
ATOM      5  C   UNL     1      58.451  36.636  76.642  0.00  0.00    +0.000 A 
ATOM      6  C   UNL     1      60.569  34.325  75.080  0.00  0.00    +0.000 A 
ATOM      7  N   UNL     1      61.626  33.663  75.622  0.00  0.00    +0.000 NA
ATOM      8  C   UNL     1      62.237  32.765  74.842  0.00  0.00    +0.000 A 
ATOM      9  N   UNL     1      61.890  32.463  73.588  0.00  0.00    +0.000 NA
ATOM     10  C   UNL     1      60.852  33.116  73.061  0.00  0.00    +0.000 A 
ATOM     11  C   UNL     1      60.130  34.091  73.762  0.00  0.00    +0.000 A 
ATOM     12  C   UNL     1      60.476  32.803  71.762  0.00  0.00    +0.000 A 
ATOM     13  C   UNL     1      59.067  34.746  73.096  0.00  0.00    +0.000 A 
ATOM     14  C   UNL     1      58.723  34.451  71.782  0.00  0.00    +0.000 A 
ATOM     15  C   UNL     1      59.402  33.430  71.128  0.00  0.00    +0.000 A 
ATOM     16  N   UNL     1      61.338  35.250  77.884  0.00  0.00    +0.000 N 
ATOM     17  H   UNL     1      61.375  35.399  78.886  0.00  0.00    +0.000 HD
ATOM     18  H   UNL     1      61.854  34.439  77.544  0.00  0.00    +0.000 HD
ENDROOT
BRANCH   5  19
ATOM     19  C   UNL     1      57.273  37.504  76.740  0.00  0.00    +0.000 A 
ATOM     20  N   UNL     1      56.060  36.915  76.932  0.00  0.00    +0.000 NA
ATOM     21  C   UNL     1      54.990  37.735  77.018  0.00  0.00    +0.000 A 
ATOM     22  C   UNL     1      55.059  39.114  76.926  0.00  0.00    +0.000 A 
ATOM     23  C   UNL     1      56.309  39.687  76.734  0.00  0.00    +0.000 A 
ATOM     24  C   UNL     1      57.436  38.880  76.638  0.00  0.00    +0.000 A 
ENDBRANCH   5  19
BRANCH  14  25
ATOM     25  O   UNL     1      57.667  35.117  71.221  0.00  0.00    +0.000 OA
ATOM     26  C   UNL     1      57.991  36.468  71.014  0.00  0.00    +0.000 C 
ENDBRANCH  14  25
BRANCH  15  27
ATOM     27  O   UNL     1      59.089  33.087  69.840  0.00  0.00    +0.000 OA
ATOM     28  C   UNL     1      59.848  31.974  69.437  0.00  0.00    +0.000 C 
ENDBRANCH  15  27
TORSDOF 3
ENDMDL
MODEL 8
REMARK VINA RESULT:      -6.1      4.027      7.823
REMARK  Name = CP466722.pdbqt.pdb
REMARK  3 active torsions:
REMARK  status: ('A' for Active; 'I' for Inactive)
REMARK    1  A    between atoms: C_5  and  C_23
REMARK    2  A    between atoms: C_14  and  O_16
REMARK    3  A    between atoms: C_15  and  O_18
REMARK                            x       y       z     vdW  Elec       q    Type
REMARK                         _______ _______ _______ _____ _____    ______ ____
ROOT
ATOM      1  N   UNL     1      61.339  36.366  76.211  0.00  0.00    +0.000 N 
ATOM      2  N   UNL     1      61.434  37.361  75.299  0.00  0.00    +0.000 NA
ATOM      3  N   UNL     1      63.459  36.360  75.584  0.00  0.00    +0.000 NA
ATOM      4  C   UNL     1      62.589  35.761  76.356  0.00  0.00    +0.000 A 
ATOM      5  C   UNL     1      62.727  37.332  74.943  0.00  0.00    +0.000 A 
ATOM      6  C   UNL     1      60.124  36.062  76.913  0.00  0.00    +0.000 A 
ATOM      7  N   UNL     1      60.203  35.128  77.898  0.00  0.00    +0.000 NA
ATOM      8  C   UNL     1      59.075  34.863  78.566  0.00  0.00    +0.000 A 
ATOM      9  N   UNL     1      57.891  35.443  78.351  0.00  0.00    +0.000 NA
ATOM     10  C   UNL     1      57.820  36.358  77.382  0.00  0.00    +0.000 A 
ATOM     11  C   UNL     1      58.921  36.723  76.596  0.00  0.00    +0.000 A 
ATOM     12  C   UNL     1      56.597  36.973  77.156  0.00  0.00    +0.000 A 
ATOM     13  C   UNL     1      58.726  37.681  75.573  0.00  0.00    +0.000 A 
ATOM     14  C   UNL     1      57.487  38.264  75.331  0.00  0.00    +0.000 A 
ATOM     15  C   UNL     1      56.425  37.945  76.168  0.00  0.00    +0.000 A 
ATOM     16  N   UNL     1      62.850  34.714  77.163  0.00  0.00    +0.000 N 
ATOM     17  H   UNL     1      63.819  34.504  77.378  0.00  0.00    +0.000 HD
ATOM     18  H   UNL     1      62.177  34.458  77.886  0.00  0.00    +0.000 HD
ENDROOT
BRANCH   5  19
ATOM     19  C   UNL     1      63.331  38.244  73.967  0.00  0.00    +0.000 A 
ATOM     20  N   UNL     1      64.135  37.712  73.007  0.00  0.00    +0.000 NA
ATOM     21  C   UNL     1      64.681  38.573  72.120  0.00  0.00    +0.000 A 
ATOM     22  C   UNL     1      64.469  39.940  72.133  0.00  0.00    +0.000 A 
ATOM     23  C   UNL     1      63.641  40.455  73.123  0.00  0.00    +0.000 A 
ATOM     24  C   UNL     1      63.061  39.604  74.056  0.00  0.00    +0.000 A 
ENDBRANCH   5  19
BRANCH  14  25
ATOM     25  O   UNL     1      57.392  39.199  74.336  0.00  0.00    +0.000 OA
ATOM     26  C   UNL     1      58.605  39.294  73.633  0.00  0.00    +0.000 C 
ENDBRANCH  14  25
BRANCH  15  27
ATOM     27  O   UNL     1      55.190  38.506  75.985  0.00  0.00    +0.000 OA
ATOM     28  C   UNL     1      54.958  39.496  76.956  0.00  0.00    +0.000 C 
ENDBRANCH  15  27
TORSDOF 3
ENDMDL
MODEL 9
REMARK VINA RESULT:      -6.1     17.127     19.559
REMARK  Name = CP466722.pdbqt.pdb
REMARK  3 active torsions:
REMARK  status: ('A' for Active; 'I' for Inactive)
REMARK    1  A    between atoms: C_5  and  C_23
REMARK    2  A    between atoms: C_14  and  O_16
REMARK    3  A    between atoms: C_15  and  O_18
REMARK                            x       y       z     vdW  Elec       q    Type
REMARK                         _______ _______ _______ _____ _____    ______ ____
ROOT
ATOM      1  N   UNL     1      43.846  26.279  84.781  0.00  0.00    +0.000 N 
ATOM      2  N   UNL     1      43.649  25.184  84.010  0.00  0.00    +0.000 NA
ATOM      3  N   UNL     1      41.760  26.455  84.069  0.00  0.00    +0.000 NA
ATOM      4  C   UNL     1      42.679  27.046  84.788  0.00  0.00    +0.000 A 
ATOM      5  C   UNL     1      42.379  25.320  83.598  0.00  0.00    +0.000 A 
ATOM      6  C   UNL     1      45.071  26.529  85.485  0.00  0.00    +0.000 A 
ATOM      7  N   UNL     1      45.087  27.595  86.330  0.00  0.00    +0.000 NA
ATOM      8  C   UNL     1      46.221  27.812  87.003  0.00  0.00    +0.000 A 
ATOM      9  N   UNL     1      47.328  27.068  86.919  0.00  0.00    +0.000 NA
ATOM     10  C   UNL     1      47.307  26.024  86.088  0.00  0.00    +0.000 A 
ATOM     11  C   UNL     1      46.189  25.689  85.313  0.00  0.00    +0.000 A 
ATOM     12  C   UNL     1      48.448  25.239  86.000  0.00  0.00    +0.000 A 
ATOM     13  C   UNL     1      46.287  24.579  84.440  0.00  0.00    +0.000 A 
ATOM     14  C   UNL     1      47.448  23.822  84.332  0.00  0.00    +0.000 A 
ATOM     15  C   UNL     1      48.520  24.123  85.163  0.00  0.00    +0.000 A 
ATOM     16  N   UNL     1      42.533  28.220  85.433  0.00  0.00    +0.000 N 
ATOM     17  H   UNL     1      41.593  28.574  85.575  0.00  0.00    +0.000 HD
ATOM     18  H   UNL     1      43.214  28.492  86.142  0.00  0.00    +0.000 HD
ENDROOT
BRANCH   5  19
ATOM     19  C   UNL     1      41.690  24.360  82.731  0.00  0.00    +0.000 A 
ATOM     20  N   UNL     1      40.780  24.842  81.841  0.00  0.00    +0.000 NA
ATOM     21  C   UNL     1      40.157  23.937  81.054  0.00  0.00    +0.000 A 
ATOM     22  C   UNL     1      40.391  22.574  81.102  0.00  0.00    +0.000 A 
ATOM     23  C   UNL     1      41.326  22.112  82.018  0.00  0.00    +0.000 A 
ATOM     24  C   UNL     1      41.989  23.008  82.848  0.00  0.00    +0.000 A 
ENDBRANCH   5  19
BRANCH  14  25
ATOM     25  O   UNL     1      47.449  22.752  83.479  0.00  0.00    +0.000 OA
ATOM     26  C   UNL     1      46.255  22.022  83.605  0.00  0.00    +0.000 C 
ENDBRANCH  14  25
BRANCH  15  27
ATOM     27  O   UNL     1      49.679  23.397  85.110  0.00  0.00    +0.000 OA
ATOM     28  C   UNL     1      50.686  24.035  85.857  0.00  0.00    +0.000 C 
ENDBRANCH  15  27
TORSDOF 3
ENDMDL
