MODEL 1
REMARK VINA RESULT:      -6.2      0.000      0.000
REMARK  Name = Curcumin.pdbqt.pdb
REMARK  8 active torsions:
REMARK  status: ('A' for Active; 'I' for Inactive)
REMARK    1  A    between atoms: C_2  and  C_4
REMARK    2  A    between atoms: C_5  and  C_6
REMARK    3  A    between atoms: C_8  and  O_12
REMARK    4  A    between atoms: C_9  and  O_14
REMARK    5  A    between atoms: C_16  and  C_18
REMARK    6  A    between atoms: C_19  and  C_20
REMARK    7  A    between atoms: C_22  and  O_26
REMARK    8  A    between atoms: C_23  and  O_28
REMARK                            x       y       z     vdW  Elec       q    Type
REMARK                         _______ _______ _______ _____ _____    ______ ____
ROOT
ATOM      1  C   UNL     1      58.768  34.084  72.793  0.00  0.00    +0.000 C 
ATOM      2  C   UNL     1      59.507  32.906  72.480  0.00  0.00    +0.000 C 
ATOM      3  O   UNL     1      60.043  32.272  73.376  0.00  0.00    +0.000 OA
ATOM      4  C   UNL     1      58.034  35.265  73.106  0.00  0.00    +0.000 C 
ATOM      5  O   UNL     1      57.764  36.065  72.222  0.00  0.00    +0.000 OA
ENDROOT
BRANCH   2   6
ATOM      6  C   UNL     1      59.613  32.469  71.111  0.00  0.00    +0.000 C 
ATOM      7  C   UNL     1      59.701  32.107  69.969  0.00  0.00    +0.000 C 
BRANCH   7   8
ATOM      8  C   UNL     1      59.808  31.676  68.613  0.00  0.00    +0.000 A 
ATOM      9  C   UNL     1      59.073  30.578  68.173  0.00  0.00    +0.000 A 
ATOM     10  C   UNL     1      59.164  30.142  66.847  0.00  0.00    +0.000 A 
ATOM     11  C   UNL     1      60.010  30.830  65.972  0.00  0.00    +0.000 A 
ATOM     12  C   UNL     1      60.748  31.930  66.410  0.00  0.00    +0.000 A 
ATOM     13  C   UNL     1      60.646  32.353  67.732  0.00  0.00    +0.000 A 
BRANCH  10  14
ATOM     14  O   UNL     1      58.471  29.071  66.343  0.00  0.00    +0.000 OA
ATOM     15  C   UNL     1      57.133  29.307  66.005  0.00  0.00    +0.000 C 
ENDBRANCH  10  14
BRANCH  11  16
ATOM     16  O   UNL     1      60.166  30.479  64.660  0.00  0.00    +0.000 OA
ATOM     17  H   UNL     1      59.849  29.572  64.507  0.00  0.00    +0.000 HD
ENDBRANCH  11  16
ENDBRANCH   7   8
ENDBRANCH   2   6
BRANCH   4  18
ATOM     18  C   UNL     1      57.613  35.506  74.463  0.00  0.00    +0.000 C 
ATOM     19  C   UNL     1      57.267  35.708  75.596  0.00  0.00    +0.000 C 
BRANCH  19  20
ATOM     20  C   UNL     1      56.860  35.948  76.941  0.00  0.00    +0.000 A 
ATOM     21  C   UNL     1      57.544  35.338  77.992  0.00  0.00    +0.000 A 
ATOM     22  C   UNL     1      57.157  35.562  79.317  0.00  0.00    +0.000 A 
ATOM     23  C   UNL     1      56.074  36.410  79.565  0.00  0.00    +0.000 A 
ATOM     24  C   UNL     1      55.388  37.022  78.518  0.00  0.00    +0.000 A 
ATOM     25  C   UNL     1      55.782  36.790  77.204  0.00  0.00    +0.000 A 
BRANCH  22  26
ATOM     26  O   UNL     1      57.775  35.002  80.409  0.00  0.00    +0.000 OA
ATOM     27  C   UNL     1      57.573  33.623  80.577  0.00  0.00    +0.000 C 
ENDBRANCH  22  26
BRANCH  23  28
ATOM     28  O   UNL     1      55.681  36.642  80.854  0.00  0.00    +0.000 OA
ATOM     29  H   UNL     1      56.434  37.014  81.348  0.00  0.00    +0.000 HD
ENDBRANCH  23  28
ENDBRANCH  19  20
ENDBRANCH   4  18
TORSDOF 8
ENDMDL
MODEL 2
REMARK VINA RESULT:      -6.1      0.395     11.787
REMARK  Name = Curcumin.pdbqt.pdb
REMARK  8 active torsions:
REMARK  status: ('A' for Active; 'I' for Inactive)
REMARK    1  A    between atoms: C_2  and  C_4
REMARK    2  A    between atoms: C_5  and  C_6
REMARK    3  A    between atoms: C_8  and  O_12
REMARK    4  A    between atoms: C_9  and  O_14
REMARK    5  A    between atoms: C_16  and  C_18
REMARK    6  A    between atoms: C_19  and  C_20
REMARK    7  A    between atoms: C_22  and  O_26
REMARK    8  A    between atoms: C_23  and  O_28
REMARK                            x       y       z     vdW  Elec       q    Type
REMARK                         _______ _______ _______ _____ _____    ______ ____
ROOT
ATOM      1  C   UNL     1      58.842  34.079  72.818  0.00  0.00    +0.000 C 
ATOM      2  C   UNL     1      58.115  35.261  73.144  0.00  0.00    +0.000 C 
ATOM      3  O   UNL     1      57.830  36.058  72.263  0.00  0.00    +0.000 OA
ATOM      4  C   UNL     1      59.572  32.899  72.492  0.00  0.00    +0.000 C 
ATOM      5  O   UNL     1      60.127  32.264  73.378  0.00  0.00    +0.000 OA
ENDROOT
BRANCH   2   6
ATOM      6  C   UNL     1      57.720  35.506  74.507  0.00  0.00    +0.000 C 
ATOM      7  C   UNL     1      57.389  35.713  75.643  0.00  0.00    +0.000 C 
BRANCH   7   8
ATOM      8  C   UNL     1      56.994  35.956  76.993  0.00  0.00    +0.000 A 
ATOM      9  C   UNL     1      57.905  35.760  78.029  0.00  0.00    +0.000 A 
ATOM     10  C   UNL     1      57.536  35.995  79.357  0.00  0.00    +0.000 A 
ATOM     11  C   UNL     1      56.234  36.429  79.626  0.00  0.00    +0.000 A 
ATOM     12  C   UNL     1      55.321  36.626  78.591  0.00  0.00    +0.000 A 
ATOM     13  C   UNL     1      55.702  36.389  77.273  0.00  0.00    +0.000 A 
BRANCH  10  14
ATOM     14  O   UNL     1      58.378  35.825  80.428  0.00  0.00    +0.000 OA
ATOM     15  C   UNL     1      58.677  34.502  80.773  0.00  0.00    +0.000 C 
ENDBRANCH  10  14
BRANCH  11  16
ATOM     16  O   UNL     1      55.782  36.683  80.891  0.00  0.00    +0.000 OA
ATOM     17  H   UNL     1      54.932  36.240  81.047  0.00  0.00    +0.000 HD
ENDBRANCH  11  16
ENDBRANCH   7   8
ENDBRANCH   2   6
BRANCH   4  18
ATOM     18  C   UNL     1      59.651  32.463  71.121  0.00  0.00    +0.000 C 
ATOM     19  C   UNL     1      59.721  32.100  69.978  0.00  0.00    +0.000 C 
BRANCH  19  20
ATOM     20  C   UNL     1      59.808  31.671  68.621  0.00  0.00    +0.000 A 
ATOM     21  C   UNL     1      59.071  30.567  68.194  0.00  0.00    +0.000 A 
ATOM     22  C   UNL     1      59.144  30.133  66.868  0.00  0.00    +0.000 A 
ATOM     23  C   UNL     1      59.971  30.827  65.980  0.00  0.00    +0.000 A 
ATOM     24  C   UNL     1      60.711  31.931  66.402  0.00  0.00    +0.000 A 
ATOM     25  C   UNL     1      60.628  32.352  67.725  0.00  0.00    +0.000 A 
BRANCH  22  26
ATOM     26  O   UNL     1      58.453  29.058  66.365  0.00  0.00    +0.000 OA
ATOM     27  C   UNL     1      57.089  29.278  66.118  0.00  0.00    +0.000 C 
ENDBRANCH  22  26
BRANCH  23  28
ATOM     28  O   UNL     1      60.057  30.417  64.677  0.00  0.00    +0.000 OA
ATOM     29  H   UNL     1      60.520  29.560  64.650  0.00  0.00    +0.000 HD
ENDBRANCH  23  28
ENDBRANCH  19  20
ENDBRANCH   4  18
TORSDOF 8
ENDMDL
MODEL 3
REMARK VINA RESULT:      -6.1      1.667      2.526
REMARK  Name = Curcumin.pdbqt.pdb
REMARK  8 active torsions:
REMARK  status: ('A' for Active; 'I' for Inactive)
REMARK    1  A    between atoms: C_2  and  C_4
REMARK    2  A    between atoms: C_5  and  C_6
REMARK    3  A    between atoms: C_8  and  O_12
REMARK    4  A    between atoms: C_9  and  O_14
REMARK    5  A    between atoms: C_16  and  C_18
REMARK    6  A    between atoms: C_19  and  C_20
REMARK    7  A    between atoms: C_22  and  O_26
REMARK    8  A    between atoms: C_23  and  O_28
REMARK                            x       y       z     vdW  Elec       q    Type
REMARK                         _______ _______ _______ _____ _____    ______ ____
ROOT
ATOM      1  C   UNL     1      59.865  33.267  71.665  0.00  0.00    +0.000 C 
ATOM      2  C   UNL     1      59.931  31.882  71.336  0.00  0.00    +0.000 C 
ATOM      3  O   UNL     1      60.105  31.058  72.222  0.00  0.00    +0.000 OA
ATOM      4  C   UNL     1      59.803  34.652  71.995  0.00  0.00    +0.000 C 
ATOM      5  O   UNL     1      59.944  35.492  71.117  0.00  0.00    +0.000 OA
ENDROOT
BRANCH   2   6
ATOM      6  C   UNL     1      59.791  31.463  69.965  0.00  0.00    +0.000 C 
ATOM      7  C   UNL     1      59.674  31.112  68.822  0.00  0.00    +0.000 C 
BRANCH   7   8
ATOM      8  C   UNL     1      59.533  30.696  67.465  0.00  0.00    +0.000 A 
ATOM      9  C   UNL     1      58.603  29.713  67.132  0.00  0.00    +0.000 A 
ATOM     10  C   UNL     1      58.451  29.294  65.807  0.00  0.00    +0.000 A 
ATOM     11  C   UNL     1      59.252  29.879  64.821  0.00  0.00    +0.000 A 
ATOM     12  C   UNL     1      60.183  30.863  65.151  0.00  0.00    +0.000 A 
ATOM     13  C   UNL     1      60.324  31.271  66.475  0.00  0.00    +0.000 A 
BRANCH  10  14
ATOM     14  O   UNL     1      57.557  28.334  65.405  0.00  0.00    +0.000 OA
ATOM     15  C   UNL     1      56.326  28.321  66.071  0.00  0.00    +0.000 C 
ENDBRANCH  10  14
BRANCH  11  16
ATOM     16  O   UNL     1      59.175  29.534  63.500  0.00  0.00    +0.000 OA
ATOM     17  H   UNL     1      58.994  30.316  62.951  0.00  0.00    +0.000 HD
ENDBRANCH  11  16
ENDBRANCH   7   8
ENDBRANCH   2   6
BRANCH   4  18
ATOM     18  C   UNL     1      59.574  35.053  73.360  0.00  0.00    +0.000 C 
ATOM     19  C   UNL     1      59.387  35.386  74.499  0.00  0.00    +0.000 C 
BRANCH  19  20
ATOM     20  C   UNL     1      59.168  35.778  75.852  0.00  0.00    +0.000 A 
ATOM     21  C   UNL     1      58.047  36.538  76.181  0.00  0.00    +0.000 A 
ATOM     22  C   UNL     1      57.818  36.931  77.503  0.00  0.00    +0.000 A 
ATOM     23  C   UNL     1      58.733  36.545  78.486  0.00  0.00    +0.000 A 
ATOM     24  C   UNL     1      59.856  35.785  78.162  0.00  0.00    +0.000 A 
ATOM     25  C   UNL     1      60.072  35.401  76.842  0.00  0.00    +0.000 A 
BRANCH  22  26
ATOM     26  O   UNL     1      56.741  37.680  77.913  0.00  0.00    +0.000 OA
ATOM     27  C   UNL     1      55.497  37.030  77.859  0.00  0.00    +0.000 C 
ENDBRANCH  22  26
BRANCH  23  28
ATOM     28  O   UNL     1      58.526  36.920  79.785  0.00  0.00    +0.000 OA
ATOM     29  H   UNL     1      58.756  37.862  79.879  0.00  0.00    +0.000 HD
ENDBRANCH  23  28
ENDBRANCH  19  20
ENDBRANCH   4  18
TORSDOF 8
ENDMDL
MODEL 4
REMARK VINA RESULT:      -6.0      0.875      1.727
REMARK  Name = Curcumin.pdbqt.pdb
REMARK  8 active torsions:
REMARK  status: ('A' for Active; 'I' for Inactive)
REMARK    1  A    between atoms: C_2  and  C_4
REMARK    2  A    between atoms: C_5  and  C_6
REMARK    3  A    between atoms: C_8  and  O_12
REMARK    4  A    between atoms: C_9  and  O_14
REMARK    5  A    between atoms: C_16  and  C_18
REMARK    6  A    between atoms: C_19  and  C_20
REMARK    7  A    between atoms: C_22  and  O_26
REMARK    8  A    between atoms: C_23  and  O_28
REMARK                            x       y       z     vdW  Elec       q    Type
REMARK                         _______ _______ _______ _____ _____    ______ ____
ROOT
ATOM      1  C   UNL     1      58.725  34.163  72.744  0.00  0.00    +0.000 C 
ATOM      2  C   UNL     1      59.413  32.967  72.387  0.00  0.00    +0.000 C 
ATOM      3  O   UNL     1      59.951  32.296  73.256  0.00  0.00    +0.000 OA
ATOM      4  C   UNL     1      58.040  35.361  73.101  0.00  0.00    +0.000 C 
ATOM      5  O   UNL     1      57.775  36.188  72.240  0.00  0.00    +0.000 OA
ENDROOT
BRANCH   2   6
ATOM      6  C   UNL     1      59.469  32.556  71.008  0.00  0.00    +0.000 C 
ATOM      7  C   UNL     1      59.514  32.211  69.858  0.00  0.00    +0.000 C 
BRANCH   7   8
ATOM      8  C   UNL     1      59.567  31.804  68.492  0.00  0.00    +0.000 A 
ATOM      9  C   UNL     1      60.027  32.690  67.520  0.00  0.00    +0.000 A 
ATOM     10  C   UNL     1      60.086  32.308  66.176  0.00  0.00    +0.000 A 
ATOM     11  C   UNL     1      59.673  31.019  65.826  0.00  0.00    +0.000 A 
ATOM     12  C   UNL     1      59.213  30.130  66.796  0.00  0.00    +0.000 A 
ATOM     13  C   UNL     1      59.159  30.523  68.131  0.00  0.00    +0.000 A 
BRANCH  10  14
ATOM     14  O   UNL     1      60.527  33.125  65.165  0.00  0.00    +0.000 OA
ATOM     15  C   UNL     1      59.699  34.205  64.840  0.00  0.00    +0.000 C 
ENDBRANCH  10  14
BRANCH  11  16
ATOM     16  O   UNL     1      59.694  30.555  64.540  0.00  0.00    +0.000 OA
ATOM     17  H   UNL     1      60.603  30.540  64.195  0.00  0.00    +0.000 HD
ENDBRANCH  11  16
ENDBRANCH   7   8
ENDBRANCH   2   6
BRANCH   4  18
ATOM     18  C   UNL     1      57.664  35.587  74.473  0.00  0.00    +0.000 C 
ATOM     19  C   UNL     1      57.348  35.773  75.618  0.00  0.00    +0.000 C 
BRANCH  19  20
ATOM     20  C   UNL     1      56.972  35.989  76.975  0.00  0.00    +0.000 A 
ATOM     21  C   UNL     1      57.853  35.652  78.002  0.00  0.00    +0.000 A 
ATOM     22  C   UNL     1      57.499  35.858  79.338  0.00  0.00    +0.000 A 
ATOM     23  C   UNL     1      56.247  36.409  79.624  0.00  0.00    +0.000 A 
ATOM     24  C   UNL     1      55.362  36.747  78.601  0.00  0.00    +0.000 A 
ATOM     25  C   UNL     1      55.726  36.537  77.275  0.00  0.00    +0.000 A 
BRANCH  22  26
ATOM     26  O   UNL     1      58.306  35.555  80.409  0.00  0.00    +0.000 OA
ATOM     27  C   UNL     1      58.602  34.193  80.576  0.00  0.00    +0.000 C 
ENDBRANCH  22  26
BRANCH  23  28
ATOM     28  O   UNL     1      55.882  36.618  80.925  0.00  0.00    +0.000 OA
ATOM     29  H   UNL     1      56.676  36.555  81.486  0.00  0.00    +0.000 HD
ENDBRANCH  23  28
ENDBRANCH  19  20
ENDBRANCH   4  18
TORSDOF 8
ENDMDL
MODEL 5
REMARK VINA RESULT:      -5.6      6.896      8.431
REMARK  Name = Curcumin.pdbqt.pdb
REMARK  8 active torsions:
REMARK  status: ('A' for Active; 'I' for Inactive)
REMARK    1  A    between atoms: C_2  and  C_4
REMARK    2  A    between atoms: C_5  and  C_6
REMARK    3  A    between atoms: C_8  and  O_12
REMARK    4  A    between atoms: C_9  and  O_14
REMARK    5  A    between atoms: C_16  and  C_18
REMARK    6  A    between atoms: C_19  and  C_20
REMARK    7  A    between atoms: C_22  and  O_26
REMARK    8  A    between atoms: C_23  and  O_28
REMARK                            x       y       z     vdW  Elec       q    Type
REMARK                         _______ _______ _______ _____ _____    ______ ____
ROOT
ATOM      1  C   UNL     1      56.942  39.388  72.795  0.00  0.00    +0.000 C 
ATOM      2  C   UNL     1      57.602  40.485  72.170  0.00  0.00    +0.000 C 
ATOM      3  O   UNL     1      58.521  41.048  72.747  0.00  0.00    +0.000 OA
ATOM      4  C   UNL     1      56.281  38.293  73.423  0.00  0.00    +0.000 C 
ATOM      5  O   UNL     1      55.187  37.929  73.015  0.00  0.00    +0.000 OA
ENDROOT
BRANCH   2   6
ATOM      6  C   UNL     1      57.185  40.922  70.862  0.00  0.00    +0.000 C 
ATOM      7  C   UNL     1      56.839  41.285  69.770  0.00  0.00    +0.000 C 
BRANCH   7   8
ATOM      8  C   UNL     1      56.426  41.715  68.474  0.00  0.00    +0.000 A 
ATOM      9  C   UNL     1      57.023  42.830  67.889  0.00  0.00    +0.000 A 
ATOM     10  C   UNL     1      56.632  43.265  66.619  0.00  0.00    +0.000 A 
ATOM     11  C   UNL     1      55.628  42.560  65.948  0.00  0.00    +0.000 A 
ATOM     12  C   UNL     1      55.029  41.444  66.531  0.00  0.00    +0.000 A 
ATOM     13  C   UNL     1      55.428  41.022  67.796  0.00  0.00    +0.000 A 
BRANCH  10  14
ATOM     14  O   UNL     1      57.174  44.352  65.981  0.00  0.00    +0.000 OA
ATOM     15  C   UNL     1      58.462  44.182  65.461  0.00  0.00    +0.000 C 
ENDBRANCH  10  14
BRANCH  11  16
ATOM     16  O   UNL     1      55.179  42.910  64.705  0.00  0.00    +0.000 OA
ATOM     17  H   UNL     1      54.208  42.888  64.671  0.00  0.00    +0.000 HD
ENDBRANCH  11  16
ENDBRANCH   7   8
ENDBRANCH   2   6
BRANCH   4  18
ATOM     18  C   UNL     1      56.906  37.622  74.534  0.00  0.00    +0.000 C 
ATOM     19  C   UNL     1      57.424  37.058  75.461  0.00  0.00    +0.000 C 
BRANCH  19  20
ATOM     20  C   UNL     1      58.037  36.387  76.559  0.00  0.00    +0.000 A 
ATOM     21  C   UNL     1      57.246  35.717  77.491  0.00  0.00    +0.000 A 
ATOM     22  C   UNL     1      57.830  35.054  78.574  0.00  0.00    +0.000 A 
ATOM     23  C   UNL     1      59.222  35.077  78.703  0.00  0.00    +0.000 A 
ATOM     24  C   UNL     1      60.017  35.746  77.774  0.00  0.00    +0.000 A 
ATOM     25  C   UNL     1      59.422  36.402  76.700  0.00  0.00    +0.000 A 
BRANCH  22  26
ATOM     26  O   UNL     1      57.126  34.371  79.536  0.00  0.00    +0.000 OA
ATOM     27  C   UNL     1      56.488  35.168  80.499  0.00  0.00    +0.000 C 
ENDBRANCH  22  26
BRANCH  23  28
ATOM     28  O   UNL     1      59.813  34.434  79.756  0.00  0.00    +0.000 OA
ATOM     29  H   UNL     1      59.684  33.474  79.648  0.00  0.00    +0.000 HD
ENDBRANCH  23  28
ENDBRANCH  19  20
ENDBRANCH   4  18
TORSDOF 8
ENDMDL
MODEL 6
REMARK VINA RESULT:      -5.5     42.452     45.581
REMARK  Name = Curcumin.pdbqt.pdb
REMARK  8 active torsions:
REMARK  status: ('A' for Active; 'I' for Inactive)
REMARK    1  A    between atoms: C_2  and  C_4
REMARK    2  A    between atoms: C_5  and  C_6
REMARK    3  A    between atoms: C_8  and  O_12
REMARK    4  A    between atoms: C_9  and  O_14
REMARK    5  A    between atoms: C_16  and  C_18
REMARK    6  A    between atoms: C_19  and  C_20
REMARK    7  A    between atoms: C_22  and  O_26
REMARK    8  A    between atoms: C_23  and  O_28
REMARK                            x       y       z     vdW  Elec       q    Type
REMARK                         _______ _______ _______ _____ _____    ______ ____
ROOT
ATOM      1  C   UNL     1      20.744  17.214  91.346  0.00  0.00    +0.000 C 
ATOM      2  C   UNL     1      22.078  16.996  91.795  0.00  0.00    +0.000 C 
ATOM      3  O   UNL     1      22.729  16.071  91.332  0.00  0.00    +0.000 OA
ATOM      4  C   UNL     1      19.408  17.429  90.898  0.00  0.00    +0.000 C 
ATOM      5  O   UNL     1      18.652  18.130  91.556  0.00  0.00    +0.000 OA
ENDROOT
BRANCH   2   6
ATOM      6  C   UNL     1      22.651  17.868  92.789  0.00  0.00    +0.000 C 
ATOM      7  C   UNL     1      23.129  18.593  93.619  0.00  0.00    +0.000 C 
BRANCH   7   8
ATOM      8  C   UNL     1      23.698  19.455  94.603  0.00  0.00    +0.000 A 
ATOM      9  C   UNL     1      24.681  18.972  95.464  0.00  0.00    +0.000 A 
ATOM     10  C   UNL     1      25.251  19.802  96.435  0.00  0.00    +0.000 A 
ATOM     11  C   UNL     1      24.814  21.127  96.525  0.00  0.00    +0.000 A 
ATOM     12  C   UNL     1      23.830  21.613  95.664  0.00  0.00    +0.000 A 
ATOM     13  C   UNL     1      23.272  20.776  94.702  0.00  0.00    +0.000 A 
BRANCH  10  14
ATOM     14  O   UNL     1      26.222  19.397  97.315  0.00  0.00    +0.000 OA
ATOM     15  C   UNL     1      27.252  18.615  96.780  0.00  0.00    +0.000 C 
ENDBRANCH  10  14
BRANCH  11  16
ATOM     16  O   UNL     1      25.310  22.013  97.441  0.00  0.00    +0.000 OA
ATOM     17  H   UNL     1      24.622  22.639  97.722  0.00  0.00    +0.000 HD
ENDBRANCH  11  16
ENDBRANCH   7   8
ENDBRANCH   2   6
BRANCH   4  18
ATOM     18  C   UNL     1      18.957  16.818  89.673  0.00  0.00    +0.000 C 
ATOM     19  C   UNL     1      18.577  16.308  88.654  0.00  0.00    +0.000 C 
BRANCH  19  20
ATOM     20  C   UNL     1      18.124  15.700  87.447  0.00  0.00    +0.000 A 
ATOM     21  C   UNL     1      19.047  15.304  86.480  0.00  0.00    +0.000 A 
ATOM     22  C   UNL     1      18.620  14.706  85.291  0.00  0.00    +0.000 A 
ATOM     23  C   UNL     1      17.250  14.514  85.092  0.00  0.00    +0.000 A 
ATOM     24  C   UNL     1      16.322  14.909  86.055  0.00  0.00    +0.000 A 
ATOM     25  C   UNL     1      16.761  15.503  87.234  0.00  0.00    +0.000 A 
BRANCH  22  26
ATOM     26  O   UNL     1      19.461  14.287  84.289  0.00  0.00    +0.000 OA
ATOM     27  C   UNL     1      20.572  13.538  84.705  0.00  0.00    +0.000 C 
ENDBRANCH  22  26
BRANCH  23  28
ATOM     28  O   UNL     1      16.811  13.932  83.934  0.00  0.00    +0.000 OA
ATOM     29  H   UNL     1      15.933  13.542  84.095  0.00  0.00    +0.000 HD
ENDBRANCH  23  28
ENDBRANCH  19  20
ENDBRANCH   4  18
TORSDOF 8
ENDMDL
MODEL 7
REMARK VINA RESULT:      -5.4      6.820      8.289
REMARK  Name = Curcumin.pdbqt.pdb
REMARK  8 active torsions:
REMARK  status: ('A' for Active; 'I' for Inactive)
REMARK    1  A    between atoms: C_2  and  C_4
REMARK    2  A    between atoms: C_5  and  C_6
REMARK    3  A    between atoms: C_8  and  O_12
REMARK    4  A    between atoms: C_9  and  O_14
REMARK    5  A    between atoms: C_16  and  C_18
REMARK    6  A    between atoms: C_19  and  C_20
REMARK    7  A    between atoms: C_22  and  O_26
REMARK    8  A    between atoms: C_23  and  O_28
REMARK                            x       y       z     vdW  Elec       q    Type
REMARK                         _______ _______ _______ _____ _____    ______ ____
ROOT
ATOM      1  C   UNL     1      56.721  39.360  72.790  0.00  0.00    +0.000 C 
ATOM      2  C   UNL     1      55.731  40.083  72.063  0.00  0.00    +0.000 C 
ATOM      3  O   UNL     1      54.562  40.031  72.417  0.00  0.00    +0.000 OA
ATOM      4  C   UNL     1      57.709  38.632  73.514  0.00  0.00    +0.000 C 
ATOM      5  O   UNL     1      58.801  38.421  73.007  0.00  0.00    +0.000 OA
ENDROOT
BRANCH   2   6
ATOM      6  C   UNL     1      56.115  40.873  70.921  0.00  0.00    +0.000 C 
ATOM      7  C   UNL     1      56.436  41.532  69.970  0.00  0.00    +0.000 C 
BRANCH   7   8
ATOM      8  C   UNL     1      56.818  42.314  68.839  0.00  0.00    +0.000 A 
ATOM      9  C   UNL     1      57.565  41.735  67.815  0.00  0.00    +0.000 A 
ATOM     10  C   UNL     1      57.948  42.486  66.699  0.00  0.00    +0.000 A 
ATOM     11  C   UNL     1      57.567  43.830  66.631  0.00  0.00    +0.000 A 
ATOM     12  C   UNL     1      56.819  44.411  67.654  0.00  0.00    +0.000 A 
ATOM     13  C   UNL     1      56.444  43.652  68.759  0.00  0.00    +0.000 A 
BRANCH  10  14
ATOM     14  O   UNL     1      58.683  41.985  65.654  0.00  0.00    +0.000 OA
ATOM     15  C   UNL     1      60.070  41.951  65.836  0.00  0.00    +0.000 C 
ENDBRANCH  10  14
BRANCH  11  16
ATOM     16  O   UNL     1      57.894  44.642  65.581  0.00  0.00    +0.000 OA
ATOM     17  H   UNL     1      57.529  45.534  65.710  0.00  0.00    +0.000 HD
ENDBRANCH  11  16
ENDBRANCH   7   8
ENDBRANCH   2   6
BRANCH   4  18
ATOM     18  C   UNL     1      57.414  38.151  74.840  0.00  0.00    +0.000 C 
ATOM     19  C   UNL     1      57.172  37.748  75.946  0.00  0.00    +0.000 C 
BRANCH  19  20
ATOM     20  C   UNL     1      56.889  37.268  77.258  0.00  0.00    +0.000 A 
ATOM     21  C   UNL     1      57.936  36.939  78.118  0.00  0.00    +0.000 A 
ATOM     22  C   UNL     1      57.675  36.467  79.407  0.00  0.00    +0.000 A 
ATOM     23  C   UNL     1      56.345  36.333  79.817  0.00  0.00    +0.000 A 
ATOM     24  C   UNL     1      55.295  36.662  78.961  0.00  0.00    +0.000 A 
ATOM     25  C   UNL     1      55.568  37.130  77.680  0.00  0.00    +0.000 A 
BRANCH  22  26
ATOM     26  O   UNL     1      58.645  36.120  80.316  0.00  0.00    +0.000 OA
ATOM     27  C   UNL     1      59.129  34.806  80.212  0.00  0.00    +0.000 C 
ENDBRANCH  22  26
BRANCH  23  28
ATOM     28  O   UNL     1      56.069  35.873  81.075  0.00  0.00    +0.000 OA
ATOM     29  H   UNL     1      55.171  35.494  81.079  0.00  0.00    +0.000 HD
ENDBRANCH  23  28
ENDBRANCH  19  20
ENDBRANCH   4  18
TORSDOF 8
ENDMDL
MODEL 8
REMARK VINA RESULT:      -5.4     22.262     25.740
REMARK  Name = Curcumin.pdbqt.pdb
REMARK  8 active torsions:
REMARK  status: ('A' for Active; 'I' for Inactive)
REMARK    1  A    between atoms: C_2  and  C_4
REMARK    2  A    between atoms: C_5  and  C_6
REMARK    3  A    between atoms: C_8  and  O_12
REMARK    4  A    between atoms: C_9  and  O_14
REMARK    5  A    between atoms: C_16  and  C_18
REMARK    6  A    between atoms: C_19  and  C_20
REMARK    7  A    between atoms: C_22  and  O_26
REMARK    8  A    between atoms: C_23  and  O_28
REMARK                            x       y       z     vdW  Elec       q    Type
REMARK                         _______ _______ _______ _____ _____    ______ ____
ROOT
ATOM      1  C   UNL     1      38.667  23.765  83.296  0.00  0.00    +0.000 C 
ATOM      2  C   UNL     1      39.822  23.919  82.476  0.00  0.00    +0.000 C 
ATOM      3  O   UNL     1      39.834  23.441  81.352  0.00  0.00    +0.000 OA
ATOM      4  C   UNL     1      37.512  23.607  84.117  0.00  0.00    +0.000 C 
ATOM      5  O   UNL     1      37.593  23.796  85.322  0.00  0.00    +0.000 OA
ENDROOT
BRANCH   2   6
ATOM      6  C   UNL     1      40.966  24.638  82.977  0.00  0.00    +0.000 C 
ATOM      7  C   UNL     1      41.919  25.238  83.396  0.00  0.00    +0.000 C 
BRANCH   7   8
ATOM      8  C   UNL     1      43.052  25.948  83.892  0.00  0.00    +0.000 A 
ATOM      9  C   UNL     1      44.332  25.430  83.709  0.00  0.00    +0.000 A 
ATOM     10  C   UNL     1      45.454  26.113  84.189  0.00  0.00    +0.000 A 
ATOM     11  C   UNL     1      45.266  27.327  84.857  0.00  0.00    +0.000 A 
ATOM     12  C   UNL     1      43.986  27.848  85.042  0.00  0.00    +0.000 A 
ATOM     13  C   UNL     1      42.878  27.157  84.559  0.00  0.00    +0.000 A 
BRANCH  10  14
ATOM     14  O   UNL     1      46.743  25.665  84.045  0.00  0.00    +0.000 OA
ATOM     15  C   UNL     1      47.121  25.278  82.754  0.00  0.00    +0.000 C 
ENDBRANCH  10  14
BRANCH  11  16
ATOM     16  O   UNL     1      46.301  28.065  85.361  0.00  0.00    +0.000 OA
ATOM     17  H   UNL     1      47.104  27.939  84.828  0.00  0.00    +0.000 HD
ENDBRANCH  11  16
ENDBRANCH   7   8
ENDBRANCH   2   6
BRANCH   4  18
ATOM     18  C   UNL     1      36.257  23.227  83.520  0.00  0.00    +0.000 C 
ATOM     19  C   UNL     1      35.210  22.914  83.020  0.00  0.00    +0.000 C 
BRANCH  19  20
ATOM     20  C   UNL     1      33.968  22.546  82.426  0.00  0.00    +0.000 A 
ATOM     21  C   UNL     1      33.011  21.869  83.181  0.00  0.00    +0.000 A 
ATOM     22  C   UNL     1      31.788  21.501  82.614  0.00  0.00    +0.000 A 
ATOM     23  C   UNL     1      31.543  21.826  81.277  0.00  0.00    +0.000 A 
ATOM     24  C   UNL     1      32.496  22.503  80.518  0.00  0.00    +0.000 A 
ATOM     25  C   UNL     1      33.710  22.863  81.094  0.00  0.00    +0.000 A 
BRANCH  22  26
ATOM     26  O   UNL     1      30.792  20.833  83.286  0.00  0.00    +0.000 OA
ATOM     27  C   UNL     1      29.991  21.625  84.123  0.00  0.00    +0.000 C 
ENDBRANCH  22  26
BRANCH  23  28
ATOM     28  O   UNL     1      30.352  21.474  80.704  0.00  0.00    +0.000 OA
ATOM     29  H   UNL     1      30.319  20.503  80.623  0.00  0.00    +0.000 HD
ENDBRANCH  23  28
ENDBRANCH  19  20
ENDBRANCH   4  18
TORSDOF 8
ENDMDL
MODEL 9
REMARK VINA RESULT:      -5.4     21.920     25.295
REMARK  Name = Curcumin.pdbqt.pdb
REMARK  8 active torsions:
REMARK  status: ('A' for Active; 'I' for Inactive)
REMARK    1  A    between atoms: C_2  and  C_4
REMARK    2  A    between atoms: C_5  and  C_6
REMARK    3  A    between atoms: C_8  and  O_12
REMARK    4  A    between atoms: C_9  and  O_14
REMARK    5  A    between atoms: C_16  and  C_18
REMARK    6  A    between atoms: C_19  and  C_20
REMARK    7  A    between atoms: C_22  and  O_26
REMARK    8  A    between atoms: C_23  and  O_28
REMARK                            x       y       z     vdW  Elec       q    Type
REMARK                         _______ _______ _______ _____ _____    ______ ____
ROOT
ATOM      1  C   UNL     1      38.854  23.814  83.578  0.00  0.00    +0.000 C 
ATOM      2  C   UNL     1      37.781  23.519  84.468  0.00  0.00    +0.000 C 
ATOM      3  O   UNL     1      37.969  23.559  85.675  0.00  0.00    +0.000 OA
ATOM      4  C   UNL     1      39.928  24.105  82.688  0.00  0.00    +0.000 C 
ATOM      5  O   UNL     1      39.851  23.773  81.514  0.00  0.00    +0.000 OA
ENDROOT
BRANCH   2   6
ATOM      6  C   UNL     1      36.484  23.180  83.941  0.00  0.00    +0.000 C 
ATOM      7  C   UNL     1      35.403  22.895  83.501  0.00  0.00    +0.000 C 
BRANCH   7   8
ATOM      8  C   UNL     1      34.119  22.557  82.980  0.00  0.00    +0.000 A 
ATOM      9  C   UNL     1      33.659  23.167  81.814  0.00  0.00    +0.000 A 
ATOM     10  C   UNL     1      32.403  22.847  81.289  0.00  0.00    +0.000 A 
ATOM     11  C   UNL     1      31.617  21.904  81.957  0.00  0.00    +0.000 A 
ATOM     12  C   UNL     1      32.074  21.292  83.124  0.00  0.00    +0.000 A 
ATOM     13  C   UNL     1      33.327  21.620  83.636  0.00  0.00    +0.000 A 
BRANCH  10  14
ATOM     14  O   UNL     1      31.886  23.405  80.147  0.00  0.00    +0.000 OA
ATOM     15  C   UNL     1      31.387  24.707  80.269  0.00  0.00    +0.000 C 
ENDBRANCH  10  14
BRANCH  11  16
ATOM     16  O   UNL     1      30.377  21.528  81.521  0.00  0.00    +0.000 OA
ATOM     17  H   UNL     1      30.448  20.892  80.789  0.00  0.00    +0.000 HD
ENDBRANCH  11  16
ENDBRANCH   7   8
ENDBRANCH   2   6
BRANCH   4  18
ATOM     18  C   UNL     1      41.098  24.789  83.178  0.00  0.00    +0.000 C 
ATOM     19  C   UNL     1      42.076  25.358  83.584  0.00  0.00    +0.000 C 
BRANCH  19  20
ATOM     20  C   UNL     1      43.238  26.029  84.063  0.00  0.00    +0.000 A 
ATOM     21  C   UNL     1      44.393  25.302  84.345  0.00  0.00    +0.000 A 
ATOM     22  C   UNL     1      45.541  25.945  84.816  0.00  0.00    +0.000 A 
ATOM     23  C   UNL     1      45.507  27.331  84.997  0.00  0.00    +0.000 A 
ATOM     24  C   UNL     1      44.355  28.063  84.717  0.00  0.00    +0.000 A 
ATOM     25  C   UNL     1      43.218  27.410  84.249  0.00  0.00    +0.000 A 
BRANCH  22  26
ATOM     26  O   UNL     1      46.719  25.305  85.118  0.00  0.00    +0.000 OA
ATOM     27  C   UNL     1      47.474  24.876  84.015  0.00  0.00    +0.000 C 
ENDBRANCH  22  26
BRANCH  23  28
ATOM     28  O   UNL     1      46.621  27.979  85.458  0.00  0.00    +0.000 OA
ATOM     29  H   UNL     1      46.357  28.859  85.782  0.00  0.00    +0.000 HD
ENDBRANCH  23  28
ENDBRANCH  19  20
ENDBRANCH   4  18
TORSDOF 8
ENDMDL
