MODEL 1
REMARK VINA RESULT:      -8.3      0.000      0.000
REMARK  Name = Cyclosporin_A.pdbqt.pdb
REMARK  4 active torsions:
REMARK  status: ('A' for Active; 'I' for Inactive)
REMARK    1  A    between atoms: N_13  and  C_36
REMARK    2  A    between atoms: C_36  and  O_70
REMARK    3  A    between atoms: C_72  and  C_73
REMARK    4  A    between atoms: C_75  and  C_76
REMARK                            x       y       z     vdW  Elec       q    Type
REMARK                         _______ _______ _______ _____ _____    ______ ____
ROOT
ATOM      1  O   UNL     1      36.539  33.324  74.586  0.00  0.00    +0.000 OA
ATOM      2  O   UNL     1      40.293  35.847  72.166  0.00  0.00    +0.000 OA
ATOM      3  O   UNL     1      44.147  33.378  73.569  0.00  0.00    +0.000 OA
ATOM      4  O   UNL     1      37.465  31.350  78.974  0.00  0.00    +0.000 OA
ATOM      5  O   UNL     1      41.182  32.727  69.506  0.00  0.00    +0.000 OA
ATOM      6  O   UNL     1      41.731  21.675  71.663  0.00  0.00    +0.000 OA
ATOM      7  O   UNL     1      34.449  28.404  75.324  0.00  0.00    +0.000 OA
ATOM      8  O   UNL     1      40.405  22.988  76.222  0.00  0.00    +0.000 OA
ATOM      9  O   UNL     1      43.626  25.030  68.725  0.00  0.00    +0.000 OA
ATOM     10  O   UNL     1      36.795  24.894  76.674  0.00  0.00    +0.000 OA
ATOM     11  O   UNL     1      41.123  28.529  68.411  0.00  0.00    +0.000 OA
ATOM     12  N   UNL     1      39.544  34.573  73.418  0.00  0.00    +0.000 NA
ATOM     13  N   UNL     1      38.587  32.636  75.644  0.00  0.00    +0.000 NA
ATOM     14  N   UNL     1      42.708  34.473  72.753  0.00  0.00    +0.000 NA
ATOM     15  N   UNL     1      43.283  32.003  70.835  0.00  0.00    +0.000 NA
ATOM     16  N   UNL     1      37.481  30.050  76.910  0.00  0.00    +0.000 NA
ATOM     17  N   UNL     1      43.168  23.463  72.194  0.00  0.00    +0.000 N 
ATOM     18  N   UNL     1      40.867  24.055  74.191  0.00  0.00    +0.000 N 
ATOM     19  N   UNL     1      38.385  24.785  75.513  0.00  0.00    +0.000 NA
ATOM     20  N   UNL     1      36.629  28.020  74.798  0.00  0.00    +0.000 NA
ATOM     21  N   UNL     1      41.811  29.418  70.625  0.00  0.00    +0.000 NA
ATOM     22  N   UNL     1      42.284  25.926  70.521  0.00  0.00    +0.000 NA
ATOM     23  C   UNL     1      38.325  33.963  73.452  0.00  0.00    +0.000 C 
ATOM     24  C   UNL     1      41.593  34.095  73.385  0.00  0.00    +0.000 C 
ATOM     25  C   UNL     1      38.072  32.484  76.917  0.00  0.00    +0.000 C 
ATOM     26  C   UNL     1      37.211  34.449  72.791  0.00  0.00    +0.000 C 
ATOM     27  C   UNL     1      42.105  34.254  74.765  0.00  0.00    +0.000 C 
ATOM     28  C   UNL     1      37.937  33.275  74.583  0.00  0.00    +0.000 C 
ATOM     29  C   UNL     1      40.661  34.701  72.612  0.00  0.00    +0.000 C 
ATOM     30  C   UNL     1      43.405  33.243  71.219  0.00  0.00    +0.000 C 
ATOM     31  C   UNL     1      43.312  33.294  72.578  0.00  0.00    +0.000 C 
ATOM     32  C   UNL     1      37.940  31.176  77.627  0.00  0.00    +0.000 C 
ATOM     33  C   UNL     1      37.731  35.685  72.297  0.00  0.00    +0.000 C 
ATOM     34  C   UNL     1      36.149  34.207  73.597  0.00  0.00    +0.000 C 
ATOM     35  C   UNL     1      39.081  35.584  72.596  0.00  0.00    +0.000 C 
ATOM     36  C   UNL     1      43.538  34.609  73.899  0.00  0.00    +0.000 C 
ATOM     37  C   UNL     1      36.122  29.677  76.755  0.00  0.00    +0.000 C 
ATOM     38  C   UNL     1      40.968  22.988  73.336  0.00  0.00    +0.000 A 
ATOM     39  C   UNL     1      42.008  32.089  70.468  0.00  0.00    +0.000 C 
ATOM     40  C   UNL     1      43.484  23.904  70.884  0.00  0.00    +0.000 C 
ATOM     41  C   UNL     1      39.556  24.806  76.196  0.00  0.00    +0.000 C 
ATOM     42  C   UNL     1      44.317  32.249  69.797  0.00  0.00    +0.000 C 
ATOM     43  C   UNL     1      40.072  21.893  73.141  0.00  0.00    +0.000 A 
ATOM     44  C   UNL     1      44.800  22.718  70.500  0.00  0.00    +0.000 C 
ATOM     45  C   UNL     1      41.578  30.665  70.355  0.00  0.00    +0.000 C 
ATOM     46  C   UNL     1      39.474  23.612  77.108  0.00  0.00    +0.000 C 
ATOM     47  C   UNL     1      35.239  30.359  77.645  0.00  0.00    +0.000 C 
ATOM     48  C   UNL     1      41.992  22.796  72.415  0.00  0.00    +0.000 A 
ATOM     49  C   UNL     1      35.755  28.817  75.772  0.00  0.00    +0.000 C 
ATOM     50  C   UNL     1      40.344  23.995  75.395  0.00  0.00    +0.000 C 
ATOM     51  C   UNL     1      43.095  24.916  70.039  0.00  0.00    +0.000 C 
ATOM     52  C   UNL     1      37.289  26.915  75.499  0.00  0.00    +0.000 C 
ATOM     53  C   UNL     1      38.748  21.620  73.803  0.00  0.00    +0.000 C 
ATOM     54  C   UNL     1      40.569  21.130  72.116  0.00  0.00    +0.000 A 
ATOM     55  C   UNL     1      37.757  25.781  76.213  0.00  0.00    +0.000 C 
ATOM     56  C   UNL     1      41.854  26.935  69.836  0.00  0.00    +0.000 C 
ATOM     57  C   UNL     1      40.894  31.511  69.525  0.00  0.00    +0.000 C 
ATOM     58  C   UNL     1      44.183  22.702  71.725  0.00  0.00    +0.000 C 
ATOM     59  C   UNL     1      35.194  31.207  78.491  0.00  0.00    +0.000 C 
ATOM     60  C   UNL     1      41.589  28.427  69.774  0.00  0.00    +0.000 C 
ATOM     61  C   UNL     1      37.614  23.722  76.368  0.00  0.00    +0.000 C 
ATOM     62  C   UNL     1      35.328  27.863  74.641  0.00  0.00    +0.000 C 
ATOM     63  C   UNL     1      41.412  27.339  68.620  0.00  0.00    +0.000 C 
ATOM     64  H   UNL     1      37.951  29.968  76.008  0.00  0.00    +0.000 HD
ATOM     65  H   UNL     1      41.004  24.975  73.779  0.00  0.00    +0.000 HD
ATOM     66  H   UNL     1      42.416  29.219  71.418  0.00  0.00    +0.000 HD
ATOM     67  H   UNL     1      42.361  26.006  71.531  0.00  0.00    +0.000 HD
ATOM     68  C   UNL     1      37.306  33.379  77.478  0.00  0.00    +0.000 C 
ATOM     69  C   UNL     1      36.335  33.402  78.518  0.00  0.00    +0.000 C 
ATOM     70  C   UNL     1      36.204  32.041  79.073  0.00  0.00    +0.000 C 
ATOM     71  C   UNL     1      42.329  35.462  75.900  0.00  0.00    +0.000 C 
ATOM     72  C   UNL     1      42.176  35.352  77.219  0.00  0.00    +0.000 C 
ATOM     73  C   UNL     1      43.407  35.330  75.020  0.00  0.00    +0.000 C 
ATOM     74  C   UNL     1      44.516  33.567  70.312  0.00  0.00    +0.000 C 
ATOM     75  C   UNL     1      44.690  33.423  68.943  0.00  0.00    +0.000 C 
ATOM     76  C   UNL     1      46.075  33.608  68.285  0.00  0.00    +0.000 C 
ATOM     77  C   UNL     1      44.049  32.306  68.442  0.00  0.00    +0.000 C 
ATOM     78  C   UNL     1      38.901  23.103  78.513  0.00  0.00    +0.000 C 
ATOM     79  C   UNL     1      39.279  22.192  79.406  0.00  0.00    +0.000 C 
ATOM     80  C   UNL     1      37.831  23.236  77.627  0.00  0.00    +0.000 C 
ATOM     81  C   UNL     1      45.195  22.984  69.253  0.00  0.00    +0.000 C 
ATOM     82  C   UNL     1      46.282  22.213  68.580  0.00  0.00    +0.000 C 
ATOM     83  C   UNL     1      44.538  24.064  68.614  0.00  0.00    +0.000 C 
ENDROOT
BRANCH  69  84
ATOM     84  C   UNL     1      35.361  34.407  78.725  0.00  0.00    +0.000 C 
ATOM     85  C   UNL     1      34.535  35.260  78.910  0.00  0.00    +0.000 C 
BRANCH  85  86
ATOM     86  C   UNL     1      33.482  36.346  79.150  0.00  0.00    +0.000 C 
ATOM     87  C   UNL     1      32.563  37.287  79.361  0.00  0.00    +0.000 C 
ENDBRANCH  85  86
ENDBRANCH  69  84
BRANCH  13  88
ATOM     88  C   UNL     1      39.757  31.841  75.309  0.00  0.00    +0.000 C 
BRANCH  88  89
ATOM     89  O   UNL     1      40.818  31.100  75.021  0.00  0.00    +0.000 OA
ATOM     90  H   UNL     1      41.278  31.464  74.243  0.00  0.00    +0.000 HD
ENDBRANCH  88  89
ENDBRANCH  13  88
TORSDOF 4
ENDMDL
MODEL 2
REMARK VINA RESULT:      -8.1     25.543     31.221
REMARK  Name = Cyclosporin_A.pdbqt.pdb
REMARK  4 active torsions:
REMARK  status: ('A' for Active; 'I' for Inactive)
REMARK    1  A    between atoms: N_13  and  C_36
REMARK    2  A    between atoms: C_36  and  O_70
REMARK    3  A    between atoms: C_72  and  C_73
REMARK    4  A    between atoms: C_75  and  C_76
REMARK                            x       y       z     vdW  Elec       q    Type
REMARK                         _______ _______ _______ _____ _____    ______ ____
ROOT
ATOM      1  O   UNL     1      18.352  23.599  87.403  0.00  0.00    +0.000 OA
ATOM      2  O   UNL     1      20.361  18.996  86.358  0.00  0.00    +0.000 OA
ATOM      3  O   UNL     1      16.697  16.104  87.423  0.00  0.00    +0.000 OA
ATOM      4  O   UNL     1      15.122  23.992  91.066  0.00  0.00    +0.000 OA
ATOM      5  O   UNL     1      17.933  18.283  83.012  0.00  0.00    +0.000 OA
ATOM      6  O   UNL     1       6.953  20.518  81.768  0.00  0.00    +0.000 OA
ATOM      7  O   UNL     1      14.128  26.786  86.344  0.00  0.00    +0.000 OA
ATOM      8  O   UNL     1       7.314  22.405  86.305  0.00  0.00    +0.000 OA
ATOM      9  O   UNL     1      10.353  17.417  80.251  0.00  0.00    +0.000 OA
ATOM     10  O   UNL     1       9.902  25.547  86.852  0.00  0.00    +0.000 OA
ATOM     11  O   UNL     1      14.335  19.012  80.698  0.00  0.00    +0.000 OA
ATOM     12  N   UNL     1      19.042  20.229  87.059  0.00  0.00    +0.000 NA
ATOM     13  N   UNL     1      16.903  21.992  88.454  0.00  0.00    +0.000 NA
ATOM     14  N   UNL     1      18.304  17.091  86.802  0.00  0.00    +0.000 NA
ATOM     15  N   UNL     1      16.365  16.686  84.314  0.00  0.00    +0.000 NA
ATOM     16  N   UNL     1      14.453  23.847  88.725  0.00  0.00    +0.000 NA
ATOM     17  N   UNL     1       8.101  18.869  82.995  0.00  0.00    +0.000 N 
ATOM     18  N   UNL     1       8.721  21.338  84.769  0.00  0.00    +0.000 N 
ATOM     19  N   UNL     1       9.694  23.819  85.924  0.00  0.00    +0.000 NA
ATOM     20  N   UNL     1      13.344  24.677  86.007  0.00  0.00    +0.000 NA
ATOM     21  N   UNL     1      14.399  18.600  83.146  0.00  0.00    +0.000 NA
ATOM     22  N   UNL     1      11.059  18.866  82.049  0.00  0.00    +0.000 NA
ATOM     23  C   UNL     1      18.782  21.532  86.753  0.00  0.00    +0.000 C 
ATOM     24  C   UNL     1      18.075  18.362  87.143  0.00  0.00    +0.000 C 
ATOM     25  C   UNL     1      16.560  22.767  89.544  0.00  0.00    +0.000 C 
ATOM     26  C   UNL     1      19.696  22.366  86.134  0.00  0.00    +0.000 C 
ATOM     27  C   UNL     1      17.726  18.109  88.559  0.00  0.00    +0.000 C 
ATOM     28  C   UNL     1      17.944  22.271  87.563  0.00  0.00    +0.000 C 
ATOM     29  C   UNL     1      19.083  18.974  86.479  0.00  0.00    +0.000 C 
ATOM     30  C   UNL     1      17.384  16.381  85.069  0.00  0.00    +0.000 C 
ATOM     31  C   UNL     1      17.098  16.727  86.356  0.00  0.00    +0.000 C 
ATOM     32  C   UNL     1      15.191  23.309  89.801  0.00  0.00    +0.000 C 
ATOM     33  C   UNL     1      20.839  21.510  86.108  0.00  0.00    +0.000 C 
ATOM     34  C   UNL     1      19.534  23.593  86.688  0.00  0.00    +0.000 C 
ATOM     35  C   UNL     1      20.317  20.297  86.531  0.00  0.00    +0.000 C 
ATOM     36  C   UNL     1      17.913  16.491  88.030  0.00  0.00    +0.000 C 
ATOM     37  C   UNL     1      14.500  25.196  88.294  0.00  0.00    +0.000 C 
ATOM     38  C   UNL     1       7.929  21.299  83.650  0.00  0.00    +0.000 A 
ATOM     39  C   UNL     1      16.872  17.816  83.832  0.00  0.00    +0.000 C 
ATOM     40  C   UNL     1       8.774  18.215  81.931  0.00  0.00    +0.000 C 
ATOM     41  C   UNL     1       9.231  22.829  86.723  0.00  0.00    +0.000 C 
ATOM     42  C   UNL     1      16.598  15.440  83.540  0.00  0.00    +0.000 C 
ATOM     43  C   UNL     1       7.195  22.351  83.021  0.00  0.00    +0.000 A 
ATOM     44  C   UNL     1       7.432  17.131  81.375  0.00  0.00    +0.000 C 
ATOM     45  C   UNL     1      15.690  18.507  83.240  0.00  0.00    +0.000 C 
ATOM     46  C   UNL     1       7.902  23.338  87.213  0.00  0.00    +0.000 C 
ATOM     47  C   UNL     1      15.128  26.072  89.229  0.00  0.00    +0.000 C 
ATOM     48  C   UNL     1       7.727  20.178  82.851  0.00  0.00    +0.000 A 
ATOM     49  C   UNL     1      14.055  25.536  87.058  0.00  0.00    +0.000 C 
ATOM     50  C   UNL     1       8.484  22.088  85.821  0.00  0.00    +0.000 C 
ATOM     51  C   UNL     1      10.038  18.208  81.390  0.00  0.00    +0.000 C 
ATOM     52  C   UNL     1      11.962  24.416  86.418  0.00  0.00    +0.000 C 
ATOM     53  C   UNL     1       7.110  23.806  83.396  0.00  0.00    +0.000 C 
ATOM     54  C   UNL     1       6.627  21.835  81.884  0.00  0.00    +0.000 A 
ATOM     55  C   UNL     1      10.599  24.348  86.807  0.00  0.00    +0.000 C 
ATOM     56  C   UNL     1      12.289  18.929  81.653  0.00  0.00    +0.000 C 
ATOM     57  C   UNL     1      16.872  18.819  82.626  0.00  0.00    +0.000 C 
ATOM     58  C   UNL     1       7.255  17.965  82.449  0.00  0.00    +0.000 C 
ATOM     59  C   UNL     1      15.704  26.102  90.280  0.00  0.00    +0.000 C 
ATOM     60  C   UNL     1      13.760  18.855  82.013  0.00  0.00    +0.000 C 
ATOM     61  C   UNL     1       8.682  24.951  86.311  0.00  0.00    +0.000 C 
ATOM     62  C   UNL     1      13.577  25.925  85.647  0.00  0.00    +0.000 C 
ATOM     63  C   UNL     1      13.099  19.028  80.571  0.00  0.00    +0.000 C 
ATOM     64  H   UNL     1      14.493  23.237  87.908  0.00  0.00    +0.000 HD
ATOM     65  H   UNL     1       9.649  20.932  84.675  0.00  0.00    +0.000 HD
ATOM     66  H   UNL     1      13.849  18.219  83.911  0.00  0.00    +0.000 HD
ATOM     67  H   UNL     1      10.848  18.974  83.037  0.00  0.00    +0.000 HD
ATOM     68  C   UNL     1      17.442  23.421  90.249  0.00  0.00    +0.000 C 
ATOM     69  C   UNL     1      17.442  24.550  91.115  0.00  0.00    +0.000 C 
ATOM     70  C   UNL     1      16.064  25.073  91.210  0.00  0.00    +0.000 C 
ATOM     71  C   UNL     1      18.491  17.862  90.026  0.00  0.00    +0.000 C 
ATOM     72  C   UNL     1      18.081  18.290  91.219  0.00  0.00    +0.000 C 
ATOM     73  C   UNL     1      18.321  16.685  89.291  0.00  0.00    +0.000 C 
ATOM     74  C   UNL     1      17.636  15.072  84.451  0.00  0.00    +0.000 C 
ATOM     75  C   UNL     1      17.818  14.666  83.136  0.00  0.00    +0.000 C 
ATOM     76  C   UNL     1      17.804  13.173  82.746  0.00  0.00    +0.000 C 
ATOM     77  C   UNL     1      17.078  15.419  82.243  0.00  0.00    +0.000 C 
ATOM     78  C   UNL     1       7.208  24.271  88.313  0.00  0.00    +0.000 C 
ATOM     79  C   UNL     1       6.028  24.277  88.928  0.00  0.00    +0.000 C 
ATOM     80  C   UNL     1       7.842  25.093  87.380  0.00  0.00    +0.000 C 
ATOM     81  C   UNL     1       7.906  16.451  80.328  0.00  0.00    +0.000 C 
ATOM     82  C   UNL     1       7.084  15.441  79.597  0.00  0.00    +0.000 C 
ATOM     83  C   UNL     1       9.248  16.727  79.969  0.00  0.00    +0.000 C 
ENDROOT
BRANCH  69  84
ATOM     84  C   UNL     1      18.573  25.311  91.492  0.00  0.00    +0.000 C 
ATOM     85  C   UNL     1      19.536  25.958  91.804  0.00  0.00    +0.000 C 
BRANCH  85  86
ATOM     86  C   UNL     1      20.766  26.782  92.199  0.00  0.00    +0.000 C 
ATOM     87  C   UNL     1      21.834  27.502  92.537  0.00  0.00    +0.000 C 
ENDBRANCH  85  86
ENDBRANCH  69  84
BRANCH  13  88
ATOM     88  C   UNL     1      15.949  20.974  88.044  0.00  0.00    +0.000 C 
BRANCH  88  89
ATOM     89  O   UNL     1      15.061  20.062  87.672  0.00  0.00    +0.000 OA
ATOM     90  H   UNL     1      14.175  20.311  87.990  0.00  0.00    +0.000 HD
ENDBRANCH  88  89
ENDBRANCH  13  88
TORSDOF 4
ENDMDL
MODEL 3
REMARK VINA RESULT:      -8.1     10.188     17.344
REMARK  Name = Cyclosporin_A.pdbqt.pdb
REMARK  4 active torsions:
REMARK  status: ('A' for Active; 'I' for Inactive)
REMARK    1  A    between atoms: N_13  and  C_36
REMARK    2  A    between atoms: C_36  and  O_70
REMARK    3  A    between atoms: C_72  and  C_73
REMARK    4  A    between atoms: C_75  and  C_76
REMARK                            x       y       z     vdW  Elec       q    Type
REMARK                         _______ _______ _______ _____ _____    ______ ____
ROOT
ATOM      1  O   UNL     1      43.274  40.156  77.015  0.00  0.00    +0.000 OA
ATOM      2  O   UNL     1      45.016  42.467  81.251  0.00  0.00    +0.000 OA
ATOM      3  O   UNL     1      49.717  41.630  80.917  0.00  0.00    +0.000 OA
ATOM      4  O   UNL     1      45.548  36.119  75.420  0.00  0.00    +0.000 OA
ATOM      5  O   UNL     1      46.991  45.550  79.205  0.00  0.00    +0.000 OA
ATOM      6  O   UNL     1      53.093  44.847  69.751  0.00  0.00    +0.000 OA
ATOM      7  O   UNL     1      43.943  39.916  71.666  0.00  0.00    +0.000 OA
ATOM      8  O   UNL     1      51.839  40.085  69.867  0.00  0.00    +0.000 OA
ATOM      9  O   UNL     1      52.760  47.450  73.825  0.00  0.00    +0.000 OA
ATOM     10  O   UNL     1      47.839  39.170  69.688  0.00  0.00    +0.000 OA
ATOM     11  O   UNL     1      48.855  47.161  75.633  0.00  0.00    +0.000 OA
ATOM     12  N   UNL     1      45.132  41.341  79.679  0.00  0.00    +0.000 NA
ATOM     13  N   UNL     1      45.506  39.323  77.352  0.00  0.00    +0.000 NA
ATOM     14  N   UNL     1      47.843  42.210  81.215  0.00  0.00    +0.000 NA
ATOM     15  N   UNL     1      49.318  44.457  79.516  0.00  0.00    +0.000 NA
ATOM     16  N   UNL     1      45.953  38.327  74.467  0.00  0.00    +0.000 NA
ATOM     17  N   UNL     1      53.530  44.185  71.968  0.00  0.00    +0.000 N 
ATOM     18  N   UNL     1      51.483  41.989  71.180  0.00  0.00    +0.000 N 
ATOM     19  N   UNL     1      49.134  40.433  70.475  0.00  0.00    +0.000 NA
ATOM     20  N   UNL     1      45.956  40.622  72.457  0.00  0.00    +0.000 NA
ATOM     21  N   UNL     1      49.277  44.900  76.567  0.00  0.00    +0.000 NA
ATOM     22  N   UNL     1      51.372  45.474  73.791  0.00  0.00    +0.000 NA
ATOM     23  C   UNL     1      44.377  41.308  78.543  0.00  0.00    +0.000 C 
ATOM     24  C   UNL     1      47.135  41.562  80.285  0.00  0.00    +0.000 C 
ATOM     25  C   UNL     1      45.282  38.050  76.865  0.00  0.00    +0.000 C 
ATOM     26  C   UNL     1      43.099  41.832  78.463  0.00  0.00    +0.000 C 
ATOM     27  C   UNL     1      47.663  40.208  80.567  0.00  0.00    +0.000 C 
ATOM     28  C   UNL     1      44.508  40.252  77.666  0.00  0.00    +0.000 C 
ATOM     29  C   UNL     1      45.944  42.193  80.407  0.00  0.00    +0.000 C 
ATOM     30  C   UNL     1      48.866  43.927  80.619  0.00  0.00    +0.000 C 
ATOM     31  C   UNL     1      48.919  42.570  80.509  0.00  0.00    +0.000 C 
ATOM     32  C   UNL     1      45.887  37.504  75.612  0.00  0.00    +0.000 C 
ATOM     33  C   UNL     1      42.891  42.198  79.829  0.00  0.00    +0.000 C 
ATOM     34  C   UNL     1      42.391  40.998  77.663  0.00  0.00    +0.000 C 
ATOM     35  C   UNL     1      44.144  41.998  80.388  0.00  0.00    +0.000 C 
ATOM     36  C   UNL     1      48.630  41.110  81.654  0.00  0.00    +0.000 C 
ATOM     37  C   UNL     1      44.939  38.443  73.483  0.00  0.00    +0.000 C 
ATOM     38  C   UNL     1      51.990  42.977  70.375  0.00  0.00    +0.000 A 
ATOM     39  C   UNL     1      48.130  44.730  78.987  0.00  0.00    +0.000 C 
ATOM     40  C   UNL     1      53.437  45.446  72.610  0.00  0.00    +0.000 C 
ATOM     41  C   UNL     1      50.216  39.828  71.020  0.00  0.00    +0.000 C 
ATOM     42  C   UNL     1      49.974  45.518  80.324  0.00  0.00    +0.000 C 
ATOM     43  C   UNL     1      51.723  43.253  68.999  0.00  0.00    +0.000 A 
ATOM     44  C   UNL     1      55.108  46.058  72.268  0.00  0.00    +0.000 C 
ATOM     45  C   UNL     1      48.437  44.994  77.552  0.00  0.00    +0.000 C 
ATOM     46  C   UNL     1      50.833  39.071  69.874  0.00  0.00    +0.000 C 
ATOM     47  C   UNL     1      43.947  37.421  73.565  0.00  0.00    +0.000 C 
ATOM     48  C   UNL     1      52.863  43.978  70.790  0.00  0.00    +0.000 A 
ATOM     49  C   UNL     1      44.925  39.502  72.635  0.00  0.00    +0.000 C 
ATOM     50  C   UNL     1      51.200  40.772  70.773  0.00  0.00    +0.000 C 
ATOM     51  C   UNL     1      52.509  46.130  73.359  0.00  0.00    +0.000 C 
ATOM     52  C   UNL     1      47.146  40.109  71.774  0.00  0.00    +0.000 C 
ATOM     53  C   UNL     1      50.787  42.549  68.054  0.00  0.00    +0.000 C 
ATOM     54  C   UNL     1      52.405  44.395  68.667  0.00  0.00    +0.000 A 
ATOM     55  C   UNL     1      48.186  39.575  70.969  0.00  0.00    +0.000 C 
ATOM     56  C   UNL     1      50.429  45.998  74.505  0.00  0.00    +0.000 C 
ATOM     57  C   UNL     1      47.336  45.667  78.010  0.00  0.00    +0.000 C 
ATOM     58  C   UNL     1      54.724  44.809  71.851  0.00  0.00    +0.000 C 
ATOM     59  C   UNL     1      43.595  36.473  74.208  0.00  0.00    +0.000 C 
ATOM     60  C   UNL     1      49.467  45.854  75.668  0.00  0.00    +0.000 C 
ATOM     61  C   UNL     1      49.082  39.673  69.106  0.00  0.00    +0.000 C 
ATOM     62  C   UNL     1      44.887  40.716  71.688  0.00  0.00    +0.000 C 
ATOM     63  C   UNL     1      49.708  47.123  74.731  0.00  0.00    +0.000 C 
ATOM     64  H   UNL     1      46.294  39.260  74.701  0.00  0.00    +0.000 HD
ATOM     65  H   UNL     1      51.106  42.290  72.076  0.00  0.00    +0.000 HD
ATOM     66  H   UNL     1      49.989  44.178  76.633  0.00  0.00    +0.000 HD
ATOM     67  H   UNL     1      51.517  44.469  73.818  0.00  0.00    +0.000 HD
ATOM     68  C   UNL     1      44.249  37.333  77.215  0.00  0.00    +0.000 C 
ATOM     69  C   UNL     1      43.518  36.240  76.670  0.00  0.00    +0.000 C 
ATOM     70  C   UNL     1      44.131  35.854  75.384  0.00  0.00    +0.000 C 
ATOM     71  C   UNL     1      47.402  38.945  81.633  0.00  0.00    +0.000 C 
ATOM     72  C   UNL     1      47.477  37.644  81.357  0.00  0.00    +0.000 C 
ATOM     73  C   UNL     1      48.296  39.901  82.123  0.00  0.00    +0.000 C 
ATOM     74  C   UNL     1      49.564  44.854  81.521  0.00  0.00    +0.000 C 
ATOM     75  C   UNL     1      49.626  46.239  81.592  0.00  0.00    +0.000 C 
ATOM     76  C   UNL     1      50.658  46.952  82.491  0.00  0.00    +0.000 C 
ATOM     77  C   UNL     1      49.555  46.835  80.348  0.00  0.00    +0.000 C 
ATOM     78  C   UNL     1      50.748  37.708  69.039  0.00  0.00    +0.000 C 
ATOM     79  C   UNL     1      51.622  36.963  68.368  0.00  0.00    +0.000 C 
ATOM     80  C   UNL     1      49.653  38.502  68.693  0.00  0.00    +0.000 C 
ATOM     81  C   UNL     1      55.175  47.284  72.793  0.00  0.00    +0.000 C 
ATOM     82  C   UNL     1      56.413  48.115  72.719  0.00  0.00    +0.000 C 
ATOM     83  C   UNL     1      54.007  47.738  73.451  0.00  0.00    +0.000 C 
ENDROOT
BRANCH  69  84
ATOM     84  C   UNL     1      42.210  35.847  77.039  0.00  0.00    +0.000 C 
ATOM     85  C   UNL     1      41.098  35.511  77.344  0.00  0.00    +0.000 C 
BRANCH  85  86
ATOM     86  C   UNL     1      39.678  35.083  77.729  0.00  0.00    +0.000 C 
ATOM     87  C   UNL     1      38.442  34.716  78.064  0.00  0.00    +0.000 C 
ENDBRANCH  85  86
ENDBRANCH  69  84
BRANCH  13  88
ATOM     88  C   UNL     1      46.866  39.828  77.272  0.00  0.00    +0.000 C 
BRANCH  88  89
ATOM     89  O   UNL     1      48.102  40.300  77.177  0.00  0.00    +0.000 OA
ATOM     90  H   UNL     1      48.318  40.831  77.964  0.00  0.00    +0.000 HD
ENDBRANCH  88  89
ENDBRANCH  13  88
TORSDOF 4
ENDMDL
MODEL 4
REMARK VINA RESULT:      -8.1      3.444     11.885
REMARK  Name = Cyclosporin_A.pdbqt.pdb
REMARK  4 active torsions:
REMARK  status: ('A' for Active; 'I' for Inactive)
REMARK    1  A    between atoms: N_13  and  C_36
REMARK    2  A    between atoms: C_36  and  O_70
REMARK    3  A    between atoms: C_72  and  C_73
REMARK    4  A    between atoms: C_75  and  C_76
REMARK                            x       y       z     vdW  Elec       q    Type
REMARK                         _______ _______ _______ _____ _____    ______ ____
ROOT
ATOM      1  O   UNL     1      37.979  20.052  73.006  0.00  0.00    +0.000 OA
ATOM      2  O   UNL     1      35.970  23.117  76.594  0.00  0.00    +0.000 OA
ATOM      3  O   UNL     1      39.838  25.535  78.045  0.00  0.00    +0.000 OA
ATOM      4  O   UNL     1      42.558  18.410  73.594  0.00  0.00    +0.000 OA
ATOM      5  O   UNL     1      36.495  26.652  74.398  0.00  0.00    +0.000 OA
ATOM      6  O   UNL     1      45.337  29.695  68.101  0.00  0.00    +0.000 OA
ATOM      7  O   UNL     1      40.972  20.078  68.515  0.00  0.00    +0.000 OA
ATOM      8  O   UNL     1      47.130  25.277  69.340  0.00  0.00    +0.000 OA
ATOM      9  O   UNL     1      41.803  31.622  70.798  0.00  0.00    +0.000 OA
ATOM     10  O   UNL     1      44.970  21.969  68.215  0.00  0.00    +0.000 OA
ATOM     11  O   UNL     1      38.463  28.935  71.276  0.00  0.00    +0.000 OA
ATOM     12  N   UNL     1      37.394  22.274  75.588  0.00  0.00    +0.000 NA
ATOM     13  N   UNL     1      39.842  20.890  74.277  0.00  0.00    +0.000 NA
ATOM     14  N   UNL     1      38.082  24.764  77.534  0.00  0.00    +0.000 NA
ATOM     15  N   UNL     1      38.582  27.355  75.759  0.00  0.00    +0.000 NA
ATOM     16  N   UNL     1      42.008  20.305  72.161  0.00  0.00    +0.000 NA
ATOM     17  N   UNL     1      45.023  29.573  70.431  0.00  0.00    +0.000 N 
ATOM     18  N   UNL     1      45.213  26.543  69.789  0.00  0.00    +0.000 N 
ATOM     19  N   UNL     1      44.793  23.803  68.919  0.00  0.00    +0.000 NA
ATOM     20  N   UNL     1      41.605  21.959  69.628  0.00  0.00    +0.000 NA
ATOM     21  N   UNL     1      39.622  27.538  72.970  0.00  0.00    +0.000 NA
ATOM     22  N   UNL     1      41.985  29.220  70.966  0.00  0.00    +0.000 NA
ATOM     23  C   UNL     1      37.400  21.708  74.347  0.00  0.00    +0.000 C 
ATOM     24  C   UNL     1      38.379  23.773  76.689  0.00  0.00    +0.000 C 
ATOM     25  C   UNL     1      40.630  19.760  74.180  0.00  0.00    +0.000 C 
ATOM     26  C   UNL     1      36.257  21.268  73.705  0.00  0.00    +0.000 C 
ATOM     27  C   UNL     1      39.387  23.103  77.542  0.00  0.00    +0.000 C 
ATOM     28  C   UNL     1      38.485  20.957  73.945  0.00  0.00    +0.000 C 
ATOM     29  C   UNL     1      37.143  23.479  76.221  0.00  0.00    +0.000 C 
ATOM     30  C   UNL     1      38.078  26.706  76.772  0.00  0.00    +0.000 C 
ATOM     31  C   UNL     1      38.936  25.708  77.127  0.00  0.00    +0.000 C 
ATOM     32  C   UNL     1      41.918  19.688  73.427  0.00  0.00    +0.000 C 
ATOM     33  C   UNL     1      35.294  21.468  74.741  0.00  0.00    +0.000 C 
ATOM     34  C   UNL     1      36.601  20.142  73.035  0.00  0.00    +0.000 C 
ATOM     35  C   UNL     1      36.021  22.157  75.700  0.00  0.00    +0.000 C 
ATOM     36  C   UNL     1      39.054  24.463  78.527  0.00  0.00    +0.000 C 
ATOM     37  C   UNL     1      41.684  19.690  70.925  0.00  0.00    +0.000 C 
ATOM     38  C   UNL     1      45.361  27.586  68.912  0.00  0.00    +0.000 A 
ATOM     39  C   UNL     1      37.844  26.764  74.825  0.00  0.00    +0.000 C 
ATOM     40  C   UNL     1      43.954  30.494  70.570  0.00  0.00    +0.000 C 
ATOM     41  C   UNL     1      45.640  24.073  69.941  0.00  0.00    +0.000 C 
ATOM     42  C   UNL     1      38.069  28.620  76.346  0.00  0.00    +0.000 C 
ATOM     43  C   UNL     1      45.636  27.563  67.511  0.00  0.00    +0.000 A 
ATOM     44  C   UNL     1      44.912  32.032  70.594  0.00  0.00    +0.000 C 
ATOM     45  C   UNL     1      38.548  27.103  73.555  0.00  0.00    +0.000 C 
ATOM     46  C   UNL     1      47.009  23.853  69.356  0.00  0.00    +0.000 C 
ATOM     47  C   UNL     1      41.545  18.273  71.014  0.00  0.00    +0.000 C 
ATOM     48  C   UNL     1      45.208  28.931  69.236  0.00  0.00    +0.000 A 
ATOM     49  C   UNL     1      41.452  20.447  69.823  0.00  0.00    +0.000 C 
ATOM     50  C   UNL     1      45.892  25.419  69.728  0.00  0.00    +0.000 C 
ATOM     51  C   UNL     1      42.589  30.439  70.727  0.00  0.00    +0.000 C 
ATOM     52  C   UNL     1      43.025  22.317  69.558  0.00  0.00    +0.000 C 
ATOM     53  C   UNL     1      45.814  26.379  66.598  0.00  0.00    +0.000 C 
ATOM     54  C   UNL     1      45.606  28.858  67.062  0.00  0.00    +0.000 A 
ATOM     55  C   UNL     1      44.406  22.556  69.338  0.00  0.00    +0.000 C 
ATOM     56  C   UNL     1      40.716  29.032  71.138  0.00  0.00    +0.000 C 
ATOM     57  C   UNL     1      37.202  26.915  73.401  0.00  0.00    +0.000 C 
ATOM     58  C   UNL     1      45.544  30.819  70.502  0.00  0.00    +0.000 C 
ATOM     59  C   UNL     1      41.553  17.353  71.782  0.00  0.00    +0.000 C 
ATOM     60  C   UNL     1      39.614  28.346  71.920  0.00  0.00    +0.000 C 
ATOM     61  C   UNL     1      45.803  23.136  67.925  0.00  0.00    +0.000 C 
ATOM     62  C   UNL     1      41.159  21.300  68.575  0.00  0.00    +0.000 C 
ATOM     63  C   UNL     1      39.478  29.424  70.751  0.00  0.00    +0.000 C 
ATOM     64  H   UNL     1      41.609  21.244  72.177  0.00  0.00    +0.000 HD
ATOM     65  H   UNL     1      44.381  26.563  70.374  0.00  0.00    +0.000 HD
ATOM     66  H   UNL     1      40.495  27.459  73.486  0.00  0.00    +0.000 HD
ATOM     67  H   UNL     1      42.644  28.555  71.359  0.00  0.00    +0.000 HD
ATOM     68  C   UNL     1      40.168  18.559  74.397  0.00  0.00    +0.000 C 
ATOM     69  C   UNL     1      40.530  17.232  74.032  0.00  0.00    +0.000 C 
ATOM     70  C   UNL     1      41.748  17.284  73.200  0.00  0.00    +0.000 C 
ATOM     71  C   UNL     1      39.448  22.023  78.818  0.00  0.00    +0.000 C 
ATOM     72  C   UNL     1      40.363  21.075  79.013  0.00  0.00    +0.000 C 
ATOM     73  C   UNL     1      39.302  23.350  79.230  0.00  0.00    +0.000 C 
ATOM     74  C   UNL     1      37.629  27.901  77.500  0.00  0.00    +0.000 C 
ATOM     75  C   UNL     1      36.851  28.993  77.138  0.00  0.00    +0.000 C 
ATOM     76  C   UNL     1      36.755  30.244  78.036  0.00  0.00    +0.000 C 
ATOM     77  C   UNL     1      37.021  29.345  75.812  0.00  0.00    +0.000 C 
ATOM     78  C   UNL     1      48.099  22.731  69.021  0.00  0.00    +0.000 C 
ATOM     79  C   UNL     1      49.427  22.708  68.937  0.00  0.00    +0.000 C 
ATOM     80  C   UNL     1      47.048  22.603  68.112  0.00  0.00    +0.000 C 
ATOM     81  C   UNL     1      44.026  33.027  70.690  0.00  0.00    +0.000 C 
ATOM     82  C   UNL     1      44.440  34.460  70.747  0.00  0.00    +0.000 C 
ATOM     83  C   UNL     1      42.666  32.637  70.764  0.00  0.00    +0.000 C 
ENDROOT
BRANCH  69  84
ATOM     84  C   UNL     1      39.686  16.097  74.076  0.00  0.00    +0.000 C 
ATOM     85  C   UNL     1      38.963  15.138  74.116  0.00  0.00    +0.000 C 
BRANCH  85  86
ATOM     86  C   UNL     1      38.039  13.917  74.170  0.00  0.00    +0.000 C 
ATOM     87  C   UNL     1      37.238  12.854  74.212  0.00  0.00    +0.000 C 
ENDBRANCH  85  86
ENDBRANCH  69  84
BRANCH  13  88
ATOM     88  C   UNL     1      40.529  22.157  74.471  0.00  0.00    +0.000 C 
BRANCH  88  89
ATOM     89  O   UNL     1      41.138  23.323  74.634  0.00  0.00    +0.000 OA
ATOM     90  H   UNL     1      41.582  23.349  75.500  0.00  0.00    +0.000 HD
ENDBRANCH  88  89
ENDBRANCH  13  88
TORSDOF 4
ENDMDL
MODEL 5
REMARK VINA RESULT:      -8.0     41.795     44.942
REMARK  Name = Cyclosporin_A.pdbqt.pdb
REMARK  4 active torsions:
REMARK  status: ('A' for Active; 'I' for Inactive)
REMARK    1  A    between atoms: N_13  and  C_36
REMARK    2  A    between atoms: C_36  and  O_70
REMARK    3  A    between atoms: C_72  and  C_73
REMARK    4  A    between atoms: C_75  and  C_76
REMARK                            x       y       z     vdW  Elec       q    Type
REMARK                         _______ _______ _______ _____ _____    ______ ____
ROOT
ATOM      1  O   UNL     1      14.014   6.328 104.338  0.00  0.00    +0.000 OA
ATOM      2  O   UNL     1      11.273   4.982 100.217  0.00  0.00    +0.000 OA
ATOM      3  O   UNL     1      14.701   4.546  96.904  0.00  0.00    +0.000 OA
ATOM      4  O   UNL     1      18.021   9.078 103.717  0.00  0.00    +0.000 OA
ATOM      5  O   UNL     1      12.764   1.065 100.043  0.00  0.00    +0.000 OA
ATOM      6  O   UNL     1      23.355  -2.438 101.674  0.00  0.00    +0.000 OA
ATOM      7  O   UNL     1      18.240   4.860 107.356  0.00  0.00    +0.000 OA
ATOM      8  O   UNL     1      24.275   2.314 102.591  0.00  0.00    +0.000 OA
ATOM      9  O   UNL     1      19.345  -3.609  99.218  0.00  0.00    +0.000 OA
ATOM     10  O   UNL     1      22.285   4.061 105.731  0.00  0.00    +0.000 OA
ATOM     11  O   UNL     1      15.796  -1.896 100.973  0.00  0.00    +0.000 OA
ATOM     12  N   UNL     1      12.857   5.548 101.175  0.00  0.00    +0.000 NA
ATOM     13  N   UNL     1      15.458   6.668 102.445  0.00  0.00    +0.000 NA
ATOM     14  N   UNL     1      13.128   4.539  98.114  0.00  0.00    +0.000 NA
ATOM     15  N   UNL     1      14.381   1.616  98.097  0.00  0.00    +0.000 NA
ATOM     16  N   UNL     1      18.112   6.659 104.016  0.00  0.00    +0.000 NA
ATOM     17  N   UNL     1      22.325  -1.292  99.893  0.00  0.00    +0.000 N 
ATOM     18  N   UNL     1      22.434   1.006 101.976  0.00  0.00    +0.000 N 
ATOM     19  N   UNL     1      22.062   2.807 104.225  0.00  0.00    +0.000 NA
ATOM     20  N   UNL     1      18.662   3.953 105.313  0.00  0.00    +0.000 NA
ATOM     21  N   UNL     1      16.245   0.370 100.064  0.00  0.00    +0.000 NA
ATOM     22  N   UNL     1      19.251  -1.454 100.306  0.00  0.00    +0.000 NA
ATOM     23  C   UNL     1      13.198   5.433 102.491  0.00  0.00    +0.000 C 
ATOM     24  C   UNL     1      13.583   5.041  99.266  0.00  0.00    +0.000 C 
ATOM     25  C   UNL     1      16.134   7.763 102.947  0.00  0.00    +0.000 C 
ATOM     26  C   UNL     1      12.275   5.228 103.501  0.00  0.00    +0.000 C 
ATOM     27  C   UNL     1      14.213   6.254  98.697  0.00  0.00    +0.000 C 
ATOM     28  C   UNL     1      14.282   6.132 102.980  0.00  0.00    +0.000 C 
ATOM     29  C   UNL     1      12.532   4.774 100.076  0.00  0.00    +0.000 C 
ATOM     30  C   UNL     1      13.532   2.531  97.718  0.00  0.00    +0.000 C 
ATOM     31  C   UNL     1      14.146   3.747  97.765  0.00  0.00    +0.000 C 
ATOM     32  C   UNL     1      17.580   7.767 103.321  0.00  0.00    +0.000 C 
ATOM     33  C   UNL     1      11.060   5.329 102.755  0.00  0.00    +0.000 C 
ATOM     34  C   UNL     1      12.708   5.941 104.569  0.00  0.00    +0.000 C 
ATOM     35  C   UNL     1      11.513   5.377 101.446  0.00  0.00    +0.000 C 
ATOM     36  C   UNL     1      13.713   5.498  97.244  0.00  0.00    +0.000 C 
ATOM     37  C   UNL     1      18.133   6.511 105.426  0.00  0.00    +0.000 C 
ATOM     38  C   UNL     1      22.938  -0.262 102.114  0.00  0.00    +0.000 A 
ATOM     39  C   UNL     1      13.919   1.493  99.338  0.00  0.00    +0.000 C 
ATOM     40  C   UNL     1      21.352  -2.257  99.529  0.00  0.00    +0.000 C 
ATOM     41  C   UNL     1      22.572   3.267 103.058  0.00  0.00    +0.000 C 
ATOM     42  C   UNL     1      13.826   0.707  97.061  0.00  0.00    +0.000 C 
ATOM     43  C   UNL     1      23.631  -0.848 103.217  0.00  0.00    +0.000 A 
ATOM     44  C   UNL     1      22.388  -3.320  98.489  0.00  0.00    +0.000 C 
ATOM     45  C   UNL     1      15.009   0.764 100.048  0.00  0.00    +0.000 C 
ATOM     46  C   UNL     1      24.030   3.496 103.355  0.00  0.00    +0.000 C 
ATOM     47  C   UNL     1      17.847   7.719 106.130  0.00  0.00    +0.000 C 
ATOM     48  C   UNL     1      22.813  -1.279 101.173  0.00  0.00    +0.000 A 
ATOM     49  C   UNL     1      18.321   5.288 105.983  0.00  0.00    +0.000 C 
ATOM     50  C   UNL     1      22.996   2.087 102.469  0.00  0.00    +0.000 C 
ATOM     51  C   UNL     1      20.006  -2.457  99.728  0.00  0.00    +0.000 C 
ATOM     52  C   UNL     1      20.059   3.951 104.871  0.00  0.00    +0.000 C 
ATOM     53  C   UNL     1      23.977  -0.243 104.551  0.00  0.00    +0.000 C 
ATOM     54  C   UNL     1      23.856  -2.165 102.910  0.00  0.00    +0.000 A 
ATOM     55  C   UNL     1      21.456   3.969 104.622  0.00  0.00    +0.000 C 
ATOM     56  C   UNL     1      17.981  -1.513 100.542  0.00  0.00    +0.000 C 
ATOM     57  C   UNL     1      13.765   0.532 100.569  0.00  0.00    +0.000 C 
ATOM     58  C   UNL     1      22.907  -2.189  99.064  0.00  0.00    +0.000 C 
ATOM     59  C   UNL     1      17.536   8.866 105.982  0.00  0.00    +0.000 C 
ATOM     60  C   UNL     1      16.634  -0.818 100.503  0.00  0.00    +0.000 C 
ATOM     61  C   UNL     1      23.267   3.132 105.173  0.00  0.00    +0.000 C 
ATOM     62  C   UNL     1      18.507   3.900 106.622  0.00  0.00    +0.000 C 
ATOM     63  C   UNL     1      16.963  -2.322 100.924  0.00  0.00    +0.000 C 
ATOM     64  H   UNL     1      17.812   5.779 103.595  0.00  0.00    +0.000 HD
ATOM     65  H   UNL     1      21.467   1.073 101.667  0.00  0.00    +0.000 HD
ATOM     66  H   UNL     1      16.905   0.890  99.491  0.00  0.00    +0.000 HD
ATOM     67  H   UNL     1      19.695  -0.548 100.189  0.00  0.00    +0.000 HD
ATOM     68  C   UNL     1      15.523   8.773 103.502  0.00  0.00    +0.000 C 
ATOM     69  C   UNL     1      15.860   9.805 104.422  0.00  0.00    +0.000 C 
ATOM     70  C   UNL     1      17.276   9.650 104.810  0.00  0.00    +0.000 C 
ATOM     71  C   UNL     1      13.780   7.793  98.205  0.00  0.00    +0.000 C 
ATOM     72  C   UNL     1      14.501   8.904  98.343  0.00  0.00    +0.000 C 
ATOM     73  C   UNL     1      13.632   6.834  97.199  0.00  0.00    +0.000 C 
ATOM     74  C   UNL     1      12.988   1.763  96.589  0.00  0.00    +0.000 C 
ATOM     75  C   UNL     1      12.461   0.484  96.482  0.00  0.00    +0.000 C 
ATOM     76  C   UNL     1      12.203  -0.167  95.106  0.00  0.00    +0.000 C 
ATOM     77  C   UNL     1      13.063  -0.410  97.348  0.00  0.00    +0.000 C 
ATOM     78  C   UNL     1      25.066   4.542 103.982  0.00  0.00    +0.000 C 
ATOM     79  C   UNL     1      26.347   4.834 103.772  0.00  0.00    +0.000 C 
ATOM     80  C   UNL     1      24.341   3.966 105.026  0.00  0.00    +0.000 C 
ATOM     81  C   UNL     1      21.608  -4.323  98.080  0.00  0.00    +0.000 C 
ATOM     82  C   UNL     1      22.110  -5.410  97.188  0.00  0.00    +0.000 C 
ATOM     83  C   UNL     1      20.263  -4.279  98.523  0.00  0.00    +0.000 C 
ENDROOT
BRANCH  69  84
ATOM     84  C   UNL     1      14.947  10.587 105.169  0.00  0.00    +0.000 C 
ATOM     85  C   UNL     1      14.171  11.244 105.808  0.00  0.00    +0.000 C 
BRANCH  85  86
ATOM     86  C   UNL     1      13.181  12.079 106.627  0.00  0.00    +0.000 C 
ATOM     87  C   UNL     1      12.317  12.800 107.339  0.00  0.00    +0.000 C 
ENDBRANCH  85  86
ENDBRANCH  69  84
BRANCH  13  88
ATOM     88  C   UNL     1      16.161   5.852 101.468  0.00  0.00    +0.000 C 
BRANCH  88  89
ATOM     89  O   UNL     1      16.807   5.092 100.594  0.00  0.00    +0.000 OA
ATOM     90  H   UNL     1      17.338   4.424 101.063  0.00  0.00    +0.000 HD
ENDBRANCH  88  89
ENDBRANCH  13  88
TORSDOF 4
ENDMDL
MODEL 6
REMARK VINA RESULT:      -7.9     11.693     16.309
REMARK  Name = Cyclosporin_A.pdbqt.pdb
REMARK  4 active torsions:
REMARK  status: ('A' for Active; 'I' for Inactive)
REMARK    1  A    between atoms: N_13  and  C_36
REMARK    2  A    between atoms: C_36  and  O_70
REMARK    3  A    between atoms: C_72  and  C_73
REMARK    4  A    between atoms: C_75  and  C_76
REMARK                            x       y       z     vdW  Elec       q    Type
REMARK                         _______ _______ _______ _____ _____    ______ ____
ROOT
ATOM      1  O   UNL     1      36.086  18.573  84.219  0.00  0.00    +0.000 OA
ATOM      2  O   UNL     1      37.184  14.587  81.182  0.00  0.00    +0.000 OA
ATOM      3  O   UNL     1      40.377  16.531  78.191  0.00  0.00    +0.000 OA
ATOM      4  O   UNL     1      36.120  23.083  82.303  0.00  0.00    +0.000 OA
ATOM      5  O   UNL     1      41.106  14.117  82.592  0.00  0.00    +0.000 OA
ATOM      6  O   UNL     1      48.650  22.137  85.012  0.00  0.00    +0.000 OA
ATOM      7  O   UNL     1      38.347  22.334  87.360  0.00  0.00    +0.000 OA
ATOM      8  O   UNL     1      45.021  25.242  83.807  0.00  0.00    +0.000 OA
ATOM      9  O   UNL     1      48.405  17.548  83.476  0.00  0.00    +0.000 OA
ATOM     10  O   UNL     1      41.565  25.072  86.020  0.00  0.00    +0.000 OA
ATOM     11  O   UNL     1      44.666  15.672  84.525  0.00  0.00    +0.000 OA
ATOM     12  N   UNL     1      37.202  16.443  81.734  0.00  0.00    +0.000 NA
ATOM     13  N   UNL     1      37.184  19.497  82.288  0.00  0.00    +0.000 NA
ATOM     14  N   UNL     1      39.182  15.471  79.369  0.00  0.00    +0.000 NA
ATOM     15  N   UNL     1      42.141  15.269  80.517  0.00  0.00    +0.000 NA
ATOM     16  N   UNL     1      37.988  22.178  83.584  0.00  0.00    +0.000 NA
ATOM     17  N   UNL     1      47.828  21.305  82.969  0.00  0.00    +0.000 N 
ATOM     18  N   UNL     1      45.346  22.926  83.888  0.00  0.00    +0.000 N 
ATOM     19  N   UNL     1      42.963  23.954  85.192  0.00  0.00    +0.000 NA
ATOM     20  N   UNL     1      39.975  21.791  85.867  0.00  0.00    +0.000 NA
ATOM     21  N   UNL     1      43.398  16.824  82.729  0.00  0.00    +0.000 NA
ATOM     22  N   UNL     1      46.275  18.682  83.564  0.00  0.00    +0.000 NA
ATOM     23  C   UNL     1      37.016  17.015  82.959  0.00  0.00    +0.000 C 
ATOM     24  C   UNL     1      38.619  16.371  80.180  0.00  0.00    +0.000 C 
ATOM     25  C   UNL     1      36.481  20.685  82.250  0.00  0.00    +0.000 C 
ATOM     26  C   UNL     1      36.374  16.380  84.006  0.00  0.00    +0.000 C 
ATOM     27  C   UNL     1      38.164  17.304  79.125  0.00  0.00    +0.000 C 
ATOM     28  C   UNL     1      36.839  18.380  83.055  0.00  0.00    +0.000 C 
ATOM     29  C   UNL     1      38.028  15.549  81.079  0.00  0.00    +0.000 C 
ATOM     30  C   UNL     1      41.117  14.842  79.831  0.00  0.00    +0.000 C 
ATOM     31  C   UNL     1      40.442  15.916  79.333  0.00  0.00    +0.000 C 
ATOM     32  C   UNL     1      37.077  22.030  82.516  0.00  0.00    +0.000 C 
ATOM     33  C   UNL     1      35.938  15.189  83.349  0.00  0.00    +0.000 C 
ATOM     34  C   UNL     1      35.661  17.333  84.654  0.00  0.00    +0.000 C 
ATOM     35  C   UNL     1      36.572  15.275  82.119  0.00  0.00    +0.000 C 
ATOM     36  C   UNL     1      39.009  16.179  78.149  0.00  0.00    +0.000 C 
ATOM     37  C   UNL     1      37.637  22.482  84.923  0.00  0.00    +0.000 C 
ATOM     38  C   UNL     1      46.561  22.840  84.520  0.00  0.00    +0.000 A 
ATOM     39  C   UNL     1      41.585  15.126  81.715  0.00  0.00    +0.000 C 
ATOM     40  C   UNL     1      48.231  19.951  83.091  0.00  0.00    +0.000 C 
ATOM     41  C   UNL     1      43.249  24.305  83.915  0.00  0.00    +0.000 C 
ATOM     42  C   UNL     1      42.938  14.133  79.986  0.00  0.00    +0.000 C 
ATOM     43  C   UNL     1      46.999  23.457  85.731  0.00  0.00    +0.000 A 
ATOM     44  C   UNL     1      49.950  20.120  82.542  0.00  0.00    +0.000 C 
ATOM     45  C   UNL     1      42.470  15.925  82.611  0.00  0.00    +0.000 C 
ATOM     46  C   UNL     1      43.697  25.738  84.016  0.00  0.00    +0.000 C 
ATOM     47  C   UNL     1      36.293  22.941  85.069  0.00  0.00    +0.000 C 
ATOM     48  C   UNL     1      47.627  22.052  84.099  0.00  0.00    +0.000 A 
ATOM     49  C   UNL     1      38.514  22.249  85.931  0.00  0.00    +0.000 C 
ATOM     50  C   UNL     1      44.601  24.007  83.855  0.00  0.00    +0.000 C 
ATOM     51  C   UNL     1      47.648  18.751  83.422  0.00  0.00    +0.000 C 
ATOM     52  C   UNL     1      40.828  22.886  85.397  0.00  0.00    +0.000 C 
ATOM     53  C   UNL     1      46.238  24.354  86.670  0.00  0.00    +0.000 C 
ATOM     54  C   UNL     1      48.265  22.998  85.994  0.00  0.00    +0.000 A 
ATOM     55  C   UNL     1      41.598  24.039  85.095  0.00  0.00    +0.000 C 
ATOM     56  C   UNL     1      45.604  17.618  83.865  0.00  0.00    +0.000 C 
ATOM     57  C   UNL     1      41.853  14.879  83.242  0.00  0.00    +0.000 C 
ATOM     58  C   UNL     1      49.115  21.208  82.564  0.00  0.00    +0.000 C 
ATOM     59  C   UNL     1      35.274  23.137  84.470  0.00  0.00    +0.000 C 
ATOM     60  C   UNL     1      44.389  16.749  83.605  0.00  0.00    +0.000 C 
ATOM     61  C   UNL     1      42.986  25.374  85.854  0.00  0.00    +0.000 C 
ATOM     62  C   UNL     1      39.494  21.961  87.084  0.00  0.00    +0.000 C 
ATOM     63  C   UNL     1      45.607  16.480  84.601  0.00  0.00    +0.000 C 
ATOM     64  H   UNL     1      38.680  21.428  83.586  0.00  0.00    +0.000 HD
ATOM     65  H   UNL     1      44.913  22.043  83.629  0.00  0.00    +0.000 HD
ATOM     66  H   UNL     1      43.510  17.479  81.959  0.00  0.00    +0.000 HD
ATOM     67  H   UNL     1      45.817  19.433  83.056  0.00  0.00    +0.000 HD
ATOM     68  C   UNL     1      35.182  20.738  82.361  0.00  0.00    +0.000 C 
ATOM     69  C   UNL     1      34.218  21.711  82.745  0.00  0.00    +0.000 C 
ATOM     70  C   UNL     1      34.919  22.963  83.092  0.00  0.00    +0.000 C 
ATOM     71  C   UNL     1      36.889  17.481  78.056  0.00  0.00    +0.000 C 
ATOM     72  C   UNL     1      36.321  18.626  77.679  0.00  0.00    +0.000 C 
ATOM     73  C   UNL     1      37.920  16.683  77.553  0.00  0.00    +0.000 C 
ATOM     74  C   UNL     1      41.838  13.753  79.156  0.00  0.00    +0.000 C 
ATOM     75  C   UNL     1      42.628  12.711  79.622  0.00  0.00    +0.000 C 
ATOM     76  C   UNL     1      43.484  11.860  78.660  0.00  0.00    +0.000 C 
ATOM     77  C   UNL     1      43.346  13.056  80.751  0.00  0.00    +0.000 C 
ATOM     78  C   UNL     1      43.172  27.248  84.095  0.00  0.00    +0.000 C 
ATOM     79  C   UNL     1      43.653  28.430  83.719  0.00  0.00    +0.000 C 
ATOM     80  C   UNL     1      42.911  26.630  85.319  0.00  0.00    +0.000 C 
ATOM     81  C   UNL     1      50.496  18.905  82.631  0.00  0.00    +0.000 C 
ATOM     82  C   UNL     1      51.916  18.640  82.252  0.00  0.00    +0.000 C 
ATOM     83  C   UNL     1      49.636  17.874  83.080  0.00  0.00    +0.000 C 
ENDROOT
BRANCH  69  84
ATOM     84  C   UNL     1      32.884  21.451  83.140  0.00  0.00    +0.000 C 
ATOM     85  C   UNL     1      31.750  21.238  83.474  0.00  0.00    +0.000 C 
BRANCH  85  86
ATOM     86  C   UNL     1      30.303  20.971  83.902  0.00  0.00    +0.000 C 
ATOM     87  C   UNL     1      29.044  20.738  84.269  0.00  0.00    +0.000 C 
ENDBRANCH  85  86
ENDBRANCH  69  84
BRANCH  13  88
ATOM     88  C   UNL     1      38.518  19.502  81.708  0.00  0.00    +0.000 C 
BRANCH  88  89
ATOM     89  O   UNL     1      39.738  19.530  81.189  0.00  0.00    +0.000 OA
ATOM     90  H   UNL     1      39.739  19.094  80.318  0.00  0.00    +0.000 HD
ENDBRANCH  88  89
ENDBRANCH  13  88
TORSDOF 4
ENDMDL
MODEL 7
REMARK VINA RESULT:      -7.9     27.934     34.405
REMARK  Name = Cyclosporin_A.pdbqt.pdb
REMARK  4 active torsions:
REMARK  status: ('A' for Active; 'I' for Inactive)
REMARK    1  A    between atoms: N_13  and  C_36
REMARK    2  A    between atoms: C_36  and  O_70
REMARK    3  A    between atoms: C_72  and  C_73
REMARK    4  A    between atoms: C_75  and  C_76
REMARK                            x       y       z     vdW  Elec       q    Type
REMARK                         _______ _______ _______ _____ _____    ______ ____
ROOT
ATOM      1  O   UNL     1      27.422   1.892  84.158  0.00  0.00    +0.000 OA
ATOM      2  O   UNL     1      25.814   6.702  83.389  0.00  0.00    +0.000 OA
ATOM      3  O   UNL     1      22.843   7.307  87.094  0.00  0.00    +0.000 OA
ATOM      4  O   UNL     1      24.328  -1.345  86.146  0.00  0.00    +0.000 OA
ATOM      5  O   UNL     1      27.804   8.295  86.720  0.00  0.00    +0.000 OA
ATOM      6  O   UNL     1      28.823   3.828  97.021  0.00  0.00    +0.000 OA
ATOM      7  O   UNL     1      29.638  -1.361  87.850  0.00  0.00    +0.000 OA
ATOM      8  O   UNL     1      26.319   0.044  95.105  0.00  0.00    +0.000 OA
ATOM      9  O   UNL     1      28.633   8.125  94.790  0.00  0.00    +0.000 OA
ATOM     10  O   UNL     1      28.013  -1.941  91.933  0.00  0.00    +0.000 OA
ATOM     11  O   UNL     1      29.669   7.843  90.613  0.00  0.00    +0.000 OA
ATOM     12  N   UNL     1      25.814   4.952  84.219  0.00  0.00    +0.000 NA
ATOM     13  N   UNL     1      25.471   2.165  85.538  0.00  0.00    +0.000 NA
ATOM     14  N   UNL     1      24.105   7.346  85.563  0.00  0.00    +0.000 NA
ATOM     15  N   UNL     1      25.643   8.391  88.143  0.00  0.00    +0.000 NA
ATOM     16  N   UNL     1      26.048  -0.196  87.439  0.00  0.00    +0.000 NA
ATOM     17  N   UNL     1      27.010   4.836  95.908  0.00  0.00    +0.000 N 
ATOM     18  N   UNL     1      27.096   2.132  94.387  0.00  0.00    +0.000 N 
ATOM     19  N   UNL     1      27.728  -0.146  92.698  0.00  0.00    +0.000 NA
ATOM     20  N   UNL     1      28.588   0.247  89.070  0.00  0.00    +0.000 NA
ATOM     21  N   UNL     1      27.469   6.894  89.965  0.00  0.00    +0.000 NA
ATOM     22  N   UNL     1      28.114   6.243  93.369  0.00  0.00    +0.000 NA
ATOM     23  C   UNL     1      26.791   4.003  84.308  0.00  0.00    +0.000 C 
ATOM     24  C   UNL     1      24.546   6.090  85.453  0.00  0.00    +0.000 C 
ATOM     25  C   UNL     1      25.006   0.869  85.424  0.00  0.00    +0.000 C 
ATOM     26  C   UNL     1      27.881   3.950  83.458  0.00  0.00    +0.000 C 
ATOM     27  C   UNL     1      23.218   5.433  85.446  0.00  0.00    +0.000 C 
ATOM     28  C   UNL     1      26.472   2.734  84.744  0.00  0.00    +0.000 C 
ATOM     29  C   UNL     1      25.555   6.265  84.568  0.00  0.00    +0.000 C 
ATOM     30  C   UNL     1      24.978   8.544  87.032  0.00  0.00    +0.000 C 
ATOM     31  C   UNL     1      24.111   7.501  86.890  0.00  0.00    +0.000 C 
ATOM     32  C   UNL     1      24.956  -0.114  86.548  0.00  0.00    +0.000 C 
ATOM     33  C   UNL     1      27.537   4.992  82.542  0.00  0.00    +0.000 C 
ATOM     34  C   UNL     1      28.132   2.637  83.236  0.00  0.00    +0.000 C 
ATOM     35  C   UNL     1      26.428   5.568  83.144  0.00  0.00    +0.000 C 
ATOM     36  C   UNL     1      22.723   7.051  85.710  0.00  0.00    +0.000 C 
ATOM     37  C   UNL     1      27.187  -1.021  87.263  0.00  0.00    +0.000 C 
ATOM     38  C   UNL     1      27.880   2.513  95.446  0.00  0.00    +0.000 A 
ATOM     39  C   UNL     1      26.749   7.906  87.587  0.00  0.00    +0.000 C 
ATOM     40  C   UNL     1      27.563   6.122  95.680  0.00  0.00    +0.000 C 
ATOM     41  C   UNL     1      26.453   0.073  93.102  0.00  0.00    +0.000 C 
ATOM     42  C   UNL     1      25.566   9.858  88.362  0.00  0.00    +0.000 C 
ATOM     43  C   UNL     1      28.914   1.790  96.116  0.00  0.00    +0.000 A 
ATOM     44  C   UNL     1      27.221   6.864  97.297  0.00  0.00    +0.000 C 
ATOM     45  C   UNL     1      27.489   7.312  88.737  0.00  0.00    +0.000 C 
ATOM     46  C   UNL     1      26.202  -0.995  94.131  0.00  0.00    +0.000 C 
ATOM     47  C   UNL     1      27.019  -2.017  86.255  0.00  0.00    +0.000 C 
ATOM     48  C   UNL     1      27.845   3.761  96.059  0.00  0.00    +0.000 A 
ATOM     49  C   UNL     1      28.327  -0.772  87.956  0.00  0.00    +0.000 C 
ATOM     50  C   UNL     1      26.659   0.909  94.188  0.00  0.00    +0.000 C 
ATOM     51  C   UNL     1      28.141   6.800  94.633  0.00  0.00    +0.000 C 
ATOM     52  C   UNL     1      27.944  -0.186  90.313  0.00  0.00    +0.000 C 
ATOM     53  C   UNL     1      29.450   0.413  95.827  0.00  0.00    +0.000 C 
ATOM     54  C   UNL     1      29.460   2.626  97.056  0.00  0.00    +0.000 A 
ATOM     55  C   UNL     1      27.431  -0.755  91.507  0.00  0.00    +0.000 C 
ATOM     56  C   UNL     1      28.614   6.778  92.302  0.00  0.00    +0.000 C 
ATOM     57  C   UNL     1      28.304   7.751  87.729  0.00  0.00    +0.000 C 
ATOM     58  C   UNL     1      26.823   5.581  97.021  0.00  0.00    +0.000 C 
ATOM     59  C   UNL     1      26.259  -2.421  85.421  0.00  0.00    +0.000 C 
ATOM     60  C   UNL     1      28.453   7.096  90.828  0.00  0.00    +0.000 C 
ATOM     61  C   UNL     1      27.957  -1.556  93.342  0.00  0.00    +0.000 C 
ATOM     62  C   UNL     1      29.632  -0.479  88.718  0.00  0.00    +0.000 C 
ATOM     63  C   UNL     1      29.636   7.521  91.812  0.00  0.00    +0.000 C 
ATOM     64  H   UNL     1      26.354   0.732  87.734  0.00  0.00    +0.000 HD
ATOM     65  H   UNL     1      27.043   2.787  93.610  0.00  0.00    +0.000 HD
ATOM     66  H   UNL     1      26.567   6.622  90.348  0.00  0.00    +0.000 HD
ATOM     67  H   UNL     1      27.359   5.570  93.282  0.00  0.00    +0.000 HD
ATOM     68  C   UNL     1      24.924   0.249  84.279  0.00  0.00    +0.000 C 
ATOM     69  C   UNL     1      24.886  -1.104  83.838  0.00  0.00    +0.000 C 
ATOM     70  C   UNL     1      24.953  -1.989  85.018  0.00  0.00    +0.000 C 
ATOM     71  C   UNL     1      21.985   5.087  84.371  0.00  0.00    +0.000 C 
ATOM     72  C   UNL     1      21.227   3.991  84.357  0.00  0.00    +0.000 C 
ATOM     73  C   UNL     1      21.870   6.355  84.947  0.00  0.00    +0.000 C 
ATOM     74  C   UNL     1      24.741   9.984  87.202  0.00  0.00    +0.000 C 
ATOM     75  C   UNL     1      25.583  11.057  87.461  0.00  0.00    +0.000 C 
ATOM     76  C   UNL     1      25.024  12.441  87.854  0.00  0.00    +0.000 C 
ATOM     77  C   UNL     1      26.652  10.708  88.263  0.00  0.00    +0.000 C 
ATOM     78  C   UNL     1      25.779  -2.528  94.318  0.00  0.00    +0.000 C 
ATOM     79  C   UNL     1      25.150  -3.219  95.265  0.00  0.00    +0.000 C 
ATOM     80  C   UNL     1      27.083  -2.491  93.820  0.00  0.00    +0.000 C 
ATOM     81  C   UNL     1      27.722   8.101  97.259  0.00  0.00    +0.000 C 
ATOM     82  C   UNL     1      27.625   9.036  98.418  0.00  0.00    +0.000 C 
ATOM     83  C   UNL     1      28.328   8.483  96.037  0.00  0.00    +0.000 C 
ENDROOT
BRANCH  69  84
ATOM     84  C   UNL     1      25.159  -1.560  82.527  0.00  0.00    +0.000 C 
ATOM     85  C   UNL     1      25.395  -1.954  81.417  0.00  0.00    +0.000 C 
BRANCH  85  86
ATOM     86  C   UNL     1      25.700  -2.458  80.003  0.00  0.00    +0.000 C 
ATOM     87  C   UNL     1      25.962  -2.902  78.775  0.00  0.00    +0.000 C 
ENDBRANCH  85  86
ENDBRANCH  69  84
BRANCH  13  88
ATOM     88  C   UNL     1      25.096   2.896  86.738  0.00  0.00    +0.000 C 
BRANCH  88  89
ATOM     89  O   UNL     1      24.771   3.551  87.844  0.00  0.00    +0.000 OA
ATOM     90  H   UNL     1      23.830   3.800  87.819  0.00  0.00    +0.000 HD
ENDBRANCH  88  89
ENDBRANCH  13  88
TORSDOF 4
ENDMDL
MODEL 8
REMARK VINA RESULT:      -7.9     11.795     16.517
REMARK  Name = Cyclosporin_A.pdbqt.pdb
REMARK  4 active torsions:
REMARK  status: ('A' for Active; 'I' for Inactive)
REMARK    1  A    between atoms: N_13  and  C_36
REMARK    2  A    between atoms: C_36  and  O_70
REMARK    3  A    between atoms: C_72  and  C_73
REMARK    4  A    between atoms: C_75  and  C_76
REMARK                            x       y       z     vdW  Elec       q    Type
REMARK                         _______ _______ _______ _____ _____    ______ ____
ROOT
ATOM      1  O   UNL     1      46.742  26.484  87.017  0.00  0.00    +0.000 OA
ATOM      2  O   UNL     1      50.289  23.307  88.922  0.00  0.00    +0.000 OA
ATOM      3  O   UNL     1      47.637  19.471  90.004  0.00  0.00    +0.000 OA
ATOM      4  O   UNL     1      42.203  26.335  88.857  0.00  0.00    +0.000 OA
ATOM      5  O   UNL     1      50.116  20.598  85.724  0.00  0.00    +0.000 OA
ATOM      6  O   UNL     1      41.002  16.891  80.219  0.00  0.00    +0.000 OA
ATOM      7  O   UNL     1      42.810  26.827  83.336  0.00  0.00    +0.000 OA
ATOM      8  O   UNL     1      38.547  19.940  83.210  0.00  0.00    +0.000 OA
ATOM      9  O   UNL     1      45.468  15.486  81.469  0.00  0.00    +0.000 OA
ATOM     10  O   UNL     1      39.463  23.939  83.012  0.00  0.00    +0.000 OA
ATOM     11  O   UNL     1      48.047  18.831  82.343  0.00  0.00    +0.000 OA
ATOM     12  N   UNL     1      48.494  23.909  88.517  0.00  0.00    +0.000 NA
ATOM     13  N   UNL     1      45.530  24.763  88.181  0.00  0.00    +0.000 NA
ATOM     14  N   UNL     1      48.960  20.874  89.533  0.00  0.00    +0.000 NA
ATOM     15  N   UNL     1      48.683  18.900  87.055  0.00  0.00    +0.000 NA
ATOM     16  N   UNL     1      42.822  25.222  86.777  0.00  0.00    +0.000 NA
ATOM     17  N   UNL     1      41.856  16.417  82.362  0.00  0.00    +0.000 N 
ATOM     18  N   UNL     1      40.767  19.277  82.875  0.00  0.00    +0.000 N 
ATOM     19  N   UNL     1      40.261  22.136  82.982  0.00  0.00    +0.000 NA
ATOM     20  N   UNL     1      42.966  24.604  83.793  0.00  0.00    +0.000 NA
ATOM     21  N   UNL     1      47.048  19.224  84.582  0.00  0.00    +0.000 NA
ATOM     22  N   UNL     1      44.746  17.545  82.506  0.00  0.00    +0.000 NA
ATOM     23  C   UNL     1      48.033  24.781  87.575  0.00  0.00    +0.000 C 
ATOM     24  C   UNL     1      48.222  21.921  89.152  0.00  0.00    +0.000 C 
ATOM     25  C   UNL     1      44.489  25.560  88.617  0.00  0.00    +0.000 C 
ATOM     26  C   UNL     1      48.831  25.730  86.961  0.00  0.00    +0.000 C 
ATOM     27  C   UNL     1      47.331  21.954  90.334  0.00  0.00    +0.000 C 
ATOM     28  C   UNL     1      46.731  25.232  87.640  0.00  0.00    +0.000 C 
ATOM     29  C   UNL     1      49.186  22.717  88.632  0.00  0.00    +0.000 C 
ATOM     30  C   UNL     1      49.251  19.348  88.140  0.00  0.00    +0.000 C 
ATOM     31  C   UNL     1      48.291  19.871  88.955  0.00  0.00    +0.000 C 
ATOM     32  C   UNL     1      43.075  25.436  88.149  0.00  0.00    +0.000 C 
ATOM     33  C   UNL     1      50.044  25.552  87.695  0.00  0.00    +0.000 C 
ATOM     34  C   UNL     1      48.060  26.833  86.797  0.00  0.00    +0.000 C 
ATOM     35  C   UNL     1      49.777  24.418  88.447  0.00  0.00    +0.000 C 
ATOM     36  C   UNL     1      48.229  20.544  90.707  0.00  0.00    +0.000 C 
ATOM     37  C   UNL     1      42.660  26.243  85.806  0.00  0.00    +0.000 C 
ATOM     38  C   UNL     1      40.664  18.546  81.719  0.00  0.00    +0.000 A 
ATOM     39  C   UNL     1      48.990  19.942  86.288  0.00  0.00    +0.000 C 
ATOM     40  C   UNL     1      43.119  15.886  81.995  0.00  0.00    +0.000 C 
ATOM     41  C   UNL     1      39.795  21.322  83.960  0.00  0.00    +0.000 C 
ATOM     42  C   UNL     1      49.624  17.751  87.067  0.00  0.00    +0.000 C 
ATOM     43  C   UNL     1      40.045  18.892  80.479  0.00  0.00    +0.000 A 
ATOM     44  C   UNL     1      42.610  14.187  81.620  0.00  0.00    +0.000 C 
ATOM     45  C   UNL     1      48.093  19.785  85.107  0.00  0.00    +0.000 C 
ATOM     46  C   UNL     1      38.312  21.257  83.712  0.00  0.00    +0.000 C 
ATOM     47  C   UNL     1      42.463  27.539  86.370  0.00  0.00    +0.000 C 
ATOM     48  C   UNL     1      41.222  17.288  81.517  0.00  0.00    +0.000 A 
ATOM     49  C   UNL     1      42.785  25.958  84.486  0.00  0.00    +0.000 C 
ATOM     50  C   UNL     1      39.838  20.091  83.324  0.00  0.00    +0.000 C 
ATOM     51  C   UNL     1      44.422  16.323  81.947  0.00  0.00    +0.000 C 
ATOM     52  C   UNL     1      41.709  23.850  83.822  0.00  0.00    +0.000 C 
ATOM     53  C   UNL     1      39.355  20.170  80.086  0.00  0.00    +0.000 C 
ATOM     54  C   UNL     1      40.280  17.865  79.601  0.00  0.00    +0.000 A 
ATOM     55  C   UNL     1      40.421  23.259  83.750  0.00  0.00    +0.000 C 
ATOM     56  C   UNL     1      45.930  18.067  82.533  0.00  0.00    +0.000 C 
ATOM     57  C   UNL     1      49.267  20.429  84.823  0.00  0.00    +0.000 C 
ATOM     58  C   UNL     1      41.696  15.107  82.065  0.00  0.00    +0.000 C 
ATOM     59  C   UNL     1      42.422  28.140  87.406  0.00  0.00    +0.000 C 
ATOM     60  C   UNL     1      46.989  18.807  83.325  0.00  0.00    +0.000 C 
ATOM     61  C   UNL     1      38.900  22.708  82.459  0.00  0.00    +0.000 C 
ATOM     62  C   UNL     1      42.953  25.648  82.987  0.00  0.00    +0.000 C 
ATOM     63  C   UNL     1      47.087  18.221  81.844  0.00  0.00    +0.000 C 
ATOM     64  H   UNL     1      43.432  24.498  86.397  0.00  0.00    +0.000 HD
ATOM     65  H   UNL     1      41.698  19.352  83.277  0.00  0.00    +0.000 HD
ATOM     66  H   UNL     1      46.343  18.866  85.221  0.00  0.00    +0.000 HD
ATOM     67  H   UNL     1      44.065  17.819  83.207  0.00  0.00    +0.000 HD
ATOM     68  C   UNL     1      44.679  26.725  89.172  0.00  0.00    +0.000 C 
ATOM     69  C   UNL     1      43.920  27.914  89.363  0.00  0.00    +0.000 C 
ATOM     70  C   UNL     1      42.582  27.723  88.768  0.00  0.00    +0.000 C 
ATOM     71  C   UNL     1      47.330  22.534  91.903  0.00  0.00    +0.000 C 
ATOM     72  C   UNL     1      46.290  23.040  92.563  0.00  0.00    +0.000 C 
ATOM     73  C   UNL     1      47.900  21.263  91.788  0.00  0.00    +0.000 C 
ATOM     74  C   UNL     1      50.151  18.200  88.316  0.00  0.00    +0.000 C 
ATOM     75  C   UNL     1      51.056  17.570  87.473  0.00  0.00    +0.000 C 
ATOM     76  C   UNL     1      51.683  16.208  87.841  0.00  0.00    +0.000 C 
ATOM     77  C   UNL     1      50.649  17.588  86.153  0.00  0.00    +0.000 C 
ATOM     78  C   UNL     1      36.930  22.021  83.972  0.00  0.00    +0.000 C 
ATOM     79  C   UNL     1      35.661  21.643  84.110  0.00  0.00    +0.000 C 
ATOM     80  C   UNL     1      37.651  22.737  83.016  0.00  0.00    +0.000 C 
ATOM     81  C   UNL     1      43.709  13.545  81.217  0.00  0.00    +0.000 C 
ATOM     82  C   UNL     1      43.690  12.104  80.825  0.00  0.00    +0.000 C 
ATOM     83  C   UNL     1      44.903  14.307  81.212  0.00  0.00    +0.000 C 
ENDROOT
BRANCH  69  84
ATOM     84  C   UNL     1      44.439  29.192  89.675  0.00  0.00    +0.000 C 
ATOM     85  C   UNL     1      44.888  30.275  89.939  0.00  0.00    +0.000 C 
BRANCH  85  86
ATOM     86  C   UNL     1      45.464  31.654  90.276  0.00  0.00    +0.000 C 
ATOM     87  C   UNL     1      45.962  32.855  90.566  0.00  0.00    +0.000 C 
ENDBRANCH  85  86
ENDBRANCH  69  84
BRANCH  13  88
ATOM     88  C   UNL     1      45.250  23.346  88.018  0.00  0.00    +0.000 C 
BRANCH  88  89
ATOM     89  O   UNL     1      44.974  22.059  87.857  0.00  0.00    +0.000 OA
ATOM     90  H   UNL     1      45.739  21.518  88.123  0.00  0.00    +0.000 HD
ENDBRANCH  88  89
ENDBRANCH  13  88
TORSDOF 4
ENDMDL
MODEL 9
REMARK VINA RESULT:      -7.9      5.513     14.215
REMARK  Name = Cyclosporin_A.pdbqt.pdb
REMARK  4 active torsions:
REMARK  status: ('A' for Active; 'I' for Inactive)
REMARK    1  A    between atoms: N_13  and  C_36
REMARK    2  A    between atoms: C_36  and  O_70
REMARK    3  A    between atoms: C_72  and  C_73
REMARK    4  A    between atoms: C_75  and  C_76
REMARK                            x       y       z     vdW  Elec       q    Type
REMARK                         _______ _______ _______ _____ _____    ______ ____
ROOT
ATOM      1  O   UNL     1      39.018  35.516  73.790  0.00  0.00    +0.000 OA
ATOM      2  O   UNL     1      34.940  32.426  73.433  0.00  0.00    +0.000 OA
ATOM      3  O   UNL     1      35.108  30.152  77.642  0.00  0.00    +0.000 OA
ATOM      4  O   UNL     1      42.953  33.962  76.262  0.00  0.00    +0.000 OA
ATOM      5  O   UNL     1      32.700  34.428  76.360  0.00  0.00    +0.000 OA
ATOM      6  O   UNL     1      36.262  38.633  86.195  0.00  0.00    +0.000 OA
ATOM      7  O   UNL     1      41.319  39.250  76.935  0.00  0.00    +0.000 OA
ATOM      8  O   UNL     1      40.691  37.069  84.710  0.00  0.00    +0.000 OA
ATOM      9  O   UNL     1      32.306  36.752  84.124  0.00  0.00    +0.000 OA
ATOM     10  O   UNL     1      42.201  38.662  81.238  0.00  0.00    +0.000 OA
ATOM     11  O   UNL     1      32.426  37.030  79.821  0.00  0.00    +0.000 OA
ATOM     12  N   UNL     1      36.577  33.105  74.213  0.00  0.00    +0.000 NA
ATOM     13  N   UNL     1      39.288  33.865  75.519  0.00  0.00    +0.000 NA
ATOM     14  N   UNL     1      34.752  31.037  75.902  0.00  0.00    +0.000 NA
ATOM     15  N   UNL     1      33.199  32.641  78.166  0.00  0.00    +0.000 NA
ATOM     16  N   UNL     1      41.294  35.465  77.230  0.00  0.00    +0.000 NA
ATOM     17  N   UNL     1      35.885  36.427  85.462  0.00  0.00    +0.000 N 
ATOM     18  N   UNL     1      38.496  37.037  83.900  0.00  0.00    +0.000 N 
ATOM     19  N   UNL     1      40.545  37.998  82.079  0.00  0.00    +0.000 NA
ATOM     20  N   UNL     1      40.052  38.012  78.361  0.00  0.00    +0.000 NA
ATOM     21  N   UNL     1      34.013  35.136  79.581  0.00  0.00    +0.000 NA
ATOM     22  N   UNL     1      34.310  36.567  82.789  0.00  0.00    +0.000 NA
ATOM     23  C   UNL     1      37.188  34.320  74.098  0.00  0.00    +0.000 C 
ATOM     24  C   UNL     1      35.824  31.806  75.686  0.00  0.00    +0.000 C 
ATOM     25  C   UNL     1      40.666  33.798  75.469  0.00  0.00    +0.000 C 
ATOM     26  C   UNL     1      36.945  35.198  73.057  0.00  0.00    +0.000 C 
ATOM     27  C   UNL     1      36.846  30.759  75.916  0.00  0.00    +0.000 C 
ATOM     28  C   UNL     1      38.477  34.483  74.561  0.00  0.00    +0.000 C 
ATOM     29  C   UNL     1      35.389  32.533  74.630  0.00  0.00    +0.000 C 
ATOM     30  C   UNL     1      33.294  31.766  77.203  0.00  0.00    +0.000 C 
ATOM     31  C   UNL     1      34.552  31.242  77.207  0.00  0.00    +0.000 C 
ATOM     32  C   UNL     1      41.576  34.254  76.563  0.00  0.00    +0.000 C 
ATOM     33  C   UNL     1      36.090  34.394  72.243  0.00  0.00    +0.000 C 
ATOM     34  C   UNL     1      38.131  35.786  72.766  0.00  0.00    +0.000 C 
ATOM     35  C   UNL     1      35.848  33.295  73.054  0.00  0.00    +0.000 C 
ATOM     36  C   UNL     1      35.441  29.859  76.300  0.00  0.00    +0.000 C 
ATOM     37  C   UNL     1      41.748  36.746  76.827  0.00  0.00    +0.000 C 
ATOM     38  C   UNL     1      37.859  37.853  84.800  0.00  0.00    +0.000 A 
ATOM     39  C   UNL     1      33.352  33.718  77.402  0.00  0.00    +0.000 C 
ATOM     40  C   UNL     1      34.502  36.517  85.160  0.00  0.00    +0.000 C 
ATOM     41  C   UNL     1      40.700  36.815  82.720  0.00  0.00    +0.000 C 
ATOM     42  C   UNL     1      31.814  32.169  78.423  0.00  0.00    +0.000 C 
ATOM     43  C   UNL     1      38.214  39.161  85.249  0.00  0.00    +0.000 A 
ATOM     44  C   UNL     1      33.835  36.274  86.827  0.00  0.00    +0.000 C 
ATOM     45  C   UNL     1      33.654  34.802  78.380  0.00  0.00    +0.000 C 
ATOM     46  C   UNL     1      41.755  37.091  83.757  0.00  0.00    +0.000 C 
ATOM     47  C   UNL     1      42.787  36.701  75.849  0.00  0.00    +0.000 C 
ATOM     48  C   UNL     1      36.655  37.559  85.432  0.00  0.00    +0.000 A 
ATOM     49  C   UNL     1      41.144  37.867  77.297  0.00  0.00    +0.000 C 
ATOM     50  C   UNL     1      39.800  36.958  83.764  0.00  0.00    +0.000 C 
ATOM     51  C   UNL     1      33.723  36.660  84.036  0.00  0.00    +0.000 C 
ATOM     52  C   UNL     1      40.610  37.770  79.695  0.00  0.00    +0.000 C 
ATOM     53  C   UNL     1      39.378  40.023  84.837  0.00  0.00    +0.000 C 
ATOM     54  C   UNL     1      37.218  39.596  86.085  0.00  0.00    +0.000 A 
ATOM     55  C   UNL     1      41.260  37.683  80.953  0.00  0.00    +0.000 C 
ATOM     56  C   UNL     1      33.692  36.676  81.658  0.00  0.00    +0.000 C 
ATOM     57  C   UNL     1      33.031  35.246  77.245  0.00  0.00    +0.000 C 
ATOM     58  C   UNL     1      35.187  36.235  86.605  0.00  0.00    +0.000 C 
ATOM     59  C   UNL     1      43.430  35.957  75.165  0.00  0.00    +0.000 C 
ATOM     60  C   UNL     1      33.493  36.157  80.248  0.00  0.00    +0.000 C 
ATOM     61  C   UNL     1      41.796  38.755  82.640  0.00  0.00    +0.000 C 
ATOM     62  C   UNL     1      40.446  39.142  77.805  0.00  0.00    +0.000 C 
ATOM     63  C   UNL     1      32.698  37.319  80.999  0.00  0.00    +0.000 C 
ATOM     64  H   UNL     1      40.307  35.528  77.481  0.00  0.00    +0.000 HD
ATOM     65  H   UNL     1      37.917  36.646  83.161  0.00  0.00    +0.000 HD
ATOM     66  H   UNL     1      34.526  34.445  80.122  0.00  0.00    +0.000 HD
ATOM     67  H   UNL     1      35.181  36.046  82.833  0.00  0.00    +0.000 HD
ATOM     68  C   UNL     1      41.326  33.695  74.348  0.00  0.00    +0.000 C 
ATOM     69  C   UNL     1      42.644  33.983  73.896  0.00  0.00    +0.000 C 
ATOM     70  C   UNL     1      43.424  34.530  75.024  0.00  0.00    +0.000 C 
ATOM     71  C   UNL     1      37.586  29.509  75.086  0.00  0.00    +0.000 C 
ATOM     72  C   UNL     1      38.857  29.127  75.193  0.00  0.00    +0.000 C 
ATOM     73  C   UNL     1      36.388  29.128  75.699  0.00  0.00    +0.000 C 
ATOM     74  C   UNL     1      31.984  31.144  77.442  0.00  0.00    +0.000 C 
ATOM     75  C   UNL     1      30.700  31.658  77.559  0.00  0.00    +0.000 C 
ATOM     76  C   UNL     1      29.532  30.793  78.078  0.00  0.00    +0.000 C 
ATOM     77  C   UNL     1      30.683  32.912  78.138  0.00  0.00    +0.000 C 
ATOM     78  C   UNL     1      43.336  37.190  83.990  0.00  0.00    +0.000 C 
ATOM     79  C   UNL     1      44.146  36.985  85.025  0.00  0.00    +0.000 C 
ATOM     80  C   UNL     1      42.931  38.306  83.256  0.00  0.00    +0.000 C 
ATOM     81  C   UNL     1      32.507  36.364  86.719  0.00  0.00    +0.000 C 
ATOM     82  C   UNL     1      31.600  36.208  87.894  0.00  0.00    +0.000 C 
ATOM     83  C   UNL     1      32.008  36.590  85.413  0.00  0.00    +0.000 C 
ENDROOT
BRANCH  69  84
ATOM     84  C   UNL     1      43.048  34.132  72.548  0.00  0.00    +0.000 C 
ATOM     85  C   UNL     1      43.396  34.265  71.406  0.00  0.00    +0.000 C 
BRANCH  85  86
ATOM     86  C   UNL     1      43.841  34.439  69.950  0.00  0.00    +0.000 C 
ATOM     87  C   UNL     1      44.223  34.586  68.683  0.00  0.00    +0.000 C 
ENDBRANCH  85  86
ENDBRANCH  69  84
BRANCH  13  88
ATOM     88  C   UNL     1      38.657  33.517  76.781  0.00  0.00    +0.000 C 
BRANCH  88  89
ATOM     89  O   UNL     1      38.102  33.206  77.945  0.00  0.00    +0.000 OA
ATOM     90  H   UNL     1      38.688  33.472  78.675  0.00  0.00    +0.000 HD
ENDBRANCH  88  89
ENDBRANCH  13  88
TORSDOF 4
ENDMDL
