MODEL 1
REMARK VINA RESULT:      -6.1      0.000      0.000
REMARK  Name = Danazol.pdbqt.pdb
REMARK  2 active torsions:
REMARK  status: ('A' for Active; 'I' for Inactive)
REMARK    1  A    between atoms: C_9  and  O_23
REMARK    2  A    between atoms: C_9  and  C_25
REMARK                            x       y       z     vdW  Elec       q    Type
REMARK                         _______ _______ _______ _____ _____    ______ ____
ROOT
ATOM      1  O   UNL     1      39.681  23.930  83.355  0.00  0.00    +0.000 OA
ATOM      2  N   UNL     1      39.723  23.563  81.993  0.00  0.00    +0.000 NA
ATOM      3  C   UNL     1      46.809  24.545  85.953  0.00  0.00    +0.000 C 
ATOM      4  C   UNL     1      48.003  24.513  84.862  0.00  0.00    +0.000 C 
ATOM      5  C   UNL     1      45.442  24.993  85.630  0.00  0.00    +0.000 C 
ATOM      6  C   UNL     1      44.917  25.331  84.260  0.00  0.00    +0.000 C 
ATOM      7  C   UNL     1      43.515  25.927  83.993  0.00  0.00    +0.000 C 
ATOM      8  C   UNL     1      47.339  24.736  83.568  0.00  0.00    +0.000 C 
ATOM      9  C   UNL     1      48.682  23.044  85.074  0.00  0.00    +0.000 C 
ATOM     10  C   UNL     1      45.916  25.134  83.268  0.00  0.00    +0.000 C 
ATOM     11  C   UNL     1      47.050  23.545  86.938  0.00  0.00    +0.000 C 
ATOM     12  C   UNL     1      44.429  25.030  86.616  0.00  0.00    +0.000 C 
ATOM     13  C   UNL     1      48.169  22.693  86.415  0.00  0.00    +0.000 C 
ATOM     14  C   UNL     1      42.407  25.675  85.203  0.00  0.00    +0.000 C 
ATOM     15  C   UNL     1      48.945  25.719  85.222  0.00  0.00    +0.000 C 
ATOM     16  C   UNL     1      42.972  25.346  86.459  0.00  0.00    +0.000 C 
ATOM     17  C   UNL     1      42.893  25.264  82.792  0.00  0.00    +0.000 C 
ATOM     18  C   UNL     1      43.637  27.465  83.798  0.00  0.00    +0.000 C 
ATOM     19  C   UNL     1      41.280  25.091  84.856  0.00  0.00    +0.000 C 
ATOM     20  C   UNL     1      41.650  24.616  82.531  0.00  0.00    +0.000 A 
ATOM     21  C   UNL     1      40.834  24.552  83.627  0.00  0.00    +0.000 A 
ATOM     22  C   UNL     1      40.914  23.994  81.527  0.00  0.00    +0.000 A 
ENDROOT
BRANCH   9  23
ATOM     23  O   UNL     1      50.118  23.041  85.105  0.00  0.00    +0.000 OA
ATOM     24  H   UNL     1      50.432  23.037  84.184  0.00  0.00    +0.000 HD
ENDBRANCH   9  23
BRANCH   9  25
ATOM     25  C   UNL     1      48.210  22.080  84.050  0.00  0.00    +0.000 C 
ATOM     26  C   UNL     1      47.827  21.284  83.244  0.00  0.00    +0.000 C 
ENDBRANCH   9  25
TORSDOF 2
ENDMDL
MODEL 2
REMARK VINA RESULT:      -6.0      3.420      6.967
REMARK  Name = Danazol.pdbqt.pdb
REMARK  2 active torsions:
REMARK  status: ('A' for Active; 'I' for Inactive)
REMARK    1  A    between atoms: C_9  and  O_23
REMARK    2  A    between atoms: C_9  and  C_25
REMARK                            x       y       z     vdW  Elec       q    Type
REMARK                         _______ _______ _______ _____ _____    ______ ____
ROOT
ATOM      1  O   UNL     1      50.026  22.311  85.855  0.00  0.00    +0.000 OA
ATOM      2  N   UNL     1      51.045  23.193  86.273  0.00  0.00    +0.000 NA
ATOM      3  C   UNL     1      43.432  26.108  85.634  0.00  0.00    +0.000 C 
ATOM      4  C   UNL     1      43.496  27.717  85.785  0.00  0.00    +0.000 C 
ATOM      5  C   UNL     1      44.554  25.309  85.105  0.00  0.00    +0.000 C 
ATOM      6  C   UNL     1      45.933  25.817  84.782  0.00  0.00    +0.000 C 
ATOM      7  C   UNL     1      47.032  24.967  84.101  0.00  0.00    +0.000 C 
ATOM      8  C   UNL     1      44.908  28.062  85.563  0.00  0.00    +0.000 C 
ATOM      9  C   UNL     1      42.920  27.987  87.288  0.00  0.00    +0.000 C 
ATOM     10  C   UNL     1      46.050  27.202  85.082  0.00  0.00    +0.000 C 
ATOM     11  C   UNL     1      42.541  25.582  86.612  0.00  0.00    +0.000 C 
ATOM     12  C   UNL     1      44.453  23.906  84.964  0.00  0.00    +0.000 C 
ATOM     13  C   UNL     1      42.233  26.706  87.556  0.00  0.00    +0.000 C 
ATOM     14  C   UNL     1      46.827  23.325  84.235  0.00  0.00    +0.000 C 
ATOM     15  C   UNL     1      42.593  28.292  84.634  0.00  0.00    +0.000 C 
ATOM     16  C   UNL     1      45.508  22.921  84.556  0.00  0.00    +0.000 C 
ATOM     17  C   UNL     1      48.361  25.218  84.764  0.00  0.00    +0.000 C 
ATOM     18  C   UNL     1      47.076  25.301  82.583  0.00  0.00    +0.000 C 
ATOM     19  C   UNL     1      47.828  22.647  84.752  0.00  0.00    +0.000 C 
ATOM     20  C   UNL     1      49.373  24.392  85.334  0.00  0.00    +0.000 A 
ATOM     21  C   UNL     1      49.063  23.059  85.303  0.00  0.00    +0.000 A 
ATOM     22  C   UNL     1      50.625  24.432  85.940  0.00  0.00    +0.000 A 
ENDROOT
BRANCH   9  23
ATOM     23  O   UNL     1      41.970  29.059  87.387  0.00  0.00    +0.000 OA
ATOM     24  H   UNL     1      42.271  29.654  88.097  0.00  0.00    +0.000 HD
ENDBRANCH   9  23
BRANCH   9  25
ATOM     25  C   UNL     1      44.023  28.216  88.254  0.00  0.00    +0.000 C 
ATOM     26  C   UNL     1      44.908  28.375  89.042  0.00  0.00    +0.000 C 
ENDBRANCH   9  25
TORSDOF 2
ENDMDL
MODEL 3
REMARK VINA RESULT:      -5.9     39.201     42.048
REMARK  Name = Danazol.pdbqt.pdb
REMARK  2 active torsions:
REMARK  status: ('A' for Active; 'I' for Inactive)
REMARK    1  A    between atoms: C_9  and  O_23
REMARK    2  A    between atoms: C_9  and  C_25
REMARK                            x       y       z     vdW  Elec       q    Type
REMARK                         _______ _______ _______ _____ _____    ______ ____
ROOT
ATOM      1  O   UNL     1      11.970  11.749 101.064  0.00  0.00    +0.000 OA
ATOM      2  N   UNL     1      11.491  10.514 101.550  0.00  0.00    +0.000 NA
ATOM      3  C   UNL     1       6.245  15.446  97.675  0.00  0.00    +0.000 C 
ATOM      4  C   UNL     1       4.754  14.850  97.876  0.00  0.00    +0.000 C 
ATOM      5  C   UNL     1       7.330  15.232  98.651  0.00  0.00    +0.000 C 
ATOM      6  C   UNL     1       7.275  14.336  99.860  0.00  0.00    +0.000 C 
ATOM      7  C   UNL     1       8.392  14.253 100.927  0.00  0.00    +0.000 C 
ATOM      8  C   UNL     1       4.870  13.911  99.002  0.00  0.00    +0.000 C 
ATOM      9  C   UNL     1       4.402  14.190  96.425  0.00  0.00    +0.000 C 
ATOM     10  C   UNL     1       6.022  13.670  99.945  0.00  0.00    +0.000 C 
ATOM     11  C   UNL     1       6.512  15.574  96.282  0.00  0.00    +0.000 C 
ATOM     12  C   UNL     1       8.614  15.787  98.454  0.00  0.00    +0.000 C 
ATOM     13  C   UNL     1       5.407  14.854  95.568  0.00  0.00    +0.000 C 
ATOM     14  C   UNL     1       9.885  14.768 100.416  0.00  0.00    +0.000 C 
ATOM     15  C   UNL     1       3.851  16.078  98.264  0.00  0.00    +0.000 C 
ATOM     16  C   UNL     1       9.861  15.593  99.265  0.00  0.00    +0.000 C 
ATOM     17  C   UNL     1       8.623  12.817 101.319  0.00  0.00    +0.000 C 
ATOM     18  C   UNL     1       8.001  15.126 102.153  0.00  0.00    +0.000 C 
ATOM     19  C   UNL     1      10.879  13.917 100.550  0.00  0.00    +0.000 C 
ATOM     20  C   UNL     1       9.764  11.965 101.394  0.00  0.00    +0.000 A 
ATOM     21  C   UNL     1      10.921  12.575 100.993  0.00  0.00    +0.000 A 
ATOM     22  C   UNL     1      10.165  10.679 101.744  0.00  0.00    +0.000 A 
ENDROOT
BRANCH   9  23
ATOM     23  O   UNL     1       3.089  14.490  95.928  0.00  0.00    +0.000 OA
ATOM     24  H   UNL     1       2.750  13.689  95.490  0.00  0.00    +0.000 HD
ENDBRANCH   9  23
BRANCH   9  25
ATOM     25  C   UNL     1       4.599  12.720  96.441  0.00  0.00    +0.000 C 
ATOM     26  C   UNL     1       4.737  11.533  96.437  0.00  0.00    +0.000 C 
ENDBRANCH   9  25
TORSDOF 2
ENDMDL
MODEL 4
REMARK VINA RESULT:      -5.7      2.995      4.840
REMARK  Name = Danazol.pdbqt.pdb
REMARK  2 active torsions:
REMARK  status: ('A' for Active; 'I' for Inactive)
REMARK    1  A    between atoms: C_9  and  O_23
REMARK    2  A    between atoms: C_9  and  C_25
REMARK                            x       y       z     vdW  Elec       q    Type
REMARK                         _______ _______ _______ _____ _____    ______ ____
ROOT
ATOM      1  O   UNL     1      40.414  19.575  83.800  0.00  0.00    +0.000 OA
ATOM      2  N   UNL     1      41.545  18.908  83.284  0.00  0.00    +0.000 NA
ATOM      3  C   UNL     1      42.220  26.860  85.067  0.00  0.00    +0.000 C 
ATOM      4  C   UNL     1      43.631  27.388  84.478  0.00  0.00    +0.000 C 
ATOM      5  C   UNL     1      41.478  25.731  84.473  0.00  0.00    +0.000 C 
ATOM      6  C   UNL     1      41.963  24.829  83.371  0.00  0.00    +0.000 C 
ATOM      7  C   UNL     1      41.092  23.747  82.691  0.00  0.00    +0.000 C 
ATOM      8  C   UNL     1      44.044  26.363  83.507  0.00  0.00    +0.000 C 
ATOM      9  C   UNL     1      44.571  27.541  85.803  0.00  0.00    +0.000 C 
ATOM     10  C   UNL     1      43.281  25.179  82.967  0.00  0.00    +0.000 C 
ATOM     11  C   UNL     1      42.166  27.132  86.464  0.00  0.00    +0.000 C 
ATOM     12  C   UNL     1      40.236  25.311  85.002  0.00  0.00    +0.000 C 
ATOM     13  C   UNL     1      43.548  27.555  86.868  0.00  0.00    +0.000 C 
ATOM     14  C   UNL     1      39.786  23.241  83.582  0.00  0.00    +0.000 C 
ATOM     15  C   UNL     1      43.310  28.746  83.752  0.00  0.00    +0.000 C 
ATOM     16  C   UNL     1      39.396  24.132  84.612  0.00  0.00    +0.000 C 
ATOM     17  C   UNL     1      41.896  22.489  82.490  0.00  0.00    +0.000 C 
ATOM     18  C   UNL     1      40.542  24.297  81.345  0.00  0.00    +0.000 C 
ATOM     19  C   UNL     1      39.693  21.949  83.811  0.00  0.00    +0.000 C 
ATOM     20  C   UNL     1      41.714  21.114  82.817  0.00  0.00    +0.000 A 
ATOM     21  C   UNL     1      40.552  20.871  83.497  0.00  0.00    +0.000 A 
ATOM     22  C   UNL     1      42.302  19.859  82.695  0.00  0.00    +0.000 A 
ENDROOT
BRANCH   9  23
ATOM     23  O   UNL     1      45.333  28.757  85.866  0.00  0.00    +0.000 OA
ATOM     24  H   UNL     1      45.938  28.686  86.625  0.00  0.00    +0.000 HD
ENDBRANCH   9  23
BRANCH   9  25
ATOM     25  C   UNL     1      45.484  26.380  85.951  0.00  0.00    +0.000 C 
ATOM     26  C   UNL     1      46.224  25.453  86.097  0.00  0.00    +0.000 C 
ENDBRANCH   9  25
TORSDOF 2
ENDMDL
MODEL 5
REMARK VINA RESULT:      -5.5      2.361      3.608
REMARK  Name = Danazol.pdbqt.pdb
REMARK  2 active torsions:
REMARK  status: ('A' for Active; 'I' for Inactive)
REMARK    1  A    between atoms: C_9  and  O_23
REMARK    2  A    between atoms: C_9  and  C_25
REMARK                            x       y       z     vdW  Elec       q    Type
REMARK                         _______ _______ _______ _____ _____    ______ ____
ROOT
ATOM      1  O   UNL     1      41.729  25.399  82.723  0.00  0.00    +0.000 OA
ATOM      2  N   UNL     1      41.437  24.025  82.586  0.00  0.00    +0.000 NA
ATOM      3  C   UNL     1      47.557  26.203  87.553  0.00  0.00    +0.000 C 
ATOM      4  C   UNL     1      48.356  24.864  87.981  0.00  0.00    +0.000 C 
ATOM      5  C   UNL     1      46.829  26.325  86.275  0.00  0.00    +0.000 C 
ATOM      6  C   UNL     1      46.590  25.224  85.279  0.00  0.00    +0.000 C 
ATOM      7  C   UNL     1      45.939  25.438  83.892  0.00  0.00    +0.000 C 
ATOM      8  C   UNL     1      47.943  23.847  87.002  0.00  0.00    +0.000 C 
ATOM      9  C   UNL     1      47.884  24.608  89.523  0.00  0.00    +0.000 C 
ATOM     10  C   UNL     1      47.140  23.995  85.734  0.00  0.00    +0.000 C 
ATOM     11  C   UNL     1      47.119  26.881  88.726  0.00  0.00    +0.000 C 
ATOM     12  C   UNL     1      46.160  27.521  85.924  0.00  0.00    +0.000 C 
ATOM     13  C   UNL     1      47.344  25.938  89.871  0.00  0.00    +0.000 C 
ATOM     14  C   UNL     1      45.018  26.812  83.757  0.00  0.00    +0.000 C 
ATOM     15  C   UNL     1      49.882  25.206  87.820  0.00  0.00    +0.000 C 
ATOM     16  C   UNL     1      45.286  27.798  84.738  0.00  0.00    +0.000 C 
ATOM     17  C   UNL     1      44.966  24.324  83.602  0.00  0.00    +0.000 C 
ATOM     18  C   UNL     1      47.051  25.523  82.807  0.00  0.00    +0.000 C 
ATOM     19  C   UNL     1      43.774  26.651  83.361  0.00  0.00    +0.000 C 
ATOM     20  C   UNL     1      43.599  24.261  83.206  0.00  0.00    +0.000 A 
ATOM     21  C   UNL     1      43.014  25.491  83.084  0.00  0.00    +0.000 A 
ATOM     22  C   UNL     1      42.581  23.370  82.877  0.00  0.00    +0.000 A 
ENDROOT
BRANCH   9  23
ATOM     23  O   UNL     1      48.946  24.278  90.432  0.00  0.00    +0.000 OA
ATOM     24  H   UNL     1      49.187  23.348  90.278  0.00  0.00    +0.000 HD
ENDBRANCH   9  23
BRANCH   9  25
ATOM     25  C   UNL     1      46.831  23.565  89.597  0.00  0.00    +0.000 C 
ATOM     26  C   UNL     1      46.001  22.707  89.648  0.00  0.00    +0.000 C 
ENDBRANCH   9  25
TORSDOF 2
ENDMDL
MODEL 6
REMARK VINA RESULT:      -5.4     38.444     40.692
REMARK  Name = Danazol.pdbqt.pdb
REMARK  2 active torsions:
REMARK  status: ('A' for Active; 'I' for Inactive)
REMARK    1  A    between atoms: C_9  and  O_23
REMARK    2  A    between atoms: C_9  and  C_25
REMARK                            x       y       z     vdW  Elec       q    Type
REMARK                         _______ _______ _______ _____ _____    ______ ____
ROOT
ATOM      1  O   UNL     1      12.915   2.452  96.168  0.00  0.00    +0.000 OA
ATOM      2  N   UNL     1      12.454   1.308  96.855  0.00  0.00    +0.000 NA
ATOM      3  C   UNL     1      12.363   8.476 100.788  0.00  0.00    +0.000 C 
ATOM      4  C   UNL     1      12.036   8.189 102.346  0.00  0.00    +0.000 C 
ATOM      5  C   UNL     1      13.037   7.492  99.919  0.00  0.00    +0.000 C 
ATOM      6  C   UNL     1      13.372   6.070 100.278  0.00  0.00    +0.000 C 
ATOM      7  C   UNL     1      14.201   5.122  99.379  0.00  0.00    +0.000 C 
ATOM      8  C   UNL     1      12.291   6.752 102.529  0.00  0.00    +0.000 C 
ATOM      9  C   UNL     1      10.484   8.668 102.509  0.00  0.00    +0.000 C 
ATOM     10  C   UNL     1      12.926   5.756 101.591  0.00  0.00    +0.000 C 
ATOM     11  C   UNL     1      11.405   9.393 100.271  0.00  0.00    +0.000 C 
ATOM     12  C   UNL     1      13.328   7.787  98.567  0.00  0.00    +0.000 C 
ATOM     13  C   UNL     1      10.326   9.511 101.306  0.00  0.00    +0.000 C 
ATOM     14  C   UNL     1      14.241   5.542  97.774  0.00  0.00    +0.000 C 
ATOM     15  C   UNL     1      13.067   9.048 103.166  0.00  0.00    +0.000 C 
ATOM     16  C   UNL     1      13.899   6.890  97.509  0.00  0.00    +0.000 C 
ATOM     17  C   UNL     1      13.585   3.747  99.375  0.00  0.00    +0.000 C 
ATOM     18  C   UNL     1      15.672   5.089  99.881  0.00  0.00    +0.000 C 
ATOM     19  C   UNL     1      13.856   4.623  96.915  0.00  0.00    +0.000 C 
ATOM     20  C   UNL     1      13.164   2.836  98.363  0.00  0.00    +0.000 A 
ATOM     21  C   UNL     1      13.328   3.324  97.095  0.00  0.00    +0.000 A 
ATOM     22  C   UNL     1      12.624   1.568  98.169  0.00  0.00    +0.000 A 
ENDROOT
BRANCH   9  23
ATOM     23  O   UNL     1      10.215   9.460 103.677  0.00  0.00    +0.000 OA
ATOM     24  H   UNL     1       9.794  10.286 103.382  0.00  0.00    +0.000 HD
ENDBRANCH   9  23
BRANCH   9  25
ATOM     25  C   UNL     1       9.558   7.509 102.477  0.00  0.00    +0.000 C 
ATOM     26  C   UNL     1       8.828   6.562 102.469  0.00  0.00    +0.000 C 
ENDBRANCH   9  25
TORSDOF 2
ENDMDL
MODEL 7
REMARK VINA RESULT:      -5.2     23.892     26.399
REMARK  Name = Danazol.pdbqt.pdb
REMARK  2 active torsions:
REMARK  status: ('A' for Active; 'I' for Inactive)
REMARK    1  A    between atoms: C_9  and  O_23
REMARK    2  A    between atoms: C_9  and  C_25
REMARK                            x       y       z     vdW  Elec       q    Type
REMARK                         _______ _______ _______ _____ _____    ______ ____
ROOT
ATOM      1  O   UNL     1      16.278  15.619  85.581  0.00  0.00    +0.000 OA
ATOM      2  N   UNL     1      17.054  14.613  84.967  0.00  0.00    +0.000 NA
ATOM      3  C   UNL     1      20.515  19.106  90.856  0.00  0.00    +0.000 C 
ATOM      4  C   UNL     1      22.099  18.779  90.871  0.00  0.00    +0.000 C 
ATOM      5  C   UNL     1      19.687  18.994  89.640  0.00  0.00    +0.000 C 
ATOM      6  C   UNL     1      20.126  18.434  88.314  0.00  0.00    +0.000 C 
ATOM      7  C   UNL     1      19.260  18.464  87.033  0.00  0.00    +0.000 C 
ATOM      8  C   UNL     1      22.365  18.134  89.576  0.00  0.00    +0.000 C 
ATOM      9  C   UNL     1      22.288  17.840  92.192  0.00  0.00    +0.000 C 
ATOM     10  C   UNL     1      21.471  17.979  88.372  0.00  0.00    +0.000 C 
ATOM     11  C   UNL     1      19.975  18.857  92.149  0.00  0.00    +0.000 C 
ATOM     12  C   UNL     1      18.310  19.311  89.660  0.00  0.00    +0.000 C 
ATOM     13  C   UNL     1      21.039  18.138  92.924  0.00  0.00    +0.000 C 
ATOM     14  C   UNL     1      17.630  18.639  87.295  0.00  0.00    +0.000 C 
ATOM     15  C   UNL     1      22.824  20.172  90.960  0.00  0.00    +0.000 C 
ATOM     16  C   UNL     1      17.291  19.156  88.569  0.00  0.00    +0.000 C 
ATOM     17  C   UNL     1      19.367  17.149  86.307  0.00  0.00    +0.000 C 
ATOM     18  C   UNL     1      19.709  19.652  86.135  0.00  0.00    +0.000 C 
ATOM     19  C   UNL     1      16.848  17.722  86.768  0.00  0.00    +0.000 C 
ATOM     20  C   UNL     1      18.433  16.198  85.803  0.00  0.00    +0.000 A 
ATOM     21  C   UNL     1      17.131  16.534  86.056  0.00  0.00    +0.000 A 
ATOM     22  C   UNL     1      18.341  14.994  85.111  0.00  0.00    +0.000 A 
ENDROOT
BRANCH   9  23
ATOM     23  O   UNL     1      23.411  18.180  93.021  0.00  0.00    +0.000 OA
ATOM     24  H   UNL     1      23.638  19.110  92.841  0.00  0.00    +0.000 HD
ENDBRANCH   9  23
BRANCH   9  25
ATOM     25  C   UNL     1      22.365  16.404  91.825  0.00  0.00    +0.000 C 
ATOM     26  C   UNL     1      22.414  15.254  91.506  0.00  0.00    +0.000 C 
ENDBRANCH   9  25
TORSDOF 2
ENDMDL
MODEL 8
REMARK VINA RESULT:      -5.2     23.900     25.824
REMARK  Name = Danazol.pdbqt.pdb
REMARK  2 active torsions:
REMARK  status: ('A' for Active; 'I' for Inactive)
REMARK    1  A    between atoms: C_9  and  O_23
REMARK    2  A    between atoms: C_9  and  C_25
REMARK                            x       y       z     vdW  Elec       q    Type
REMARK                         _______ _______ _______ _____ _____    ______ ____
ROOT
ATOM      1  O   UNL     1      22.107  24.397  95.931  0.00  0.00    +0.000 OA
ATOM      2  N   UNL     1      22.976  25.127  95.094  0.00  0.00    +0.000 NA
ATOM      3  C   UNL     1      20.592  17.696  92.653  0.00  0.00    +0.000 C 
ATOM      4  C   UNL     1      21.478  17.283  91.365  0.00  0.00    +0.000 C 
ATOM      5  C   UNL     1      21.083  18.612  93.701  0.00  0.00    +0.000 C 
ATOM      6  C   UNL     1      22.366  19.398  93.665  0.00  0.00    +0.000 C 
ATOM      7  C   UNL     1      22.900  20.238  94.849  0.00  0.00    +0.000 C 
ATOM      8  C   UNL     1      22.628  18.199  91.386  0.00  0.00    +0.000 C 
ATOM      9  C   UNL     1      20.445  17.458  90.113  0.00  0.00    +0.000 C 
ATOM     10  C   UNL     1      23.068  19.174  92.449  0.00  0.00    +0.000 C 
ATOM     11  C   UNL     1      19.212  17.629  92.312  0.00  0.00    +0.000 C 
ATOM     12  C   UNL     1      20.289  18.933  94.826  0.00  0.00    +0.000 C 
ATOM     13  C   UNL     1      19.149  17.463  90.822  0.00  0.00    +0.000 C 
ATOM     14  C   UNL     1      21.751  20.688  95.960  0.00  0.00    +0.000 C 
ATOM     15  C   UNL     1      21.940  15.802  91.619  0.00  0.00    +0.000 C 
ATOM     16  C   UNL     1      20.564  19.915  95.925  0.00  0.00    +0.000 C 
ATOM     17  C   UNL     1      23.444  21.549  94.346  0.00  0.00    +0.000 C 
ATOM     18  C   UNL     1      23.982  19.424  95.614  0.00  0.00    +0.000 C 
ATOM     19  C   UNL     1      21.647  21.974  96.212  0.00  0.00    +0.000 C 
ATOM     20  C   UNL     1      23.231  22.920  94.673  0.00  0.00    +0.000 A 
ATOM     21  C   UNL     1      22.294  23.102  95.654  0.00  0.00    +0.000 A 
ATOM     22  C   UNL     1      23.640  24.212  94.356  0.00  0.00    +0.000 A 
ENDROOT
BRANCH   9  23
ATOM     23  O   UNL     1      20.458  16.381  89.164  0.00  0.00    +0.000 OA
ATOM     24  H   UNL     1      21.074  16.624  88.450  0.00  0.00    +0.000 HD
ENDBRANCH   9  23
BRANCH   9  25
ATOM     25  C   UNL     1      20.673  18.742  89.403  0.00  0.00    +0.000 C 
ATOM     26  C   UNL     1      20.830  19.780  88.833  0.00  0.00    +0.000 C 
ENDBRANCH   9  25
TORSDOF 2
ENDMDL
MODEL 9
REMARK VINA RESULT:      -5.2      3.192      7.126
REMARK  Name = Danazol.pdbqt.pdb
REMARK  2 active torsions:
REMARK  status: ('A' for Active; 'I' for Inactive)
REMARK    1  A    between atoms: C_9  and  O_23
REMARK    2  A    between atoms: C_9  and  C_25
REMARK                            x       y       z     vdW  Elec       q    Type
REMARK                         _______ _______ _______ _____ _____    ______ ____
ROOT
ATOM      1  O   UNL     1      48.601  21.391  88.462  0.00  0.00    +0.000 OA
ATOM      2  N   UNL     1      48.658  21.923  89.767  0.00  0.00    +0.000 NA
ATOM      3  C   UNL     1      44.754  26.218  84.008  0.00  0.00    +0.000 C 
ATOM      4  C   UNL     1      44.424  27.682  84.611  0.00  0.00    +0.000 C 
ATOM      5  C   UNL     1      45.906  25.410  84.454  0.00  0.00    +0.000 C 
ATOM      6  C   UNL     1      46.827  25.732  85.599  0.00  0.00    +0.000 C 
ATOM      7  C   UNL     1      48.101  24.923  85.939  0.00  0.00    +0.000 C 
ATOM      8  C   UNL     1      45.303  27.816  85.782  0.00  0.00    +0.000 C 
ATOM      9  C   UNL     1      42.822  27.621  84.920  0.00  0.00    +0.000 C 
ATOM     10  C   UNL     1      46.434  26.934  86.248  0.00  0.00    +0.000 C 
ATOM     11  C   UNL     1      43.543  25.608  83.571  0.00  0.00    +0.000 C 
ATOM     12  C   UNL     1      46.177  24.144  83.887  0.00  0.00    +0.000 C 
ATOM     13  C   UNL     1      42.425  26.461  84.094  0.00  0.00    +0.000 C 
ATOM     14  C   UNL     1      48.123  23.374  85.343  0.00  0.00    +0.000 C 
ATOM     15  C   UNL     1      44.828  28.708  83.490  0.00  0.00    +0.000 C 
ATOM     16  C   UNL     1      47.219  23.139  84.279  0.00  0.00    +0.000 C 
ATOM     17  C   UNL     1      48.210  24.736  87.429  0.00  0.00    +0.000 C 
ATOM     18  C   UNL     1      49.347  25.653  85.361  0.00  0.00    +0.000 C 
ATOM     19  C   UNL     1      48.317  22.410  86.217  0.00  0.00    +0.000 C 
ATOM     20  C   UNL     1      48.387  23.616  88.293  0.00  0.00    +0.000 A 
ATOM     21  C   UNL     1      48.446  22.423  87.625  0.00  0.00    +0.000 A 
ATOM     22  C   UNL     1      48.533  23.260  89.630  0.00  0.00    +0.000 A 
ENDROOT
BRANCH   9  23
ATOM     23  O   UNL     1      42.081  28.775  84.496  0.00  0.00    +0.000 OA
ATOM     24  H   UNL     1      41.192  28.715  84.888  0.00  0.00    +0.000 HD
ENDBRANCH   9  23
BRANCH   9  25
ATOM     25  C   UNL     1      42.561  27.369  86.359  0.00  0.00    +0.000 C 
ATOM     26  C   UNL     1      42.378  27.164  87.522  0.00  0.00    +0.000 C 
ENDBRANCH   9  25
TORSDOF 2
ENDMDL
