REMARK  Name = Dasatinib.pdbqt.pdb
REMARK  5 active torsions:
REMARK  status: ('A' for Active; 'I' for Inactive)
REMARK    1  A    between atoms: N_1  and  C_3
REMARK    2  A    between atoms: N_13  and  C_16
REMARK    3  A    between atoms: C_17  and  O_18
REMARK    4  A    between atoms: C_22  and  C_25
REMARK    5  A    between atoms: N_27  and  C_29
REMARK                            x       y       z     vdW  Elec       q    Type
REMARK                         _______ _______ _______ _____ _____    ______ ____
ROOT
ATOM      1  N   UNL     1      -0.499  -0.710   0.069  0.00  0.00    +0.000 N 
ATOM      2  H   UNL     1      -0.732  -1.560  -0.430  0.00  0.00    +0.000 HD
ATOM      3  C   UNL     1       0.816  -0.397   0.137  0.00  0.00    +0.000 A 
ATOM      4  S   UNL     1       1.976  -1.520  -0.483  0.00  0.00    +0.000 S 
ATOM      5  C   UNL     1       3.250  -0.468  -0.029  0.00  0.00    +0.000 A 
ATOM      6  C   UNL     1       2.708   0.646   0.566  0.00  0.00    +0.000 A 
ATOM      7  N   UNL     1       1.342   0.675   0.686  0.00  0.00    +0.000 NA
ENDROOT
BRANCH   1   8
ATOM      8  C   UNL     1      -1.548   0.235   0.067  0.00  0.00    +0.000 A 
ATOM      9  N   UNL     1      -1.318   1.540  -0.118  0.00  0.00    +0.000 NA
ATOM     10  C   UNL     1      -2.370   2.363  -0.046  0.00  0.00    +0.000 A 
ATOM     11  N   UNL     1      -3.635   1.989   0.178  0.00  0.00    +0.000 NA
ATOM     12  C   UNL     1      -2.122   3.826  -0.272  0.00  0.00    +0.000 C 
ATOM     13  C   UNL     1      -3.862   0.675   0.348  0.00  0.00    +0.000 A 
ATOM     14  C   UNL     1      -2.823  -0.242   0.310  0.00  0.00    +0.000 A 
ATOM     15  N   UNL     1      -5.173   0.208   0.632  0.00  0.00    +0.000 N 
ATOM     16  C   UNL     1      -5.579  -1.119   0.096  0.00  0.00    +0.000 C 
ATOM     17  C   UNL     1      -6.861  -1.477  -0.703  0.00  0.00    +0.000 C 
ATOM     18  N   UNL     1      -8.022  -0.668  -1.169  0.00  0.00    +0.000 N 
ATOM     19  C   UNL     1      -7.564   0.633  -0.606  0.00  0.00    +0.000 C 
ATOM     20  C   UNL     1      -6.308   1.063   0.196  0.00  0.00    +0.000 C 
BRANCH  18  21
ATOM     21  C   UNL     1      -9.169  -1.087  -0.375  0.00  0.00    +0.000 C 
ATOM     22  C   UNL     1     -10.376  -1.528   0.463  0.00  0.00    +0.000 C 
BRANCH  22  23
ATOM     23  O   UNL     1     -11.419  -1.910   1.190  0.00  0.00    +0.000 OA
ATOM     24  H   UNL     1     -12.080  -1.199   1.235  0.00  0.00    +0.000 HD
ENDBRANCH  22  23
ENDBRANCH  18  21
ENDBRANCH   1   8
BRANCH   5  25
ATOM     25  C   UNL     1       4.630  -0.804  -0.298  0.00  0.00    +0.000 C 
ATOM     26  O   UNL     1       4.972  -1.839  -0.865  0.00  0.00    +0.000 OA
ATOM     27  N   UNL     1       5.550   0.103   0.213  0.00  0.00    +0.000 N 
ATOM     28  H   UNL     1       5.266   0.585   1.065  0.00  0.00    +0.000 HD
BRANCH  27  29
ATOM     29  C   UNL     1       6.964  -0.022   0.053  0.00  0.00    +0.000 A 
ATOM     30  C   UNL     1       7.780   0.241   1.173  0.00  0.00    +0.000 A 
ATOM     31  C   UNL     1       9.166   0.110   1.110  0.00  0.00    +0.000 A 
ATOM     32  C   UNL     1       7.164   0.658   2.493  0.00  0.00    +0.000 C 
ATOM     33  C   UNL     1       9.771  -0.267  -0.082  0.00  0.00    +0.000 A 
ATOM     34  C   UNL     1       8.991  -0.464  -1.216  0.00  0.00    +0.000 A 
ATOM     35  C   UNL     1       7.600  -0.335  -1.160  0.00  0.00    +0.000 A 
ATOM     36 CL   UNL     1       6.794  -0.338  -2.689  0.00  0.00    +0.000 Cl
ENDBRANCH  27  29
ENDBRANCH   5  25
TORSDOF 5
