MODEL 1
REMARK VINA RESULT:      -6.2      0.000      0.000
REMARK  Name = Dasatinib.pdbqt.pdb
REMARK  5 active torsions:
REMARK  status: ('A' for Active; 'I' for Inactive)
REMARK    1  A    between atoms: N_1  and  C_3
REMARK    2  A    between atoms: N_13  and  C_16
REMARK    3  A    between atoms: C_17  and  O_18
REMARK    4  A    between atoms: C_22  and  C_25
REMARK    5  A    between atoms: N_27  and  C_29
REMARK                            x       y       z     vdW  Elec       q    Type
REMARK                         _______ _______ _______ _____ _____    ______ ____
ROOT
ATOM      1  N   UNL     1      13.177   2.358  93.737  0.00  0.00    +0.000 N 
ATOM      2  H   UNL     1      13.308   3.151  93.120  0.00  0.00    +0.000 HD
ATOM      3  C   UNL     1      13.230   2.617  95.064  0.00  0.00    +0.000 A 
ATOM      4  S   UNL     1      13.657   4.209  95.589  0.00  0.00    +0.000 S 
ATOM      5  C   UNL     1      13.522   3.715  97.224  0.00  0.00    +0.000 A 
ATOM      6  C   UNL     1      13.177   2.385  97.254  0.00  0.00    +0.000 A 
ATOM      7  N   UNL     1      13.040   1.759  96.041  0.00  0.00    +0.000 NA
ENDROOT
BRANCH   1   8
ATOM      8  C   UNL     1      12.412   1.326  93.152  0.00  0.00    +0.000 A 
ATOM      9  N   UNL     1      11.124   1.500  92.834  0.00  0.00    +0.000 NA
ATOM     10  C   UNL     1      10.468   0.445  92.337  0.00  0.00    +0.000 A 
ATOM     11  N   UNL     1      10.997  -0.765  92.116  0.00  0.00    +0.000 NA
ATOM     12  C   UNL     1       9.029   0.639  91.959  0.00  0.00    +0.000 C 
ATOM     13  C   UNL     1      12.295  -0.929  92.424  0.00  0.00    +0.000 A 
ATOM     14  C   UNL     1      13.040   0.108  92.964  0.00  0.00    +0.000 A 
ATOM     15  N   UNL     1      12.913  -2.197  92.257  0.00  0.00    +0.000 N 
ATOM     16  C   UNL     1      14.346  -2.234  91.860  0.00  0.00    +0.000 C 
ATOM     17  C   UNL     1      15.000  -3.041  90.706  0.00  0.00    +0.000 C 
ATOM     18  N   UNL     1      14.447  -3.974  89.685  0.00  0.00    +0.000 N 
ATOM     19  C   UNL     1      13.028  -3.899  90.131  0.00  0.00    +0.000 C 
ATOM     20  C   UNL     1      12.307  -3.122  91.264  0.00  0.00    +0.000 C 
BRANCH  18  21
ATOM     21  C   UNL     1      14.925  -5.306  90.032  0.00  0.00    +0.000 C 
ATOM     22  C   UNL     1      15.429  -6.708  90.398  0.00  0.00    +0.000 C 
BRANCH  22  23
ATOM     23  O   UNL     1      15.868  -7.920  90.713  0.00  0.00    +0.000 OA
ATOM     24  H   UNL     1      15.888  -8.034  91.677  0.00  0.00    +0.000 HD
ENDBRANCH  22  23
ENDBRANCH  18  21
ENDBRANCH   1   8
BRANCH   5  25
ATOM     25  C   UNL     1      13.745   4.646  98.308  0.00  0.00    +0.000 C 
ATOM     26  O   UNL     1      14.576   4.460  99.194  0.00  0.00    +0.000 OA
ATOM     27  N   UNL     1      12.882   5.734  98.315  0.00  0.00    +0.000 N 
ATOM     28  H   UNL     1      11.953   5.561  97.931  0.00  0.00    +0.000 HD
BRANCH  27  29
ATOM     29  C   UNL     1      12.931   6.783  99.283  0.00  0.00    +0.000 A 
ATOM     30  C   UNL     1      13.613   7.968  98.937  0.00  0.00    +0.000 A 
ATOM     31  C   UNL     1      13.679   9.051  99.811  0.00  0.00    +0.000 A 
ATOM     32  C   UNL     1      14.282   8.104  97.584  0.00  0.00    +0.000 C 
ATOM     33  C   UNL     1      13.082   8.967 101.062  0.00  0.00    +0.000 A 
ATOM     34  C   UNL     1      12.464   7.783 101.450  0.00  0.00    +0.000 A 
ATOM     35  C   UNL     1      12.393   6.693 100.578  0.00  0.00    +0.000 A 
ATOM     36 CL   UNL     1      11.846   5.213 101.285  0.00  0.00    +0.000 Cl
ENDBRANCH  27  29
ENDBRANCH   5  25
TORSDOF 5
ENDMDL
MODEL 2
REMARK VINA RESULT:      -6.1      2.737      3.176
REMARK  Name = Dasatinib.pdbqt.pdb
REMARK  5 active torsions:
REMARK  status: ('A' for Active; 'I' for Inactive)
REMARK    1  A    between atoms: N_1  and  C_3
REMARK    2  A    between atoms: N_13  and  C_16
REMARK    3  A    between atoms: C_17  and  O_18
REMARK    4  A    between atoms: C_22  and  C_25
REMARK    5  A    between atoms: N_27  and  C_29
REMARK                            x       y       z     vdW  Elec       q    Type
REMARK                         _______ _______ _______ _____ _____    ______ ____
ROOT
ATOM      1  N   UNL     1      12.980  -0.232  97.010  0.00  0.00    +0.000 N 
ATOM      2  H   UNL     1      13.241  -0.708  97.865  0.00  0.00    +0.000 HD
ATOM      3  C   UNL     1      13.189   1.105  96.981  0.00  0.00    +0.000 A 
ATOM      4  S   UNL     1      13.728   1.898  98.421  0.00  0.00    +0.000 S 
ATOM      5  C   UNL     1      13.718   3.404  97.604  0.00  0.00    +0.000 A 
ATOM      6  C   UNL     1      13.299   3.200  96.312  0.00  0.00    +0.000 A 
ATOM      7  N   UNL     1      12.973   1.913  95.968  0.00  0.00    +0.000 NA
ENDROOT
BRANCH   1   8
ATOM      8  C   UNL     1      13.019  -1.073  95.877  0.00  0.00    +0.000 A 
ATOM      9  N   UNL     1      11.992  -1.151  95.024  0.00  0.00    +0.000 NA
ATOM     10  C   UNL     1      12.101  -2.019  94.012  0.00  0.00    +0.000 A 
ATOM     11  N   UNL     1      13.159  -2.803  93.772  0.00  0.00    +0.000 NA
ATOM     12  C   UNL     1      10.960  -2.098  93.039  0.00  0.00    +0.000 C 
ATOM     13  C   UNL     1      14.194  -2.709  94.624  0.00  0.00    +0.000 A 
ATOM     14  C   UNL     1      14.151  -1.850  95.711  0.00  0.00    +0.000 A 
ATOM     15  N   UNL     1      15.334  -3.541  94.457  0.00  0.00    +0.000 N 
ATOM     16  C   UNL     1      16.666  -2.991  94.825  0.00  0.00    +0.000 C 
ATOM     17  C   UNL     1      17.967  -2.987  93.978  0.00  0.00    +0.000 C 
ATOM     18  N   UNL     1      18.287  -3.491  92.613  0.00  0.00    +0.000 N 
ATOM     19  C   UNL     1      16.932  -4.026  92.303  0.00  0.00    +0.000 C 
ATOM     20  C   UNL     1      15.597  -4.066  93.092  0.00  0.00    +0.000 C 
BRANCH  18  21
ATOM     21  C   UNL     1      19.162  -4.643  92.787  0.00  0.00    +0.000 C 
ATOM     22  C   UNL     1      20.081  -5.857  92.971  0.00  0.00    +0.000 C 
BRANCH  22  23
ATOM     23  O   UNL     1      20.875  -6.909  93.130  0.00  0.00    +0.000 OA
ATOM     24  H   UNL     1      20.355  -7.692  93.378  0.00  0.00    +0.000 HD
ENDBRANCH  22  23
ENDBRANCH  18  21
ENDBRANCH   1   8
BRANCH   5  25
ATOM     25  C   UNL     1      14.123   4.621  98.273  0.00  0.00    +0.000 C 
ATOM     26  O   UNL     1      15.111   4.691  99.000  0.00  0.00    +0.000 OA
ATOM     27  N   UNL     1      13.254   5.689  98.093  0.00  0.00    +0.000 N 
ATOM     28  H   UNL     1      12.273   5.442  97.965  0.00  0.00    +0.000 HD
BRANCH  27  29
ATOM     29  C   UNL     1      13.464   6.988  98.649  0.00  0.00    +0.000 A 
ATOM     30  C   UNL     1      14.196   7.922  97.885  0.00  0.00    +0.000 A 
ATOM     31  C   UNL     1      14.417   9.220  98.340  0.00  0.00    +0.000 A 
ATOM     32  C   UNL     1      14.750   7.539  96.527  0.00  0.00    +0.000 C 
ATOM     33  C   UNL     1      13.929   9.610  99.581  0.00  0.00    +0.000 A 
ATOM     34  C   UNL     1      13.265   8.686 100.379  0.00  0.00    +0.000 A 
ATOM     35  C   UNL     1      13.039   7.381  99.929  0.00  0.00    +0.000 A 
ATOM     36 CL   UNL     1      12.452   6.277 101.122  0.00  0.00    +0.000 Cl
ENDBRANCH  27  29
ENDBRANCH   5  25
TORSDOF 5
ENDMDL
MODEL 3
REMARK VINA RESULT:      -6.0     41.830     44.633
REMARK  Name = Dasatinib.pdbqt.pdb
REMARK  5 active torsions:
REMARK  status: ('A' for Active; 'I' for Inactive)
REMARK    1  A    between atoms: N_1  and  C_3
REMARK    2  A    between atoms: N_13  and  C_16
REMARK    3  A    between atoms: C_17  and  O_18
REMARK    4  A    between atoms: C_22  and  C_25
REMARK    5  A    between atoms: N_27  and  C_29
REMARK                            x       y       z     vdW  Elec       q    Type
REMARK                         _______ _______ _______ _____ _____    ______ ____
ROOT
ATOM      1  N   UNL     1      49.824  20.825  82.900  0.00  0.00    +0.000 N 
ATOM      2  H   UNL     1      50.385  20.786  83.743  0.00  0.00    +0.000 HD
ATOM      3  C   UNL     1      50.399  20.336  81.776  0.00  0.00    +0.000 A 
ATOM      4  S   UNL     1      52.054  19.839  81.831  0.00  0.00    +0.000 S 
ATOM      5  C   UNL     1      51.994  19.422  80.170  0.00  0.00    +0.000 A 
ATOM      6  C   UNL     1      50.734  19.699  79.694  0.00  0.00    +0.000 A 
ATOM      7  N   UNL     1      49.845  20.239  80.588  0.00  0.00    +0.000 NA
ENDROOT
BRANCH   1   8
ATOM      8  C   UNL     1      48.437  20.813  83.160  0.00  0.00    +0.000 A 
ATOM      9  N   UNL     1      47.764  19.669  83.335  0.00  0.00    +0.000 NA
ATOM     10  C   UNL     1      46.442  19.759  83.520  0.00  0.00    +0.000 A 
ATOM     11  N   UNL     1      45.739  20.896  83.561  0.00  0.00    +0.000 NA
ATOM     12  C   UNL     1      45.685  18.481  83.737  0.00  0.00    +0.000 C 
ATOM     13  C   UNL     1      46.422  22.043  83.400  0.00  0.00    +0.000 A 
ATOM     14  C   UNL     1      47.791  22.036  83.182  0.00  0.00    +0.000 A 
ATOM     15  N   UNL     1      45.737  23.287  83.389  0.00  0.00    +0.000 N 
ATOM     16  C   UNL     1      46.429  24.476  83.955  0.00  0.00    +0.000 C 
ATOM     17  C   UNL     1      45.889  25.491  84.999  0.00  0.00    +0.000 C 
ATOM     18  N   UNL     1      44.597  25.598  85.731  0.00  0.00    +0.000 N 
ATOM     19  C   UNL     1      43.955  24.397  85.128  0.00  0.00    +0.000 C 
ATOM     20  C   UNL     1      44.427  23.346  84.089  0.00  0.00    +0.000 C 
BRANCH  18  21
ATOM     21  C   UNL     1      43.904  26.759  85.190  0.00  0.00    +0.000 C 
ATOM     22  C   UNL     1      43.177  27.983  84.618  0.00  0.00    +0.000 C 
BRANCH  22  23
ATOM     23  O   UNL     1      42.549  29.042  84.121  0.00  0.00    +0.000 OA
ATOM     24  H   UNL     1      41.787  29.276  84.677  0.00  0.00    +0.000 HD
ENDBRANCH  22  23
ENDBRANCH  18  21
ENDBRANCH   1   8
BRANCH   5  25
ATOM     25  C   UNL     1      53.144  18.863  79.497  0.00  0.00    +0.000 C 
ATOM     26  O   UNL     1      54.295  19.237  79.707  0.00  0.00    +0.000 OA
ATOM     27  N   UNL     1      52.835  17.919  78.525  0.00  0.00    +0.000 N 
ATOM     28  H   UNL     1      51.941  18.050  78.052  0.00  0.00    +0.000 HD
BRANCH  27  29
ATOM     29  C   UNL     1      53.813  17.228  77.747  0.00  0.00    +0.000 A 
ATOM     30  C   UNL     1      54.041  17.672  76.428  0.00  0.00    +0.000 A 
ATOM     31  C   UNL     1      55.001  17.074  75.614  0.00  0.00    +0.000 A 
ATOM     32  C   UNL     1      53.254  18.836  75.861  0.00  0.00    +0.000 C 
ATOM     33  C   UNL     1      55.743  16.002  76.094  0.00  0.00    +0.000 A 
ATOM     34  C   UNL     1      55.486  15.504  77.367  0.00  0.00    +0.000 A 
ATOM     35  C   UNL     1      54.525  16.100  78.189  0.00  0.00    +0.000 A 
ATOM     36 CL   UNL     1      54.124  15.217  79.620  0.00  0.00    +0.000 Cl
ENDBRANCH  27  29
ENDBRANCH   5  25
TORSDOF 5
ENDMDL
MODEL 4
REMARK VINA RESULT:      -5.8     42.024     44.905
REMARK  Name = Dasatinib.pdbqt.pdb
REMARK  5 active torsions:
REMARK  status: ('A' for Active; 'I' for Inactive)
REMARK    1  A    between atoms: N_1  and  C_3
REMARK    2  A    between atoms: N_13  and  C_16
REMARK    3  A    between atoms: C_17  and  O_18
REMARK    4  A    between atoms: C_22  and  C_25
REMARK    5  A    between atoms: N_27  and  C_29
REMARK                            x       y       z     vdW  Elec       q    Type
REMARK                         _______ _______ _______ _____ _____    ______ ____
ROOT
ATOM      1  N   UNL     1      50.294  19.420  82.919  0.00  0.00    +0.000 N 
ATOM      2  H   UNL     1      49.694  18.633  83.131  0.00  0.00    +0.000 HD
ATOM      3  C   UNL     1      50.662  19.561  81.624  0.00  0.00    +0.000 A 
ATOM      4  S   UNL     1      50.217  18.334  80.490  0.00  0.00    +0.000 S 
ATOM      5  C   UNL     1      51.008  19.193  79.237  0.00  0.00    +0.000 A 
ATOM      6  C   UNL     1      51.559  20.335  79.767  0.00  0.00    +0.000 A 
ATOM      7  N   UNL     1      51.390  20.529  81.114  0.00  0.00    +0.000 NA
ENDROOT
BRANCH   1   8
ATOM      8  C   UNL     1      50.143  20.489  83.830  0.00  0.00    +0.000 A 
ATOM      9  N   UNL     1      51.086  20.781  84.734  0.00  0.00    +0.000 NA
ATOM     10  C   UNL     1      50.825  21.775  85.590  0.00  0.00    +0.000 A 
ATOM     11  N   UNL     1      49.710  22.513  85.607  0.00  0.00    +0.000 NA
ATOM     12  C   UNL     1      51.886  22.120  86.594  0.00  0.00    +0.000 C 
ATOM     13  C   UNL     1      48.773  22.225  84.687  0.00  0.00    +0.000 A 
ATOM     14  C   UNL     1      48.956  21.195  83.777  0.00  0.00    +0.000 A 
ATOM     15  N   UNL     1      47.545  22.938  84.671  0.00  0.00    +0.000 N 
ATOM     16  C   UNL     1      46.895  23.192  83.357  0.00  0.00    +0.000 C 
ATOM     17  C   UNL     1      46.364  24.539  82.796  0.00  0.00    +0.000 C 
ATOM     18  N   UNL     1      46.338  25.924  83.345  0.00  0.00    +0.000 N 
ATOM     19  C   UNL     1      46.991  25.607  84.646  0.00  0.00    +0.000 C 
ATOM     20  C   UNL     1      47.542  24.299  85.270  0.00  0.00    +0.000 C 
BRANCH  18  21
ATOM     21  C   UNL     1      44.944  26.230  83.639  0.00  0.00    +0.000 C 
ATOM     22  C   UNL     1      43.478  26.553  83.951  0.00  0.00    +0.000 C 
BRANCH  22  23
ATOM     23  O   UNL     1      42.209  26.835  84.222  0.00  0.00    +0.000 OA
ATOM     24  H   UNL     1      41.663  26.033  84.162  0.00  0.00    +0.000 HD
ENDBRANCH  22  23
ENDBRANCH  18  21
ENDBRANCH   1   8
BRANCH   5  25
ATOM     25  C   UNL     1      51.012  18.700  77.878  0.00  0.00    +0.000 C 
ATOM     26  O   UNL     1      50.550  19.333  76.931  0.00  0.00    +0.000 OA
ATOM     27  N   UNL     1      51.506  17.409  77.739  0.00  0.00    +0.000 N 
ATOM     28  H   UNL     1      51.360  16.793  78.538  0.00  0.00    +0.000 HD
BRANCH  27  29
ATOM     29  C   UNL     1      51.615  16.729  76.487  0.00  0.00    +0.000 A 
ATOM     30  C   UNL     1      50.674  15.718  76.201  0.00  0.00    +0.000 A 
ATOM     31  C   UNL     1      50.692  15.030  74.989  0.00  0.00    +0.000 A 
ATOM     32  C   UNL     1      49.597  15.363  77.206  0.00  0.00    +0.000 C 
ATOM     33  C   UNL     1      51.664  15.322  74.042  0.00  0.00    +0.000 A 
ATOM     34  C   UNL     1      52.643  16.267  74.332  0.00  0.00    +0.000 A 
ATOM     35  C   UNL     1      52.632  16.961  75.545  0.00  0.00    +0.000 A 
ATOM     36 CL   UNL     1      54.049  17.893  75.878  0.00  0.00    +0.000 Cl
ENDBRANCH  27  29
ENDBRANCH   5  25
TORSDOF 5
ENDMDL
MODEL 5
REMARK VINA RESULT:      -5.8      7.840     14.961
REMARK  Name = Dasatinib.pdbqt.pdb
REMARK  5 active torsions:
REMARK  status: ('A' for Active; 'I' for Inactive)
REMARK    1  A    between atoms: N_1  and  C_3
REMARK    2  A    between atoms: N_13  and  C_16
REMARK    3  A    between atoms: C_17  and  O_18
REMARK    4  A    between atoms: C_22  and  C_25
REMARK    5  A    between atoms: N_27  and  C_29
REMARK                            x       y       z     vdW  Elec       q    Type
REMARK                         _______ _______ _______ _____ _____    ______ ____
ROOT
ATOM      1  N   UNL     1       9.326  11.276 101.484  0.00  0.00    +0.000 N 
ATOM      2  H   UNL     1       8.513  10.673 101.507  0.00  0.00    +0.000 HD
ATOM      3  C   UNL     1      10.492  10.695 101.117  0.00  0.00    +0.000 A 
ATOM      4  S   UNL     1      10.532   8.983 100.874  0.00  0.00    +0.000 S 
ATOM      5  C   UNL     1      12.202   9.067 100.497  0.00  0.00    +0.000 A 
ATOM      6  C   UNL     1      12.608  10.376 100.594  0.00  0.00    +0.000 A 
ATOM      7  N   UNL     1      11.655  11.288 100.970  0.00  0.00    +0.000 NA
ENDROOT
BRANCH   1   8
ATOM      8  C   UNL     1       9.001  12.631 101.256  0.00  0.00    +0.000 A 
ATOM      9  N   UNL     1       9.673  13.625 101.849  0.00  0.00    +0.000 NA
ATOM     10  C   UNL     1       9.254  14.873 101.614  0.00  0.00    +0.000 A 
ATOM     11  N   UNL     1       8.230  15.212 100.823  0.00  0.00    +0.000 NA
ATOM     12  C   UNL     1      10.016  15.993 102.261  0.00  0.00    +0.000 C 
ATOM     13  C   UNL     1       7.568  14.211 100.218  0.00  0.00    +0.000 A 
ATOM     14  C   UNL     1       7.926  12.888 100.425  0.00  0.00    +0.000 A 
ATOM     15  N   UNL     1       6.444  14.492  99.396  0.00  0.00    +0.000 N 
ATOM     16  C   UNL     1       6.203  13.625  98.212  0.00  0.00    +0.000 C 
ATOM     17  C   UNL     1       5.942  14.060  96.745  0.00  0.00    +0.000 C 
ATOM     18  N   UNL     1       5.858  15.392  96.084  0.00  0.00    +0.000 N 
ATOM     19  C   UNL     1       6.101  16.208  97.306  0.00  0.00    +0.000 C 
ATOM     20  C   UNL     1       6.367  15.847  98.791  0.00  0.00    +0.000 C 
BRANCH  18  21
ATOM     21  C   UNL     1       4.461  15.590  95.719  0.00  0.00    +0.000 C 
ATOM     22  C   UNL     1       2.991  15.799  95.333  0.00  0.00    +0.000 C 
BRANCH  22  23
ATOM     23  O   UNL     1       1.720  15.981  94.997  0.00  0.00    +0.000 OA
ATOM     24  H   UNL     1       1.643  16.677  94.323  0.00  0.00    +0.000 HD
ENDBRANCH  22  23
ENDBRANCH  18  21
ENDBRANCH   1   8
BRANCH   5  25
ATOM     25  C   UNL     1      12.948   7.883 100.136  0.00  0.00    +0.000 C 
ATOM     26  O   UNL     1      14.155   7.762 100.332  0.00  0.00    +0.000 OA
ATOM     27  N   UNL     1      12.203   6.918  99.469  0.00  0.00    +0.000 N 
ATOM     28  H   UNL     1      11.437   7.271  98.897  0.00  0.00    +0.000 HD
BRANCH  27  29
ATOM     29  C   UNL     1      12.732   5.665  99.032  0.00  0.00    +0.000 A 
ATOM     30  C   UNL     1      12.554   4.546  99.872  0.00  0.00    +0.000 A 
ATOM     31  C   UNL     1      13.010   3.281  99.505  0.00  0.00    +0.000 A 
ATOM     32  C   UNL     1      11.837   4.686 101.199  0.00  0.00    +0.000 C 
ATOM     33  C   UNL     1      13.676   3.110  98.298  0.00  0.00    +0.000 A 
ATOM     34  C   UNL     1      13.923   4.212  97.487  0.00  0.00    +0.000 A 
ATOM     35  C   UNL     1      13.467   5.484  97.849  0.00  0.00    +0.000 A 
ATOM     36 CL   UNL     1      14.078   6.788  96.894  0.00  0.00    +0.000 Cl
ENDBRANCH  27  29
ENDBRANCH   5  25
TORSDOF 5
ENDMDL
MODEL 6
REMARK VINA RESULT:      -5.7     38.241     41.238
REMARK  Name = Dasatinib.pdbqt.pdb
REMARK  5 active torsions:
REMARK  status: ('A' for Active; 'I' for Inactive)
REMARK    1  A    between atoms: N_1  and  C_3
REMARK    2  A    between atoms: N_13  and  C_16
REMARK    3  A    between atoms: C_17  and  O_18
REMARK    4  A    between atoms: C_22  and  C_25
REMARK    5  A    between atoms: N_27  and  C_29
REMARK                            x       y       z     vdW  Elec       q    Type
REMARK                         _______ _______ _______ _____ _____    ______ ____
ROOT
ATOM      1  N   UNL     1      45.593  26.819  85.037  0.00  0.00    +0.000 N 
ATOM      2  H   UNL     1      45.929  27.279  84.199  0.00  0.00    +0.000 HD
ATOM      3  C   UNL     1      44.464  26.085  84.906  0.00  0.00    +0.000 A 
ATOM      4  S   UNL     1      43.620  26.111  83.396  0.00  0.00    +0.000 S 
ATOM      5  C   UNL     1      42.433  25.051  84.031  0.00  0.00    +0.000 A 
ATOM      6  C   UNL     1      42.754  24.765  85.336  0.00  0.00    +0.000 A 
ATOM      7  N   UNL     1      43.880  25.367  85.839  0.00  0.00    +0.000 NA
ENDROOT
BRANCH   1   8
ATOM      8  C   UNL     1      46.622  26.548  85.966  0.00  0.00    +0.000 A 
ATOM      9  N   UNL     1      46.638  27.109  87.180  0.00  0.00    +0.000 NA
ATOM     10  C   UNL     1      47.684  26.834  87.967  0.00  0.00    +0.000 A 
ATOM     11  N   UNL     1      48.706  26.031  87.649  0.00  0.00    +0.000 NA
ATOM     12  C   UNL     1      47.699  27.445  89.338  0.00  0.00    +0.000 C 
ATOM     13  C   UNL     1      48.676  25.458  86.434  0.00  0.00    +0.000 A 
ATOM     14  C   UNL     1      47.638  25.708  85.549  0.00  0.00    +0.000 A 
ATOM     15  N   UNL     1      49.747  24.627  86.010  0.00  0.00    +0.000 N 
ATOM     16  C   UNL     1      49.435  23.471  85.127  0.00  0.00    +0.000 C 
ATOM     17  C   UNL     1      49.868  21.990  85.300  0.00  0.00    +0.000 C 
ATOM     18  N   UNL     1      50.677  21.287  86.335  0.00  0.00    +0.000 N 
ATOM     19  C   UNL     1      50.959  22.483  87.177  0.00  0.00    +0.000 C 
ATOM     20  C   UNL     1      50.564  23.979  87.069  0.00  0.00    +0.000 C 
BRANCH  18  21
ATOM     21  C   UNL     1      51.934  20.915  85.702  0.00  0.00    +0.000 C 
ATOM     22  C   UNL     1      53.260  20.525  85.035  0.00  0.00    +0.000 C 
BRANCH  22  23
ATOM     23  O   UNL     1      54.408  20.189  84.459  0.00  0.00    +0.000 OA
ATOM     24  H   UNL     1      55.086  20.013  85.132  0.00  0.00    +0.000 HD
ENDBRANCH  22  23
ENDBRANCH  18  21
ENDBRANCH   1   8
BRANCH   5  25
ATOM     25  C   UNL     1      41.329  24.592  83.219  0.00  0.00    +0.000 C 
ATOM     26  O   UNL     1      41.038  25.090  82.135  0.00  0.00    +0.000 OA
ATOM     27  N   UNL     1      40.566  23.590  83.806  0.00  0.00    +0.000 N 
ATOM     28  H   UNL     1      40.517  23.612  84.823  0.00  0.00    +0.000 HD
BRANCH  27  29
ATOM     29  C   UNL     1      39.438  22.978  83.178  0.00  0.00    +0.000 A 
ATOM     30  C   UNL     1      38.153  23.334  83.638  0.00  0.00    +0.000 A 
ATOM     31  C   UNL     1      37.001  22.808  83.058  0.00  0.00    +0.000 A 
ATOM     32  C   UNL     1      37.990  24.322  84.775  0.00  0.00    +0.000 C 
ATOM     33  C   UNL     1      37.106  21.896  82.016  0.00  0.00    +0.000 A 
ATOM     34  C   UNL     1      38.364  21.479  81.592  0.00  0.00    +0.000 A 
ATOM     35  C   UNL     1      39.524  22.003  82.170  0.00  0.00    +0.000 A 
ATOM     36 CL   UNL     1      40.993  21.199  81.740  0.00  0.00    +0.000 Cl
ENDBRANCH  27  29
ENDBRANCH   5  25
TORSDOF 5
ENDMDL
MODEL 7
REMARK VINA RESULT:      -5.5      3.482      4.618
REMARK  Name = Dasatinib.pdbqt.pdb
REMARK  5 active torsions:
REMARK  status: ('A' for Active; 'I' for Inactive)
REMARK    1  A    between atoms: N_1  and  C_3
REMARK    2  A    between atoms: N_13  and  C_16
REMARK    3  A    between atoms: C_17  and  O_18
REMARK    4  A    between atoms: C_22  and  C_25
REMARK    5  A    between atoms: N_27  and  C_29
REMARK                            x       y       z     vdW  Elec       q    Type
REMARK                         _______ _______ _______ _____ _____    ______ ____
ROOT
ATOM      1  N   UNL     1      13.734   0.409  98.036  0.00  0.00    +0.000 N 
ATOM      2  H   UNL     1      13.989   0.014  98.934  0.00  0.00    +0.000 HD
ATOM      3  C   UNL     1      13.774   1.758  97.942  0.00  0.00    +0.000 A 
ATOM      4  S   UNL     1      14.099   2.687  99.365  0.00  0.00    +0.000 S 
ATOM      5  C   UNL     1      13.959   4.136  98.461  0.00  0.00    +0.000 A 
ATOM      6  C   UNL     1      13.667   3.814  97.157  0.00  0.00    +0.000 A 
ATOM      7  N   UNL     1      13.534   2.479  96.870  0.00  0.00    +0.000 NA
ENDROOT
BRANCH   1   8
ATOM      8  C   UNL     1      13.964  -0.477  96.961  0.00  0.00    +0.000 A 
ATOM      9  N   UNL     1      15.198  -0.877  96.632  0.00  0.00    +0.000 NA
ATOM     10  C   UNL     1      15.319  -1.671  95.562  0.00  0.00    +0.000 A 
ATOM     11  N   UNL     1      14.308  -2.112  94.804  0.00  0.00    +0.000 NA
ATOM     12  C   UNL     1      16.698  -2.139  95.199  0.00  0.00    +0.000 C 
ATOM     13  C   UNL     1      13.070  -1.719  95.149  0.00  0.00    +0.000 A 
ATOM     14  C   UNL     1      12.860  -0.878  96.231  0.00  0.00    +0.000 A 
ATOM     15  N   UNL     1      11.952  -2.113  94.366  0.00  0.00    +0.000 N 
ATOM     16  C   UNL     1      10.658  -2.357  95.058  0.00  0.00    +0.000 C 
ATOM     17  C   UNL     1       9.728  -3.594  94.939  0.00  0.00    +0.000 C 
ATOM     18  N   UNL     1       9.818  -4.856  94.154  0.00  0.00    +0.000 N 
ATOM     19  C   UNL     1      11.115  -4.554  93.488  0.00  0.00    +0.000 C 
ATOM     20  C   UNL     1      12.093  -3.351  93.556  0.00  0.00    +0.000 C 
BRANCH  18  21
ATOM     21  C   UNL     1       8.791  -4.781  93.123  0.00  0.00    +0.000 C 
ATOM     22  C   UNL     1       7.709  -4.701  92.039  0.00  0.00    +0.000 C 
BRANCH  22  23
ATOM     23  O   UNL     1       6.771  -4.629  91.101  0.00  0.00    +0.000 OA
ATOM     24  H   UNL     1       6.089  -3.984  91.352  0.00  0.00    +0.000 HD
ENDBRANCH  22  23
ENDBRANCH  18  21
ENDBRANCH   1   8
BRANCH   5  25
ATOM     25  C   UNL     1      14.156   5.426  99.082  0.00  0.00    +0.000 C 
ATOM     26  O   UNL     1      15.156   5.713  99.736  0.00  0.00    +0.000 OA
ATOM     27  N   UNL     1      13.080   6.295  98.949  0.00  0.00    +0.000 N 
ATOM     28  H   UNL     1      12.163   5.854  98.894  0.00  0.00    +0.000 HD
BRANCH  27  29
ATOM     29  C   UNL     1      13.062   7.625  99.469  0.00  0.00    +0.000 A 
ATOM     30  C   UNL     1      12.166   7.910 100.521  0.00  0.00    +0.000 A 
ATOM     31  C   UNL     1      12.109   9.173 101.107  0.00  0.00    +0.000 A 
ATOM     32  C   UNL     1      11.246   6.833 101.060  0.00  0.00    +0.000 C 
ATOM     33  C   UNL     1      12.933  10.189 100.640  0.00  0.00    +0.000 A 
ATOM     34  C   UNL     1      13.774   9.949  99.559  0.00  0.00    +0.000 A 
ATOM     35  C   UNL     1      13.837   8.684  98.967  0.00  0.00    +0.000 A 
ATOM     36 CL   UNL     1      14.710   8.606  97.478  0.00  0.00    +0.000 Cl
ENDBRANCH  27  29
ENDBRANCH   5  25
TORSDOF 5
ENDMDL
MODEL 8
REMARK VINA RESULT:      -5.5     48.183     50.492
REMARK  Name = Dasatinib.pdbqt.pdb
REMARK  5 active torsions:
REMARK  status: ('A' for Active; 'I' for Inactive)
REMARK    1  A    between atoms: N_1  and  C_3
REMARK    2  A    between atoms: N_13  and  C_16
REMARK    3  A    between atoms: C_17  and  O_18
REMARK    4  A    between atoms: C_22  and  C_25
REMARK    5  A    between atoms: N_27  and  C_29
REMARK                            x       y       z     vdW  Elec       q    Type
REMARK                         _______ _______ _______ _____ _____    ______ ____
ROOT
ATOM      1  N   UNL     1      54.391  16.370  75.799  0.00  0.00    +0.000 N 
ATOM      2  H   UNL     1      53.722  15.674  75.491  0.00  0.00    +0.000 HD
ATOM      3  C   UNL     1      55.646  16.254  75.304  0.00  0.00    +0.000 A 
ATOM      4  S   UNL     1      56.038  14.878  74.333  0.00  0.00    +0.000 S 
ATOM      5  C   UNL     1      57.646  15.445  74.163  0.00  0.00    +0.000 A 
ATOM      6  C   UNL     1      57.771  16.624  74.859  0.00  0.00    +0.000 A 
ATOM      7  N   UNL     1      56.656  17.065  75.525  0.00  0.00    +0.000 NA
ENDROOT
BRANCH   1   8
ATOM      8  C   UNL     1      53.786  17.590  76.169  0.00  0.00    +0.000 A 
ATOM      9  N   UNL     1      53.374  18.476  75.254  0.00  0.00    +0.000 NA
ATOM     10  C   UNL     1      52.864  19.628  75.705  0.00  0.00    +0.000 A 
ATOM     11  N   UNL     1      52.717  19.962  76.992  0.00  0.00    +0.000 NA
ATOM     12  C   UNL     1      52.382  20.618  74.684  0.00  0.00    +0.000 C 
ATOM     13  C   UNL     1      53.118  19.062  77.906  0.00  0.00    +0.000 A 
ATOM     14  C   UNL     1      53.677  17.852  77.522  0.00  0.00    +0.000 A 
ATOM     15  N   UNL     1      53.032  19.364  79.291  0.00  0.00    +0.000 N 
ATOM     16  C   UNL     1      52.737  18.253  80.236  0.00  0.00    +0.000 C 
ATOM     17  C   UNL     1      51.656  18.206  81.349  0.00  0.00    +0.000 C 
ATOM     18  N   UNL     1      50.626  19.182  81.802  0.00  0.00    +0.000 N 
ATOM     19  C   UNL     1      50.970  20.260  80.833  0.00  0.00    +0.000 C 
ATOM     20  C   UNL     1      52.027  20.378  79.704  0.00  0.00    +0.000 C 
BRANCH  18  21
ATOM     21  C   UNL     1      51.045  19.652  83.116  0.00  0.00    +0.000 C 
ATOM     22  C   UNL     1      51.486  20.149  84.499  0.00  0.00    +0.000 C 
BRANCH  22  23
ATOM     23  O   UNL     1      51.868  20.581  85.694  0.00  0.00    +0.000 OA
ATOM     24  H   UNL     1      51.118  20.580  86.311  0.00  0.00    +0.000 HD
ENDBRANCH  22  23
ENDBRANCH  18  21
ENDBRANCH   1   8
BRANCH   5  25
ATOM     25  C   UNL     1      58.616  14.720  73.374  0.00  0.00    +0.000 C 
ATOM     26  O   UNL     1      58.642  13.494  73.301  0.00  0.00    +0.000 OA
ATOM     27  N   UNL     1      59.574  15.522  72.766  0.00  0.00    +0.000 N 
ATOM     28  H   UNL     1      59.813  16.377  73.266  0.00  0.00    +0.000 HD
BRANCH  27  29
ATOM     29  C   UNL     1      60.618  15.020  71.930  0.00  0.00    +0.000 A 
ATOM     30  C   UNL     1      61.897  14.855  72.500  0.00  0.00    +0.000 A 
ATOM     31  C   UNL     1      62.962  14.340  71.762  0.00  0.00    +0.000 A 
ATOM     32  C   UNL     1      62.147  15.218  73.950  0.00  0.00    +0.000 C 
ATOM     33  C   UNL     1      62.776  13.998  70.429  0.00  0.00    +0.000 A 
ATOM     34  C   UNL     1      61.541  14.217  69.829  0.00  0.00    +0.000 A 
ATOM     35  C   UNL     1      60.469  14.732  70.563  0.00  0.00    +0.000 A 
ATOM     36 CL   UNL     1      59.092  15.205  69.631  0.00  0.00    +0.000 Cl
ENDBRANCH  27  29
ENDBRANCH   5  25
TORSDOF 5
ENDMDL
MODEL 9
REMARK VINA RESULT:      -5.4     14.510     18.319
REMARK  Name = Dasatinib.pdbqt.pdb
REMARK  5 active torsions:
REMARK  status: ('A' for Active; 'I' for Inactive)
REMARK    1  A    between atoms: N_1  and  C_3
REMARK    2  A    between atoms: N_13  and  C_16
REMARK    3  A    between atoms: C_17  and  O_18
REMARK    4  A    between atoms: C_22  and  C_25
REMARK    5  A    between atoms: N_27  and  C_29
REMARK                            x       y       z     vdW  Elec       q    Type
REMARK                         _______ _______ _______ _____ _____    ______ ____
ROOT
ATOM      1  N   UNL     1       2.104  10.167  85.387  0.00  0.00    +0.000 N 
ATOM      2  H   UNL     1       1.594   9.683  84.658  0.00  0.00    +0.000 HD
ATOM      3  C   UNL     1       3.069   9.456  86.014  0.00  0.00    +0.000 A 
ATOM      4  S   UNL     1       3.250   7.777  85.639  0.00  0.00    +0.000 S 
ATOM      5  C   UNL     1       4.534   7.654  86.765  0.00  0.00    +0.000 A 
ATOM      6  C   UNL     1       4.725   8.883  87.350  0.00  0.00    +0.000 A 
ATOM      7  N   UNL     1       3.884   9.890  86.950  0.00  0.00    +0.000 NA
ENDROOT
BRANCH   1   8
ATOM      8  C   UNL     1       2.130  11.567  85.206  0.00  0.00    +0.000 A 
ATOM      9  N   UNL     1       1.327  12.381  85.901  0.00  0.00    +0.000 NA
ATOM     10  C   UNL     1       1.386  13.687  85.617  0.00  0.00    +0.000 A 
ATOM     11  N   UNL     1       2.192  14.249  84.709  0.00  0.00    +0.000 NA
ATOM     12  C   UNL     1       0.502  14.608  86.406  0.00  0.00    +0.000 C 
ATOM     13  C   UNL     1       3.007  13.428  84.025  0.00  0.00    +0.000 A 
ATOM     14  C   UNL     1       2.993  12.059  84.243  0.00  0.00    +0.000 A 
ATOM     15  N   UNL     1       3.861  13.948  83.015  0.00  0.00    +0.000 N 
ATOM     16  C   UNL     1       5.188  13.306  82.817  0.00  0.00    +0.000 C 
ATOM     17  C   UNL     1       6.580  13.990  82.740  0.00  0.00    +0.000 C 
ATOM     18  N   UNL     1       7.016  15.411  82.838  0.00  0.00    +0.000 N 
ATOM     19  C   UNL     1       5.659  15.996  83.030  0.00  0.00    +0.000 C 
ATOM     20  C   UNL     1       4.237  15.382  83.117  0.00  0.00    +0.000 C 
BRANCH  18  21
ATOM     21  C   UNL     1       7.457  15.806  81.507  0.00  0.00    +0.000 C 
ATOM     22  C   UNL     1       7.922  16.220  80.105  0.00  0.00    +0.000 C 
BRANCH  22  23
ATOM     23  O   UNL     1       8.327  16.577  78.892  0.00  0.00    +0.000 OA
ATOM     24  H   UNL     1       7.972  17.451  78.660  0.00  0.00    +0.000 HD
ENDBRANCH  22  23
ENDBRANCH  18  21
ENDBRANCH   1   8
BRANCH   5  25
ATOM     25  C   UNL     1       5.236   6.406  86.967  0.00  0.00    +0.000 C 
ATOM     26  O   UNL     1       5.738   6.083  88.041  0.00  0.00    +0.000 OA
ATOM     27  N   UNL     1       5.371   5.634  85.820  0.00  0.00    +0.000 N 
ATOM     28  H   UNL     1       5.429   6.153  84.944  0.00  0.00    +0.000 HD
BRANCH  27  29
ATOM     29  C   UNL     1       6.015   4.359  85.790  0.00  0.00    +0.000 A 
ATOM     30  C   UNL     1       7.290   4.278  85.192  0.00  0.00    +0.000 A 
ATOM     31  C   UNL     1       7.999   3.079  85.151  0.00  0.00    +0.000 A 
ATOM     32  C   UNL     1       7.936   5.508  84.589  0.00  0.00    +0.000 C 
ATOM     33  C   UNL     1       7.441   1.927  85.689  0.00  0.00    +0.000 A 
ATOM     34  C   UNL     1       6.157   1.970  86.222  0.00  0.00    +0.000 A 
ATOM     35  C   UNL     1       5.440   3.169  86.267  0.00  0.00    +0.000 A 
ATOM     36 CL   UNL     1       3.773   3.019  86.698  0.00  0.00    +0.000 Cl
ENDBRANCH  27  29
ENDBRANCH   5  25
TORSDOF 5
ENDMDL
