MODEL 1
REMARK VINA RESULT:      -6.4      0.000      0.000
REMARK  Name = Decitabine.pdbqt.pdb
REMARK  4 active torsions:
REMARK  status: ('A' for Active; 'I' for Inactive)
REMARK    1  A    between atoms: N_2  and  C1*_8
REMARK    2  A    between atoms: C4*_10  and  C5*_13
REMARK    3  A    between atoms: C3*_11  and  O3*_16
REMARK    4  A    between atoms: C5*_13  and  O5*_14
REMARK                            x       y       z     vdW  Elec       q    Type
REMARK                         _______ _______ _______ _____ _____    ______ ____
ROOT
ATOM      1  O   UNL     1      56.117  36.579  80.873  0.00  0.00    +0.000 OA
ATOM      2  N   UNL     1      57.523  35.624  79.301  0.00  0.00    +0.000 N 
ATOM      3  N   UNL     1      57.157  34.607  81.381  0.00  0.00    +0.000 NA
ATOM      4  N   UNL     1      58.624  33.620  79.787  0.00  0.00    +0.000 NA
ATOM      5  C   UNL     1      56.876  35.677  80.531  0.00  0.00    +0.000 A 
ATOM      6  C   UNL     1      58.303  34.555  79.167  0.00  0.00    +0.000 A 
ATOM      7  C   UNL     1      57.967  33.651  81.005  0.00  0.00    +0.000 A 
ATOM      8  N   UNL     1      58.204  32.630  81.867  0.00  0.00    +0.000 N 
ATOM      9  H   UNL     1      59.095  32.168  81.734  0.00  0.00    +0.000 HD
ATOM     10  H   UNL     1      57.982  32.857  82.829  0.00  0.00    +0.000 HD
ENDROOT
BRANCH   2  11
ATOM     11  C1* UNL     1      57.422  36.534  78.297  0.00  0.00    +0.000 A 
ATOM     12  O4* UNL     1      56.720  36.264  77.117  0.00  0.00    +0.000 OA
ATOM     13  C4* UNL     1      56.813  37.410  76.317  0.00  0.00    +0.000 A 
ATOM     14  C3* UNL     1      57.590  38.407  77.009  0.00  0.00    +0.000 A 
ATOM     15  C2* UNL     1      57.946  37.841  78.245  0.00  0.00    +0.000 A 
BRANCH  14  16
ATOM     16  O3* UNL     1      57.363  39.740  76.811  0.00  0.00    +0.000 OA
ATOM     17  H3* UNL     1      57.185  40.192  77.653  0.00  0.00    +0.000 HD
ENDBRANCH  14  16
BRANCH  13  18
ATOM     18  C5* UNL     1      56.081  37.564  75.124  0.00  0.00    +0.000 C 
BRANCH  18  19
ATOM     19  O5* UNL     1      55.388  37.704  73.997  0.00  0.00    +0.000 OA
ATOM     20  H5* UNL     1      54.435  37.716  74.188  0.00  0.00    +0.000 HD
ENDBRANCH  18  19
ENDBRANCH  13  18
ENDBRANCH   2  11
TORSDOF 4
ENDMDL
MODEL 2
REMARK VINA RESULT:      -5.5      3.249      4.428
REMARK  Name = Decitabine.pdbqt.pdb
REMARK  4 active torsions:
REMARK  status: ('A' for Active; 'I' for Inactive)
REMARK    1  A    between atoms: N_2  and  C1*_8
REMARK    2  A    between atoms: C4*_10  and  C5*_13
REMARK    3  A    between atoms: C3*_11  and  O3*_16
REMARK    4  A    between atoms: C5*_13  and  O5*_14
REMARK                            x       y       z     vdW  Elec       q    Type
REMARK                         _______ _______ _______ _____ _____    ______ ____
ROOT
ATOM      1  O   UNL     1      56.408  35.269  74.650  0.00  0.00    +0.000 OA
ATOM      2  N   UNL     1      56.167  37.185  75.927  0.00  0.00    +0.000 N 
ATOM      3  N   UNL     1      55.741  35.063  76.828  0.00  0.00    +0.000 NA
ATOM      4  N   UNL     1      55.467  37.023  78.151  0.00  0.00    +0.000 NA
ATOM      5  C   UNL     1      56.131  35.810  75.716  0.00  0.00    +0.000 A 
ATOM      6  C   UNL     1      55.813  37.533  77.160  0.00  0.00    +0.000 A 
ATOM      7  C   UNL     1      55.448  35.652  77.958  0.00  0.00    +0.000 A 
ATOM      8  N   UNL     1      55.081  34.881  79.013  0.00  0.00    +0.000 N 
ATOM      9  H   UNL     1      54.491  35.349  79.688  0.00  0.00    +0.000 HD
ATOM     10  H   UNL     1      54.767  33.956  78.742  0.00  0.00    +0.000 HD
ENDROOT
BRANCH   2  11
ATOM     11  C1* UNL     1      56.512  38.131  75.014  0.00  0.00    +0.000 A 
ATOM     12  O4* UNL     1      55.595  39.075  74.540  0.00  0.00    +0.000 OA
ATOM     13  C4* UNL     1      56.283  39.889  73.630  0.00  0.00    +0.000 A 
ATOM     14  C3* UNL     1      57.648  39.440  73.533  0.00  0.00    +0.000 A 
ATOM     15  C2* UNL     1      57.769  38.352  74.415  0.00  0.00    +0.000 A 
BRANCH  14  16
ATOM     16  O3* UNL     1      58.659  40.314  73.249  0.00  0.00    +0.000 OA
ATOM     17  H3* UNL     1      59.528  39.888  73.351  0.00  0.00    +0.000 HD
ENDBRANCH  14  16
BRANCH  13  18
ATOM     18  C5* UNL     1      55.719  41.057  73.081  0.00  0.00    +0.000 C 
BRANCH  18  19
ATOM     19  O5* UNL     1      55.191  42.161  72.561  0.00  0.00    +0.000 OA
ATOM     20  H5* UNL     1      54.486  41.933  71.932  0.00  0.00    +0.000 HD
ENDBRANCH  18  19
ENDBRANCH  13  18
ENDBRANCH   2  11
TORSDOF 4
ENDMDL
MODEL 3
REMARK VINA RESULT:      -5.0      3.882      4.947
REMARK  Name = Decitabine.pdbqt.pdb
REMARK  4 active torsions:
REMARK  status: ('A' for Active; 'I' for Inactive)
REMARK    1  A    between atoms: N_2  and  C1*_8
REMARK    2  A    between atoms: C4*_10  and  C5*_13
REMARK    3  A    between atoms: C3*_11  and  O3*_16
REMARK    4  A    between atoms: C5*_13  and  O5*_14
REMARK                            x       y       z     vdW  Elec       q    Type
REMARK                         _______ _______ _______ _____ _____    ______ ____
ROOT
ATOM      1  O   UNL     1      60.436  36.260  73.273  0.00  0.00    +0.000 OA
ATOM      2  N   UNL     1      60.132  36.130  75.565  0.00  0.00    +0.000 N 
ATOM      3  N   UNL     1      61.866  34.965  74.500  0.00  0.00    +0.000 NA
ATOM      4  N   UNL     1      61.557  34.801  76.855  0.00  0.00    +0.000 NA
ATOM      5  C   UNL     1      60.776  35.827  74.369  0.00  0.00    +0.000 A 
ATOM      6  C   UNL     1      60.678  35.531  76.619  0.00  0.00    +0.000 A 
ATOM      7  C   UNL     1      62.219  34.510  75.675  0.00  0.00    +0.000 A 
ATOM      8  N   UNL     1      63.290  33.679  75.750  0.00  0.00    +0.000 N 
ATOM      9  H   UNL     1      63.276  33.050  76.542  0.00  0.00    +0.000 HD
ATOM     10  H   UNL     1      63.522  33.244  74.865  0.00  0.00    +0.000 HD
ENDROOT
BRANCH   2  11
ATOM     11  C1* UNL     1      59.052  36.941  75.714  0.00  0.00    +0.000 A 
ATOM     12  O4* UNL     1      57.742  36.458  75.624  0.00  0.00    +0.000 OA
ATOM     13  C4* UNL     1      56.890  37.550  75.834  0.00  0.00    +0.000 A 
ATOM     14  C3* UNL     1      57.683  38.733  76.052  0.00  0.00    +0.000 A 
ATOM     15  C2* UNL     1      59.027  38.324  75.986  0.00  0.00    +0.000 A 
BRANCH  14  16
ATOM     16  O3* UNL     1      57.228  39.750  76.842  0.00  0.00    +0.000 OA
ATOM     17  H3* UNL     1      56.592  39.423  77.501  0.00  0.00    +0.000 HD
ENDBRANCH  14  16
BRANCH  13  18
ATOM     18  C5* UNL     1      55.497  37.407  75.984  0.00  0.00    +0.000 C 
BRANCH  18  19
ATOM     19  O5* UNL     1      54.181  37.277  76.123  0.00  0.00    +0.000 OA
ATOM     20  H5* UNL     1      53.755  38.151  76.122  0.00  0.00    +0.000 HD
ENDBRANCH  18  19
ENDBRANCH  13  18
ENDBRANCH   2  11
TORSDOF 4
ENDMDL
MODEL 4
REMARK VINA RESULT:      -4.9     55.725     57.427
REMARK  Name = Decitabine.pdbqt.pdb
REMARK  4 active torsions:
REMARK  status: ('A' for Active; 'I' for Inactive)
REMARK    1  A    between atoms: N_2  and  C1*_8
REMARK    2  A    between atoms: C4*_10  and  C5*_13
REMARK    3  A    between atoms: C3*_11  and  O3*_16
REMARK    4  A    between atoms: C5*_13  and  O5*_14
REMARK                            x       y       z     vdW  Elec       q    Type
REMARK                         _______ _______ _______ _____ _____    ______ ____
ROOT
ATOM      1  O   UNL     1      14.997   3.266  99.439  0.00  0.00    +0.000 OA
ATOM      2  N   UNL     1      13.047   4.111  98.521  0.00  0.00    +0.000 N 
ATOM      3  N   UNL     1      13.070   2.051  99.639  0.00  0.00    +0.000 NA
ATOM      4  N   UNL     1      11.059   2.893  98.683  0.00  0.00    +0.000 NA
ATOM      5  C   UNL     1      13.795   3.164  99.212  0.00  0.00    +0.000 A 
ATOM      6  C   UNL     1      11.768   3.772  98.390  0.00  0.00    +0.000 A 
ATOM      7  C   UNL     1      11.789   1.954  99.391  0.00  0.00    +0.000 A 
ATOM      8  N   UNL     1      11.128   0.854  99.833  0.00  0.00    +0.000 N 
ATOM      9  H   UNL     1      10.303   0.619  99.297  0.00  0.00    +0.000 HD
ATOM     10  H   UNL     1      11.740   0.074 100.038  0.00  0.00    +0.000 HD
ENDROOT
BRANCH   2  11
ATOM     11  C1* UNL     1      13.508   5.280  98.001  0.00  0.00    +0.000 A 
ATOM     12  O4* UNL     1      13.403   6.492  98.691  0.00  0.00    +0.000 OA
ATOM     13  C4* UNL     1      13.978   7.475  97.876  0.00  0.00    +0.000 A 
ATOM     14  C3* UNL     1      14.444   6.865  96.657  0.00  0.00    +0.000 A 
ATOM     15  C2* UNL     1      14.151   5.494  96.766  0.00  0.00    +0.000 A 
BRANCH  14  16
ATOM     16  O3* UNL     1      15.520   7.368  95.983  0.00  0.00    +0.000 OA
ATOM     17  H3* UNL     1      15.391   7.304  95.021  0.00  0.00    +0.000 HD
ENDBRANCH  14  16
BRANCH  13  18
ATOM     18  C5* UNL     1      14.204   8.792  98.320  0.00  0.00    +0.000 C 
BRANCH  18  19
ATOM     19  O5* UNL     1      14.412  10.037  98.740  0.00  0.00    +0.000 OA
ATOM     20  H5* UNL     1      13.731  10.292  99.385  0.00  0.00    +0.000 HD
ENDBRANCH  18  19
ENDBRANCH  13  18
ENDBRANCH   2  11
TORSDOF 4
ENDMDL
MODEL 5
REMARK VINA RESULT:      -4.9      4.683      6.436
REMARK  Name = Decitabine.pdbqt.pdb
REMARK  4 active torsions:
REMARK  status: ('A' for Active; 'I' for Inactive)
REMARK    1  A    between atoms: N_2  and  C1*_8
REMARK    2  A    between atoms: C4*_10  and  C5*_13
REMARK    3  A    between atoms: C3*_11  and  O3*_16
REMARK    4  A    between atoms: C5*_13  and  O5*_14
REMARK                            x       y       z     vdW  Elec       q    Type
REMARK                         _______ _______ _______ _____ _____    ______ ____
ROOT
ATOM      1  O   UNL     1      56.031  34.962  86.030  0.00  0.00    +0.000 OA
ATOM      2  N   UNL     1      57.715  36.231  85.076  0.00  0.00    +0.000 N 
ATOM      3  N   UNL     1      57.443  36.125  87.402  0.00  0.00    +0.000 NA
ATOM      4  N   UNL     1      59.168  37.454  86.439  0.00  0.00    +0.000 NA
ATOM      5  C   UNL     1      56.992  35.715  86.146  0.00  0.00    +0.000 A 
ATOM      6  C   UNL     1      58.706  37.034  85.453  0.00  0.00    +0.000 A 
ATOM      7  C   UNL     1      58.470  36.928  87.512  0.00  0.00    +0.000 A 
ATOM      8  N   UNL     1      58.873  37.293  88.756  0.00  0.00    +0.000 N 
ATOM      9  H   UNL     1      59.354  38.181  88.796  0.00  0.00    +0.000 HD
ATOM     10  H   UNL     1      58.159  37.163  89.463  0.00  0.00    +0.000 HD
ENDROOT
BRANCH   2  11
ATOM     11  C1* UNL     1      57.486  35.990  83.758  0.00  0.00    +0.000 A 
ATOM     12  O4* UNL     1      57.855  34.786  83.148  0.00  0.00    +0.000 OA
ATOM     13  C4* UNL     1      57.467  34.876  81.805  0.00  0.00    +0.000 A 
ATOM     14  C3* UNL     1      56.852  36.158  81.574  0.00  0.00    +0.000 A 
ATOM     15  C2* UNL     1      56.864  36.828  82.811  0.00  0.00    +0.000 A 
BRANCH  14  16
ATOM     16  O3* UNL     1      55.882  36.314  80.626  0.00  0.00    +0.000 OA
ATOM     17  H3* UNL     1      56.061  35.757  79.849  0.00  0.00    +0.000 HD
ENDBRANCH  14  16
BRANCH  13  18
ATOM     18  C5* UNL     1      57.526  33.779  80.924  0.00  0.00    +0.000 C 
BRANCH  18  19
ATOM     19  O5* UNL     1      57.578  32.741  80.094  0.00  0.00    +0.000 OA
ATOM     20  H5* UNL     1      57.533  33.045  79.171  0.00  0.00    +0.000 HD
ENDBRANCH  18  19
ENDBRANCH  13  18
ENDBRANCH   2  11
TORSDOF 4
ENDMDL
MODEL 6
REMARK VINA RESULT:      -4.7     54.561     56.160
REMARK  Name = Decitabine.pdbqt.pdb
REMARK  4 active torsions:
REMARK  status: ('A' for Active; 'I' for Inactive)
REMARK    1  A    between atoms: N_2  and  C1*_8
REMARK    2  A    between atoms: C4*_10  and  C5*_13
REMARK    3  A    between atoms: C3*_11  and  O3*_16
REMARK    4  A    between atoms: C5*_13  and  O5*_14
REMARK                            x       y       z     vdW  Elec       q    Type
REMARK                         _______ _______ _______ _____ _____    ______ ____
ROOT
ATOM      1  O   UNL     1      15.055   6.336  96.010  0.00  0.00    +0.000 OA
ATOM      2  N   UNL     1      13.759   6.191  97.923  0.00  0.00    +0.000 N 
ATOM      3  N   UNL     1      14.083   4.333  96.530  0.00  0.00    +0.000 NA
ATOM      4  N   UNL     1      12.728   4.169  98.481  0.00  0.00    +0.000 NA
ATOM      5  C   UNL     1      14.352   5.681  96.772  0.00  0.00    +0.000 A 
ATOM      6  C   UNL     1      13.033   5.290  98.579  0.00  0.00    +0.000 A 
ATOM      7  C   UNL     1      13.332   3.645  97.350  0.00  0.00    +0.000 A 
ATOM      8  N   UNL     1      13.105   2.336  97.073  0.00  0.00    +0.000 N 
ATOM      9  H   UNL     1      12.242   1.971  97.455  0.00  0.00    +0.000 HD
ATOM     10  H   UNL     1      13.277   2.095  96.104  0.00  0.00    +0.000 HD
ENDROOT
BRANCH   2  11
ATOM     11  C1* UNL     1      13.862   7.465  98.385  0.00  0.00    +0.000 A 
ATOM     12  O4* UNL     1      12.919   8.016  99.259  0.00  0.00    +0.000 OA
ATOM     13  C4* UNL     1      13.335   9.326  99.532  0.00  0.00    +0.000 A 
ATOM     14  C3* UNL     1      14.553   9.595  98.812  0.00  0.00    +0.000 A 
ATOM     15  C2* UNL     1      14.868   8.414  98.116  0.00  0.00    +0.000 A 
BRANCH  14  16
ATOM     16  O3* UNL     1      15.482  10.468  99.301  0.00  0.00    +0.000 OA
ATOM     17  H3* UNL     1      15.453  10.502 100.273  0.00  0.00    +0.000 HD
ENDBRANCH  14  16
BRANCH  13  18
ATOM     18  C5* UNL     1      12.718  10.128 100.511  0.00  0.00    +0.000 C 
BRANCH  18  19
ATOM     19  O5* UNL     1      12.131  10.886 101.434  0.00  0.00    +0.000 OA
ATOM     20  H5* UNL     1      12.137  11.818 101.156  0.00  0.00    +0.000 HD
ENDBRANCH  18  19
ENDBRANCH  13  18
ENDBRANCH   2  11
TORSDOF 4
ENDMDL
MODEL 7
REMARK VINA RESULT:      -4.6      4.305      6.074
REMARK  Name = Decitabine.pdbqt.pdb
REMARK  4 active torsions:
REMARK  status: ('A' for Active; 'I' for Inactive)
REMARK    1  A    between atoms: N_2  and  C1*_8
REMARK    2  A    between atoms: C4*_10  and  C5*_13
REMARK    3  A    between atoms: C3*_11  and  O3*_16
REMARK    4  A    between atoms: C5*_13  and  O5*_14
REMARK                            x       y       z     vdW  Elec       q    Type
REMARK                         _______ _______ _______ _____ _____    ______ ____
ROOT
ATOM      1  O   UNL     1      58.216  35.256  73.774  0.00  0.00    +0.000 OA
ATOM      2  N   UNL     1      58.463  36.362  75.793  0.00  0.00    +0.000 N 
ATOM      3  N   UNL     1      56.349  36.049  74.830  0.00  0.00    +0.000 NA
ATOM      4  N   UNL     1      56.584  37.208  76.896  0.00  0.00    +0.000 NA
ATOM      5  C   UNL     1      57.726  35.845  74.733  0.00  0.00    +0.000 A 
ATOM      6  C   UNL     1      57.710  36.967  76.707  0.00  0.00    +0.000 A 
ATOM      7  C   UNL     1      55.839  36.678  75.858  0.00  0.00    +0.000 A 
ATOM      8  N   UNL     1      54.493  36.846  75.908  0.00  0.00    +0.000 N 
ATOM      9  H   UNL     1      54.191  37.646  76.449  0.00  0.00    +0.000 HD
ATOM     10  H   UNL     1      54.042  36.747  75.006  0.00  0.00    +0.000 HD
ENDROOT
BRANCH   2  11
ATOM     11  C1* UNL     1      59.813  36.298  75.943  0.00  0.00    +0.000 A 
ATOM     12  O4* UNL     1      60.431  35.282  76.679  0.00  0.00    +0.000 OA
ATOM     13  C4* UNL     1      61.811  35.519  76.619  0.00  0.00    +0.000 A 
ATOM     14  C3* UNL     1      62.053  36.705  75.837  0.00  0.00    +0.000 A 
ATOM     15  C2* UNL     1      60.793  37.163  75.416  0.00  0.00    +0.000 A 
BRANCH  14  16
ATOM     16  O3* UNL     1      63.203  36.849  75.115  0.00  0.00    +0.000 OA
ATOM     17  H3* UNL     1      63.948  36.399  75.551  0.00  0.00    +0.000 HD
ENDBRANCH  14  16
BRANCH  13  18
ATOM     18  C5* UNL     1      62.760  34.599  77.106  0.00  0.00    +0.000 C 
BRANCH  18  19
ATOM     19  O5* UNL     1      63.654  33.727  77.563  0.00  0.00    +0.000 OA
ATOM     20  H5* UNL     1      64.510  34.167  77.704  0.00  0.00    +0.000 HD
ENDBRANCH  18  19
ENDBRANCH  13  18
ENDBRANCH   2  11
TORSDOF 4
ENDMDL
MODEL 8
REMARK VINA RESULT:      -4.5     43.237     44.573
REMARK  Name = Decitabine.pdbqt.pdb
REMARK  4 active torsions:
REMARK  status: ('A' for Active; 'I' for Inactive)
REMARK    1  A    between atoms: N_2  and  C1*_8
REMARK    2  A    between atoms: C4*_10  and  C5*_13
REMARK    3  A    between atoms: C3*_11  and  O3*_16
REMARK    4  A    between atoms: C5*_13  and  O5*_14
REMARK                            x       y       z     vdW  Elec       q    Type
REMARK                         _______ _______ _______ _____ _____    ______ ____
ROOT
ATOM      1  O   UNL     1      17.643  19.087  88.040  0.00  0.00    +0.000 OA
ATOM      2  N   UNL     1      18.069  16.846  88.437  0.00  0.00    +0.000 N 
ATOM      3  N   UNL     1      16.662  17.525  86.688  0.00  0.00    +0.000 NA
ATOM      4  N   UNL     1      17.071  15.215  87.093  0.00  0.00    +0.000 NA
ATOM      5  C   UNL     1      17.480  17.905  87.753  0.00  0.00    +0.000 A 
ATOM      6  C   UNL     1      17.733  15.657  87.946  0.00  0.00    +0.000 A 
ATOM      7  C   UNL     1      16.498  16.262  86.392  0.00  0.00    +0.000 A 
ATOM      8  N   UNL     1      15.697  15.944  85.343  0.00  0.00    +0.000 N 
ATOM      9  H   UNL     1      15.276  15.026  85.401  0.00  0.00    +0.000 HD
ATOM     10  H   UNL     1      15.060  16.688  85.085  0.00  0.00    +0.000 HD
ENDROOT
BRANCH   2  11
ATOM     11  C1* UNL     1      18.904  16.942  89.504  0.00  0.00    +0.000 A 
ATOM     12  O4* UNL     1      20.167  16.339  89.516  0.00  0.00    +0.000 OA
ATOM     13  C4* UNL     1      20.751  16.643  90.752  0.00  0.00    +0.000 A 
ATOM     14  C3* UNL     1      19.835  17.443  91.524  0.00  0.00    +0.000 A 
ATOM     15  C2* UNL     1      18.697  17.626  90.719  0.00  0.00    +0.000 A 
BRANCH  14  16
ATOM     16  O3* UNL     1      20.290  18.358  92.430  0.00  0.00    +0.000 OA
ATOM     17  H3* UNL     1      21.239  18.530  92.306  0.00  0.00    +0.000 HD
ENDBRANCH  14  16
BRANCH  13  18
ATOM     18  C5* UNL     1      22.095  16.344  91.050  0.00  0.00    +0.000 C 
BRANCH  18  19
ATOM     19  O5* UNL     1      23.362  16.057  91.333  0.00  0.00    +0.000 OA
ATOM     20  H5* UNL     1      23.430  15.157  91.696  0.00  0.00    +0.000 HD
ENDBRANCH  18  19
ENDBRANCH  13  18
ENDBRANCH   2  11
TORSDOF 4
ENDMDL
MODEL 9
REMARK VINA RESULT:      -4.5     55.663     57.452
REMARK  Name = Decitabine.pdbqt.pdb
REMARK  4 active torsions:
REMARK  status: ('A' for Active; 'I' for Inactive)
REMARK    1  A    between atoms: N_2  and  C1*_8
REMARK    2  A    between atoms: C4*_10  and  C5*_13
REMARK    3  A    between atoms: C3*_11  and  O3*_16
REMARK    4  A    between atoms: C5*_13  and  O5*_14
REMARK                            x       y       z     vdW  Elec       q    Type
REMARK                         _______ _______ _______ _____ _____    ______ ____
ROOT
ATOM      1  O   UNL     1      15.002   6.238  96.065  0.00  0.00    +0.000 OA
ATOM      2  N   UNL     1      13.701   5.978  97.961  0.00  0.00    +0.000 N 
ATOM      3  N   UNL     1      14.694   8.037  97.443  0.00  0.00    +0.000 NA
ATOM      4  N   UNL     1      13.377   7.784  99.409  0.00  0.00    +0.000 NA
ATOM      5  C   UNL     1      14.497   6.704  97.081  0.00  0.00    +0.000 A 
ATOM      6  C   UNL     1      13.278   6.697  98.997  0.00  0.00    +0.000 A 
ATOM      7  C   UNL     1      14.149   8.522  98.529  0.00  0.00    +0.000 A 
ATOM      8  N   UNL     1      14.367   9.826  98.833  0.00  0.00    +0.000 N 
ATOM      9  H   UNL     1      14.300  10.042  99.819  0.00  0.00    +0.000 HD
ATOM     10  H   UNL     1      15.176  10.217  98.366  0.00  0.00    +0.000 HD
ENDROOT
BRANCH   2  11
ATOM     11  C1* UNL     1      13.355   4.669  97.842  0.00  0.00    +0.000 A 
ATOM     12  O4* UNL     1      12.538   4.028  98.781  0.00  0.00    +0.000 OA
ATOM     13  C4* UNL     1      12.383   2.705  98.347  0.00  0.00    +0.000 A 
ATOM     14  C3* UNL     1      13.118   2.519  97.123  0.00  0.00    +0.000 A 
ATOM     15  C2* UNL     1      13.703   3.762  96.822  0.00  0.00    +0.000 A 
BRANCH  14  16
ATOM     16  O3* UNL     1      12.705   1.618  96.183  0.00  0.00    +0.000 OA
ATOM     17  H3* UNL     1      13.436   1.035  95.913  0.00  0.00    +0.000 HD
ENDBRANCH  14  16
BRANCH  13  18
ATOM     18  C5* UNL     1      11.483   1.809  98.957  0.00  0.00    +0.000 C 
BRANCH  18  19
ATOM     19  O5* UNL     1      10.636   0.959  99.531  0.00  0.00    +0.000 OA
ATOM     20  H5* UNL     1      10.974   0.050  99.461  0.00  0.00    +0.000 HD
ENDBRANCH  18  19
ENDBRANCH  13  18
ENDBRANCH   2  11
TORSDOF 4
ENDMDL
