MODEL 1
REMARK VINA RESULT:      -4.8      0.000      0.000
REMARK  Name = Deferoxamine.pdbqt.pdb
REMARK  19 active torsions:
REMARK  status: ('A' for Active; 'I' for Inactive)
REMARK    1  A    between atoms: C_1  and  C_2
REMARK    2  A    between atoms: C_3  and  C_4
REMARK    3  A    between atoms: C_4  and  N_5
REMARK    4  A    between atoms: C_6  and  C_9
REMARK    5  A    between atoms: C_10  and  C_11
REMARK    6  A    between atoms: N_13  and  O_14
REMARK    7  A    between atoms: N_13  and  C_16
REMARK    8  A    between atoms: C_17  and  C_18
REMARK    9  A    between atoms: C_19  and  C_20
REMARK   10  A    between atoms: C_20  and  N_21
REMARK   11  A    between atoms: C_24  and  N_25
REMARK   12  A    between atoms: N_25  and  O_28
REMARK   13  A    between atoms: C_26  and  C_30
REMARK   14  A    between atoms: C_31  and  C_32
REMARK   15  A    between atoms: N_34  and  C_36
REMARK   16  A    between atoms: C_37  and  C_38
REMARK   17  A    between atoms: C_38  and  C_39
REMARK   18  A    between atoms: C_40  and  N_41
REMARK   19  A    between atoms: N_41  and  O_45
REMARK                            x       y       z     vdW  Elec       q    Type
REMARK                         _______ _______ _______ _____ _____    ______ ____
ROOT
ATOM      1  C   UNL     1      57.088  37.286  78.022  0.00  0.00    +0.000 C 
ATOM      2  C   UNL     1      57.047  37.666  76.883  0.00  0.00    +0.000 C 
ENDROOT
BRANCH   2   3
ATOM      3  N   UNL     1      57.001  38.091  75.603  0.00  0.00    +0.000 N 
ATOM      4  C   UNL     1      56.084  37.836  74.599  0.00  0.00    +0.000 C 
ATOM      5  O   UNL     1      55.192  36.996  74.662  0.00  0.00    +0.000 OA
BRANCH   4   6
ATOM      6  C   UNL     1      56.210  38.594  73.371  0.00  0.00    +0.000 C 
ATOM      7  C   UNL     1      56.327  39.228  72.357  0.00  0.00    +0.000 C 
BRANCH   7   8
ATOM      8  C   UNL     1      56.480  40.005  71.152  0.00  0.00    +0.000 C 
ATOM      9  O   UNL     1      57.289  39.642  70.311  0.00  0.00    +0.000 OA
ATOM     10  N   UNL     1      55.671  41.116  71.065  0.00  0.00    +0.000 N 
ATOM     11  H   UNL     1      55.048  41.277  71.846  0.00  0.00    +0.000 HD
BRANCH  10  12
ATOM     12  C   UNL     1      55.584  42.029  70.073  0.00  0.00    +0.000 C 
ATOM     13  C   UNL     1      55.511  42.843  69.194  0.00  0.00    +0.000 C 
BRANCH  13  14
ATOM     14  C   UNL     1      55.427  43.884  68.074  0.00  0.00    +0.000 C 
BRANCH  14  15
ATOM     15  C   UNL     1      55.349  44.931  66.959  0.00  0.00    +0.000 C 
ATOM     16  C   UNL     1      55.291  45.750  66.084  0.00  0.00    +0.000 C 
BRANCH  16  17
ATOM     17  N   UNL     1      55.230  46.666  65.098  0.00  0.00    +0.000 N 
ATOM     18  C   UNL     1      54.537  47.849  65.001  0.00  0.00    +0.000 C 
ATOM     19  O   UNL     1      53.788  48.386  65.798  0.00  0.00    +0.000 OA
ATOM     20  C   UNL     1      54.665  48.678  63.747  0.00  0.00    +0.000 C 
BRANCH  17  21
ATOM     21  O   UNL     1      56.051  46.247  64.018  0.00  0.00    +0.000 OA
ATOM     22  H   UNL     1      55.420  46.183  63.272  0.00  0.00    +0.000 HD
ENDBRANCH  17  21
ENDBRANCH  16  17
ENDBRANCH  14  15
ENDBRANCH  13  14
ENDBRANCH  10  12
ENDBRANCH   7   8
ENDBRANCH   4   6
BRANCH   3  23
ATOM     23  O   UNL     1      57.826  39.230  75.459  0.00  0.00    +0.000 OA
ATOM     24  H   UNL     1      57.248  39.824  74.945  0.00  0.00    +0.000 HD
ENDBRANCH   3  23
ENDBRANCH   2   3
BRANCH   1  25
ATOM     25  C   UNL     1      57.156  36.805  79.473  0.00  0.00    +0.000 C 
ATOM     26  C   UNL     1      57.197  36.433  80.613  0.00  0.00    +0.000 C 
BRANCH  26  27
ATOM     27  C   UNL     1      57.237  35.964  82.071  0.00  0.00    +0.000 C 
BRANCH  27  28
ATOM     28  N   UNL     1      57.290  35.548  83.355  0.00  0.00    +0.000 N 
ATOM     29  C   UNL     1      57.759  36.213  84.463  0.00  0.00    +0.000 C 
ATOM     30  O   UNL     1      58.228  37.342  84.474  0.00  0.00    +0.000 OA
ATOM     31  H   UNL     1      56.924  34.616  83.507  0.00  0.00    +0.000 HD
BRANCH  29  32
ATOM     32  C   UNL     1      57.671  35.482  85.704  0.00  0.00    +0.000 C 
ATOM     33  C   UNL     1      57.579  34.862  86.728  0.00  0.00    +0.000 C 
BRANCH  33  34
ATOM     34  C   UNL     1      57.458  34.097  87.952  0.00  0.00    +0.000 C 
ATOM     35  O   UNL     1      58.459  33.982  88.653  0.00  0.00    +0.000 OA
ATOM     36  N   UNL     1      56.230  33.518  88.225  0.00  0.00    +0.000 N 
BRANCH  36  37
ATOM     37  C   UNL     1      55.780  32.885  89.328  0.00  0.00    +0.000 C 
ATOM     38  C   UNL     1      55.383  32.319  90.309  0.00  0.00    +0.000 C 
BRANCH  38  39
ATOM     39  C   UNL     1      54.874  31.591  91.557  0.00  0.00    +0.000 C 
ATOM     40  C   UNL     1      54.470  31.020  92.532  0.00  0.00    +0.000 C 
BRANCH  40  41
ATOM     41  C   UNL     1      53.952  30.291  93.775  0.00  0.00    +0.000 C 
BRANCH  41  42
ATOM     42  N   UNL     1      53.459  29.599  94.954  0.00  0.00    +0.000 NA
ATOM     43  H   UNL     1      53.032  30.259  95.601  0.00  0.00    +0.000 HD
ATOM     44  H   UNL     1      52.726  28.939  94.699  0.00  0.00    +0.000 HD
ENDBRANCH  41  42
ENDBRANCH  40  41
ENDBRANCH  38  39
ENDBRANCH  36  37
BRANCH  36  45
ATOM     45  O   UNL     1      55.130  33.918  87.431  0.00  0.00    +0.000 OA
ATOM     46  H   UNL     1      54.483  33.217  87.631  0.00  0.00    +0.000 HD
ENDBRANCH  36  45
ENDBRANCH  33  34
ENDBRANCH  29  32
ENDBRANCH  27  28
ENDBRANCH  26  27
ENDBRANCH   1  25
TORSDOF 19
ENDMDL
MODEL 2
REMARK VINA RESULT:      -4.5     21.413     28.198
REMARK  Name = Deferoxamine.pdbqt.pdb
REMARK  19 active torsions:
REMARK  status: ('A' for Active; 'I' for Inactive)
REMARK    1  A    between atoms: C_1  and  C_2
REMARK    2  A    between atoms: C_3  and  C_4
REMARK    3  A    between atoms: C_4  and  N_5
REMARK    4  A    between atoms: C_6  and  C_9
REMARK    5  A    between atoms: C_10  and  C_11
REMARK    6  A    between atoms: N_13  and  O_14
REMARK    7  A    between atoms: N_13  and  C_16
REMARK    8  A    between atoms: C_17  and  C_18
REMARK    9  A    between atoms: C_19  and  C_20
REMARK   10  A    between atoms: C_20  and  N_21
REMARK   11  A    between atoms: C_24  and  N_25
REMARK   12  A    between atoms: N_25  and  O_28
REMARK   13  A    between atoms: C_26  and  C_30
REMARK   14  A    between atoms: C_31  and  C_32
REMARK   15  A    between atoms: N_34  and  C_36
REMARK   16  A    between atoms: C_37  and  C_38
REMARK   17  A    between atoms: C_38  and  C_39
REMARK   18  A    between atoms: C_40  and  N_41
REMARK   19  A    between atoms: N_41  and  O_45
REMARK                            x       y       z     vdW  Elec       q    Type
REMARK                         _______ _______ _______ _____ _____    ______ ____
ROOT
ATOM      1  C   UNL     1      39.447  23.200  83.576  0.00  0.00    +0.000 C 
ATOM      2  C   UNL     1      40.635  23.356  83.493  0.00  0.00    +0.000 C 
ENDROOT
BRANCH   2   3
ATOM      3  N   UNL     1      41.969  23.531  83.401  0.00  0.00    +0.000 N 
ATOM      4  C   UNL     1      42.711  24.643  83.043  0.00  0.00    +0.000 C 
ATOM      5  O   UNL     1      42.246  25.670  82.559  0.00  0.00    +0.000 OA
BRANCH   4   6
ATOM      6  C   UNL     1      44.147  24.573  83.220  0.00  0.00    +0.000 C 
ATOM      7  C   UNL     1      45.337  24.521  83.380  0.00  0.00    +0.000 C 
BRANCH   7   8
ATOM      8  C   UNL     1      46.764  24.481  83.582  0.00  0.00    +0.000 C 
ATOM      9  O   UNL     1      47.474  25.258  82.960  0.00  0.00    +0.000 OA
ATOM     10  N   UNL     1      47.201  23.540  84.487  0.00  0.00    +0.000 N 
ATOM     11  H   UNL     1      46.485  22.974  84.924  0.00  0.00    +0.000 HD
BRANCH  10  12
ATOM     12  C   UNL     1      48.462  23.263  84.884  0.00  0.00    +0.000 C 
ATOM     13  C   UNL     1      49.581  23.020  85.242  0.00  0.00    +0.000 C 
BRANCH  13  14
ATOM     14  C   UNL     1      51.009  22.714  85.707  0.00  0.00    +0.000 C 
BRANCH  14  15
ATOM     15  C   UNL     1      52.434  22.400  86.169  0.00  0.00    +0.000 C 
ATOM     16  C   UNL     1      53.553  22.157  86.531  0.00  0.00    +0.000 C 
BRANCH  16  17
ATOM     17  N   UNL     1      54.807  21.889  86.943  0.00  0.00    +0.000 N 
ATOM     18  C   UNL     1      55.943  21.568  86.238  0.00  0.00    +0.000 C 
ATOM     19  O   UNL     1      56.112  21.445  85.037  0.00  0.00    +0.000 OA
ATOM     20  C   UNL     1      57.227  21.314  86.987  0.00  0.00    +0.000 C 
BRANCH  17  21
ATOM     21  O   UNL     1      54.864  21.974  88.358  0.00  0.00    +0.000 OA
ATOM     22  H   UNL     1      55.772  21.668  88.562  0.00  0.00    +0.000 HD
ENDBRANCH  17  21
ENDBRANCH  16  17
ENDBRANCH  14  15
ENDBRANCH  13  14
ENDBRANCH  10  12
ENDBRANCH   7   8
ENDBRANCH   4   6
BRANCH   3  23
ATOM     23  O   UNL     1      42.626  22.519  84.137  0.00  0.00    +0.000 OA
ATOM     24  H   UNL     1      42.265  22.664  85.031  0.00  0.00    +0.000 HD
ENDBRANCH   3  23
ENDBRANCH   2   3
BRANCH   1  25
ATOM     25  C   UNL     1      37.930  23.017  83.686  0.00  0.00    +0.000 C 
ATOM     26  C   UNL     1      36.742  22.870  83.758  0.00  0.00    +0.000 C 
BRANCH  26  27
ATOM     27  C   UNL     1      35.224  22.677  83.838  0.00  0.00    +0.000 C 
BRANCH  27  28
ATOM     28  N   UNL     1      33.884  22.519  83.895  0.00  0.00    +0.000 N 
ATOM     29  C   UNL     1      33.104  21.528  83.347  0.00  0.00    +0.000 C 
ATOM     30  O   UNL     1      33.509  20.582  82.687  0.00  0.00    +0.000 OA
ATOM     31  H   UNL     1      33.402  23.235  84.424  0.00  0.00    +0.000 HD
BRANCH  29  32
ATOM     32  C   UNL     1      31.689  21.650  83.597  0.00  0.00    +0.000 C 
ATOM     33  C   UNL     1      30.514  21.748  83.828  0.00  0.00    +0.000 C 
BRANCH  33  34
ATOM     34  C   UNL     1      29.102  21.875  84.128  0.00  0.00    +0.000 C 
ATOM     35  O   UNL     1      28.481  20.850  84.387  0.00  0.00    +0.000 OA
ATOM     36  N   UNL     1      28.548  23.142  84.062  0.00  0.00    +0.000 N 
BRANCH  36  37
ATOM     37  C   UNL     1      27.325  23.587  84.419  0.00  0.00    +0.000 C 
ATOM     38  C   UNL     1      26.237  23.980  84.737  0.00  0.00    +0.000 C 
BRANCH  38  39
ATOM     39  C   UNL     1      24.844  24.476  85.139  0.00  0.00    +0.000 C 
ATOM     40  C   UNL     1      23.756  24.869  85.455  0.00  0.00    +0.000 C 
BRANCH  40  41
ATOM     41  C   UNL     1      22.368  25.374  85.860  0.00  0.00    +0.000 C 
BRANCH  41  42
ATOM     42  N   UNL     1      21.051  25.854  86.245  0.00  0.00    +0.000 NA
ATOM     43  H   UNL     1      20.325  25.286  85.811  0.00  0.00    +0.000 HD
ATOM     44  H   UNL     1      20.918  25.760  87.251  0.00  0.00    +0.000 HD
ENDBRANCH  41  42
ENDBRANCH  40  41
ENDBRANCH  38  39
ENDBRANCH  36  37
BRANCH  36  45
ATOM     45  O   UNL     1      29.435  24.238  83.958  0.00  0.00    +0.000 OA
ATOM     46  H   UNL     1      29.528  24.320  82.990  0.00  0.00    +0.000 HD
ENDBRANCH  36  45
ENDBRANCH  33  34
ENDBRANCH  29  32
ENDBRANCH  27  28
ENDBRANCH  26  27
ENDBRANCH   1  25
TORSDOF 19
ENDMDL
MODEL 3
REMARK VINA RESULT:      -4.4      7.717      9.138
REMARK  Name = Deferoxamine.pdbqt.pdb
REMARK  19 active torsions:
REMARK  status: ('A' for Active; 'I' for Inactive)
REMARK    1  A    between atoms: C_1  and  C_2
REMARK    2  A    between atoms: C_3  and  C_4
REMARK    3  A    between atoms: C_4  and  N_5
REMARK    4  A    between atoms: C_6  and  C_9
REMARK    5  A    between atoms: C_10  and  C_11
REMARK    6  A    between atoms: N_13  and  O_14
REMARK    7  A    between atoms: N_13  and  C_16
REMARK    8  A    between atoms: C_17  and  C_18
REMARK    9  A    between atoms: C_19  and  C_20
REMARK   10  A    between atoms: C_20  and  N_21
REMARK   11  A    between atoms: C_24  and  N_25
REMARK   12  A    between atoms: N_25  and  O_28
REMARK   13  A    between atoms: C_26  and  C_30
REMARK   14  A    between atoms: C_31  and  C_32
REMARK   15  A    between atoms: N_34  and  C_36
REMARK   16  A    between atoms: C_37  and  C_38
REMARK   17  A    between atoms: C_38  and  C_39
REMARK   18  A    between atoms: C_40  and  N_41
REMARK   19  A    between atoms: N_41  and  O_45
REMARK                            x       y       z     vdW  Elec       q    Type
REMARK                         _______ _______ _______ _____ _____    ______ ____
ROOT
ATOM      1  C   UNL     1      57.845  36.075  78.684  0.00  0.00    +0.000 C 
ATOM      2  C   UNL     1      58.172  35.920  77.539  0.00  0.00    +0.000 C 
ENDROOT
BRANCH   2   3
ATOM      3  N   UNL     1      58.541  35.746  76.253  0.00  0.00    +0.000 N 
ATOM      4  C   UNL     1      59.749  35.349  75.707  0.00  0.00    +0.000 C 
ATOM      5  O   UNL     1      60.799  35.241  76.332  0.00  0.00    +0.000 OA
BRANCH   4   6
ATOM      6  C   UNL     1      59.780  35.074  74.285  0.00  0.00    +0.000 C 
ATOM      7  C   UNL     1      59.792  34.848  73.105  0.00  0.00    +0.000 C 
BRANCH   7   8
ATOM      8  C   UNL     1      59.785  34.567  71.691  0.00  0.00    +0.000 C 
ATOM      9  O   UNL     1      59.916  35.491  70.901  0.00  0.00    +0.000 OA
ATOM     10  N   UNL     1      59.627  33.240  71.358  0.00  0.00    +0.000 N 
ATOM     11  H   UNL     1      59.536  32.594  72.131  0.00  0.00    +0.000 HD
BRANCH  10  12
ATOM     12  C   UNL     1      59.580  32.670  70.134  0.00  0.00    +0.000 C 
ATOM     13  C   UNL     1      59.544  32.161  69.048  0.00  0.00    +0.000 C 
BRANCH  13  14
ATOM     14  C   UNL     1      59.506  31.507  67.664  0.00  0.00    +0.000 C 
BRANCH  14  15
ATOM     15  C   UNL     1      59.461  30.859  66.277  0.00  0.00    +0.000 C 
ATOM     16  C   UNL     1      59.428  30.348  65.191  0.00  0.00    +0.000 C 
BRANCH  16  17
ATOM     17  N   UNL     1      59.393  29.770  63.975  0.00  0.00    +0.000 N 
ATOM     18  C   UNL     1      58.368  29.162  63.290  0.00  0.00    +0.000 C 
ATOM     19  O   UNL     1      57.205  28.989  63.610  0.00  0.00    +0.000 OA
ATOM     20  C   UNL     1      58.635  28.591  61.919  0.00  0.00    +0.000 C 
BRANCH  17  21
ATOM     21  O   UNL     1      60.679  29.848  63.381  0.00  0.00    +0.000 OA
ATOM     22  H   UNL     1      61.208  29.218  63.914  0.00  0.00    +0.000 HD
ENDBRANCH  17  21
ENDBRANCH  16  17
ENDBRANCH  14  15
ENDBRANCH  13  14
ENDBRANCH  10  12
ENDBRANCH   7   8
ENDBRANCH   4   6
BRANCH   3  23
ATOM     23  O   UNL     1      57.387  35.615  75.448  0.00  0.00    +0.000 OA
ATOM     24  H   UNL     1      56.830  35.036  76.001  0.00  0.00    +0.000 HD
ENDBRANCH   3  23
ENDBRANCH   2   3
BRANCH   1  25
ATOM     25  C   UNL     1      57.434  36.288  80.144  0.00  0.00    +0.000 C 
ATOM     26  C   UNL     1      57.125  36.460  81.290  0.00  0.00    +0.000 C 
BRANCH  26  27
ATOM     27  C   UNL     1      56.742  36.685  82.757  0.00  0.00    +0.000 C 
BRANCH  27  28
ATOM     28  N   UNL     1      56.398  36.867  84.050  0.00  0.00    +0.000 N 
ATOM     29  C   UNL     1      57.180  37.270  85.106  0.00  0.00    +0.000 C 
ATOM     30  O   UNL     1      58.371  37.543  85.051  0.00  0.00    +0.000 OA
ATOM     31  H   UNL     1      55.423  36.683  84.252  0.00  0.00    +0.000 HD
BRANCH  29  32
ATOM     32  C   UNL     1      56.500  37.369  86.374  0.00  0.00    +0.000 C 
ATOM     33  C   UNL     1      55.912  37.446  87.419  0.00  0.00    +0.000 C 
BRANCH  33  34
ATOM     34  C   UNL     1      55.189  37.524  88.672  0.00  0.00    +0.000 C 
ATOM     35  O   UNL     1      55.471  38.442  89.436  0.00  0.00    +0.000 OA
ATOM     36  N   UNL     1      54.256  36.534  88.933  0.00  0.00    +0.000 N 
BRANCH  36  37
ATOM     37  C   UNL     1      53.347  36.421  89.923  0.00  0.00    +0.000 C 
ATOM     38  C   UNL     1      52.539  36.324  90.805  0.00  0.00    +0.000 C 
BRANCH  38  39
ATOM     39  C   UNL     1      51.511  36.203  91.935  0.00  0.00    +0.000 C 
ATOM     40  C   UNL     1      50.703  36.111  92.816  0.00  0.00    +0.000 C 
BRANCH  40  41
ATOM     41  C   UNL     1      49.668  35.995  93.939  0.00  0.00    +0.000 C 
BRANCH  41  42
ATOM     42  N   UNL     1      48.686  35.885  95.005  0.00  0.00    +0.000 NA
ATOM     43  H   UNL     1      47.754  35.749  94.618  0.00  0.00    +0.000 HD
ATOM     44  H   UNL     1      48.875  35.064  95.579  0.00  0.00    +0.000 HD
ENDBRANCH  41  42
ENDBRANCH  40  41
ENDBRANCH  38  39
ENDBRANCH  36  37
BRANCH  36  45
ATOM     45  O   UNL     1      53.901  35.676  87.868  0.00  0.00    +0.000 OA
ATOM     46  H   UNL     1      54.245  36.169  87.099  0.00  0.00    +0.000 HD
ENDBRANCH  36  45
ENDBRANCH  33  34
ENDBRANCH  29  32
ENDBRANCH  27  28
ENDBRANCH  26  27
ENDBRANCH   1  25
TORSDOF 19
ENDMDL
MODEL 4
REMARK VINA RESULT:      -4.3     20.624     24.888
REMARK  Name = Deferoxamine.pdbqt.pdb
REMARK  19 active torsions:
REMARK  status: ('A' for Active; 'I' for Inactive)
REMARK    1  A    between atoms: C_1  and  C_2
REMARK    2  A    between atoms: C_3  and  C_4
REMARK    3  A    between atoms: C_4  and  N_5
REMARK    4  A    between atoms: C_6  and  C_9
REMARK    5  A    between atoms: C_10  and  C_11
REMARK    6  A    between atoms: N_13  and  O_14
REMARK    7  A    between atoms: N_13  and  C_16
REMARK    8  A    between atoms: C_17  and  C_18
REMARK    9  A    between atoms: C_19  and  C_20
REMARK   10  A    between atoms: C_20  and  N_21
REMARK   11  A    between atoms: C_24  and  N_25
REMARK   12  A    between atoms: N_25  and  O_28
REMARK   13  A    between atoms: C_26  and  C_30
REMARK   14  A    between atoms: C_31  and  C_32
REMARK   15  A    between atoms: N_34  and  C_36
REMARK   16  A    between atoms: C_37  and  C_38
REMARK   17  A    between atoms: C_38  and  C_39
REMARK   18  A    between atoms: C_40  and  N_41
REMARK   19  A    between atoms: N_41  and  O_45
REMARK                            x       y       z     vdW  Elec       q    Type
REMARK                         _______ _______ _______ _____ _____    ______ ____
ROOT
ATOM      1  C   UNL     1      47.146  23.162  85.072  0.00  0.00    +0.000 C 
ATOM      2  C   UNL     1      48.342  23.066  85.139  0.00  0.00    +0.000 C 
ENDROOT
BRANCH   2   3
ATOM      3  N   UNL     1      49.684  22.958  85.213  0.00  0.00    +0.000 N 
ATOM      4  C   UNL     1      50.568  23.349  86.203  0.00  0.00    +0.000 C 
ATOM      5  O   UNL     1      50.276  24.051  87.166  0.00  0.00    +0.000 OA
BRANCH   4   6
ATOM      6  C   UNL     1      51.947  22.925  86.073  0.00  0.00    +0.000 C 
ATOM      7  C   UNL     1      53.095  22.586  85.967  0.00  0.00    +0.000 C 
BRANCH   7   8
ATOM      8  C   UNL     1      54.478  22.201  85.832  0.00  0.00    +0.000 C 
ATOM      9  O   UNL     1      55.213  22.276  86.806  0.00  0.00    +0.000 OA
ATOM     10  N   UNL     1      54.846  21.770  84.577  0.00  0.00    +0.000 N 
ATOM     11  H   UNL     1      54.116  21.761  83.876  0.00  0.00    +0.000 HD
BRANCH  10  12
ATOM     12  C   UNL     1      56.053  21.349  84.142  0.00  0.00    +0.000 C 
ATOM     13  C   UNL     1      57.126  20.978  83.752  0.00  0.00    +0.000 C 
BRANCH  13  14
ATOM     14  C   UNL     1      58.496  20.514  83.249  0.00  0.00    +0.000 C 
BRANCH  14  15
ATOM     15  C   UNL     1      59.870  20.055  82.753  0.00  0.00    +0.000 C 
ATOM     16  C   UNL     1      60.946  19.692  82.364  0.00  0.00    +0.000 C 
BRANCH  16  17
ATOM     17  N   UNL     1      62.151  19.279  81.925  0.00  0.00    +0.000 N 
ATOM     18  C   UNL     1      63.262  19.985  81.529  0.00  0.00    +0.000 C 
ATOM     19  O   UNL     1      63.449  21.188  81.476  0.00  0.00    +0.000 OA
ATOM     20  C   UNL     1      64.489  19.234  81.074  0.00  0.00    +0.000 C 
BRANCH  17  21
ATOM     21  O   UNL     1      62.179  17.860  81.897  0.00  0.00    +0.000 OA
ATOM     22  H   UNL     1      63.098  17.651  82.162  0.00  0.00    +0.000 HD
ENDBRANCH  17  21
ENDBRANCH  16  17
ENDBRANCH  14  15
ENDBRANCH  13  14
ENDBRANCH  10  12
ENDBRANCH   7   8
ENDBRANCH   4   6
BRANCH   3  23
ATOM     23  O   UNL     1      50.127  21.980  84.294  0.00  0.00    +0.000 OA
ATOM     24  H   UNL     1      50.461  21.287  84.893  0.00  0.00    +0.000 HD
ENDBRANCH   3  23
ENDBRANCH   2   3
BRANCH   1  25
ATOM     25  C   UNL     1      45.621  23.268  84.989  0.00  0.00    +0.000 C 
ATOM     26  C   UNL     1      44.427  23.359  84.912  0.00  0.00    +0.000 C 
BRANCH  26  27
ATOM     27  C   UNL     1      42.904  23.481  84.802  0.00  0.00    +0.000 C 
BRANCH  27  28
ATOM     28  N   UNL     1      41.561  23.582  84.688  0.00  0.00    +0.000 N 
ATOM     29  C   UNL     1      40.820  24.450  83.922  0.00  0.00    +0.000 C 
ATOM     30  O   UNL     1      41.269  25.314  83.182  0.00  0.00    +0.000 OA
ATOM     31  H   UNL     1      41.044  22.915  85.247  0.00  0.00    +0.000 HD
BRANCH  29  32
ATOM     32  C   UNL     1      39.390  24.294  84.025  0.00  0.00    +0.000 C 
ATOM     33  C   UNL     1      38.196  24.176  84.090  0.00  0.00    +0.000 C 
BRANCH  33  34
ATOM     34  C   UNL     1      36.755  24.034  84.146  0.00  0.00    +0.000 C 
ATOM     35  O   UNL     1      36.092  25.042  84.373  0.00  0.00    +0.000 OA
ATOM     36  N   UNL     1      36.232  22.764  83.975  0.00  0.00    +0.000 N 
BRANCH  36  37
ATOM     37  C   UNL     1      34.956  22.349  83.835  0.00  0.00    +0.000 C 
ATOM     38  C   UNL     1      33.822  21.978  83.714  0.00  0.00    +0.000 C 
BRANCH  38  39
ATOM     39  C   UNL     1      32.375  21.498  83.560  0.00  0.00    +0.000 C 
ATOM     40  C   UNL     1      31.242  21.122  83.434  0.00  0.00    +0.000 C 
BRANCH  40  41
ATOM     41  C   UNL     1      29.798  20.641  83.270  0.00  0.00    +0.000 C 
BRANCH  41  42
ATOM     42  N   UNL     1      28.427  20.185  83.113  0.00  0.00    +0.000 NA
ATOM     43  H   UNL     1      27.993  20.633  82.307  0.00  0.00    +0.000 HD
ATOM     44  H   UNL     1      28.404  19.184  82.925  0.00  0.00    +0.000 HD
ENDBRANCH  41  42
ENDBRANCH  40  41
ENDBRANCH  38  39
ENDBRANCH  36  37
BRANCH  36  45
ATOM     45  O   UNL     1      37.108  21.754  83.515  0.00  0.00    +0.000 OA
ATOM     46  H   UNL     1      36.607  21.391  82.762  0.00  0.00    +0.000 HD
ENDBRANCH  36  45
ENDBRANCH  33  34
ENDBRANCH  29  32
ENDBRANCH  27  28
ENDBRANCH  26  27
ENDBRANCH   1  25
TORSDOF 19
ENDMDL
MODEL 5
REMARK VINA RESULT:      -4.2     22.621     29.060
REMARK  Name = Deferoxamine.pdbqt.pdb
REMARK  19 active torsions:
REMARK  status: ('A' for Active; 'I' for Inactive)
REMARK    1  A    between atoms: C_1  and  C_2
REMARK    2  A    between atoms: C_3  and  C_4
REMARK    3  A    between atoms: C_4  and  N_5
REMARK    4  A    between atoms: C_6  and  C_9
REMARK    5  A    between atoms: C_10  and  C_11
REMARK    6  A    between atoms: N_13  and  O_14
REMARK    7  A    between atoms: N_13  and  C_16
REMARK    8  A    between atoms: C_17  and  C_18
REMARK    9  A    between atoms: C_19  and  C_20
REMARK   10  A    between atoms: C_20  and  N_21
REMARK   11  A    between atoms: C_24  and  N_25
REMARK   12  A    between atoms: N_25  and  O_28
REMARK   13  A    between atoms: C_26  and  C_30
REMARK   14  A    between atoms: C_31  and  C_32
REMARK   15  A    between atoms: N_34  and  C_36
REMARK   16  A    between atoms: C_37  and  C_38
REMARK   17  A    between atoms: C_38  and  C_39
REMARK   18  A    between atoms: C_40  and  N_41
REMARK   19  A    between atoms: N_41  and  O_45
REMARK                            x       y       z     vdW  Elec       q    Type
REMARK                         _______ _______ _______ _____ _____    ______ ____
ROOT
ATOM      1  C   UNL     1      38.178  22.853  83.058  0.00  0.00    +0.000 C 
ATOM      2  C   UNL     1      39.363  23.045  83.058  0.00  0.00    +0.000 C 
ENDROOT
BRANCH   2   3
ATOM      3  N   UNL     1      40.695  23.260  83.058  0.00  0.00    +0.000 N 
ATOM      4  C   UNL     1      41.458  24.198  82.383  0.00  0.00    +0.000 C 
ATOM      5  O   UNL     1      41.042  24.929  81.491  0.00  0.00    +0.000 OA
BRANCH   4   6
ATOM      6  C   UNL     1      42.860  24.295  82.735  0.00  0.00    +0.000 C 
ATOM      7  C   UNL     1      44.026  24.372  83.013  0.00  0.00    +0.000 C 
BRANCH   7   8
ATOM      8  C   UNL     1      45.430  24.448  83.333  0.00  0.00    +0.000 C 
ATOM      9  O   UNL     1      46.081  25.399  82.926  0.00  0.00    +0.000 OA
ATOM     10  N   UNL     1      45.915  23.406  84.090  0.00  0.00    +0.000 N 
ATOM     11  H   UNL     1      45.245  22.694  84.353  0.00  0.00    +0.000 HD
BRANCH  10  12
ATOM     12  C   UNL     1      47.170  23.195  84.544  0.00  0.00    +0.000 C 
ATOM     13  C   UNL     1      48.287  23.010  84.941  0.00  0.00    +0.000 C 
BRANCH  13  14
ATOM     14  C   UNL     1      49.717  22.778  85.441  0.00  0.00    +0.000 C 
BRANCH  14  15
ATOM     15  C   UNL     1      51.147  22.555  85.940  0.00  0.00    +0.000 C 
ATOM     16  C   UNL     1      52.269  22.384  86.332  0.00  0.00    +0.000 C 
BRANCH  16  17
ATOM     17  N   UNL     1      53.527  22.196  86.776  0.00  0.00    +0.000 N 
ATOM     18  C   UNL     1      54.687  21.886  86.107  0.00  0.00    +0.000 C 
ATOM     19  O   UNL     1      54.881  21.701  84.919  0.00  0.00    +0.000 OA
ATOM     20  C   UNL     1      55.969  21.733  86.888  0.00  0.00    +0.000 C 
BRANCH  17  21
ATOM     21  O   UNL     1      53.556  22.365  88.184  0.00  0.00    +0.000 OA
ATOM     22  H   UNL     1      53.910  23.273  88.292  0.00  0.00    +0.000 HD
ENDBRANCH  17  21
ENDBRANCH  16  17
ENDBRANCH  14  15
ENDBRANCH  13  14
ENDBRANCH  10  12
ENDBRANCH   7   8
ENDBRANCH   4   6
BRANCH   3  23
ATOM     23  O   UNL     1      41.269  22.650  84.196  0.00  0.00    +0.000 OA
ATOM     24  H   UNL     1      40.977  21.726  84.089  0.00  0.00    +0.000 HD
ENDBRANCH   3  23
ENDBRANCH   2   3
BRANCH   1  25
ATOM     25  C   UNL     1      36.669  22.593  83.060  0.00  0.00    +0.000 C 
ATOM     26  C   UNL     1      35.485  22.401  83.068  0.00  0.00    +0.000 C 
BRANCH  26  27
ATOM     27  C   UNL     1      33.970  22.169  83.084  0.00  0.00    +0.000 C 
BRANCH  27  28
ATOM     28  N   UNL     1      32.637  21.951  83.109  0.00  0.00    +0.000 N 
ATOM     29  C   UNL     1      31.658  22.474  82.299  0.00  0.00    +0.000 C 
ATOM     30  O   UNL     1      31.835  23.261  81.380  0.00  0.00    +0.000 OA
ATOM     31  H   UNL     1      32.335  21.304  83.826  0.00  0.00    +0.000 HD
BRANCH  29  32
ATOM     32  C   UNL     1      30.316  22.031  82.589  0.00  0.00    +0.000 C 
ATOM     33  C   UNL     1      29.206  21.640  82.827  0.00  0.00    +0.000 C 
BRANCH  33  34
ATOM     34  C   UNL     1      27.876  21.148  83.122  0.00  0.00    +0.000 C 
ATOM     35  O   UNL     1      27.014  21.282  82.259  0.00  0.00    +0.000 OA
ATOM     36  N   UNL     1      27.662  20.596  84.374  0.00  0.00    +0.000 N 
BRANCH  36  37
ATOM     37  C   UNL     1      26.596  19.939  84.876  0.00  0.00    +0.000 C 
ATOM     38  C   UNL     1      25.649  19.356  85.326  0.00  0.00    +0.000 C 
BRANCH  38  39
ATOM     39  C   UNL     1      24.444  18.607  85.905  0.00  0.00    +0.000 C 
ATOM     40  C   UNL     1      23.504  18.019  86.362  0.00  0.00    +0.000 C 
BRANCH  40  41
ATOM     41  C   UNL     1      22.306  17.268  86.949  0.00  0.00    +0.000 C 
BRANCH  41  42
ATOM     42  N   UNL     1      21.169  16.554  87.507  0.00  0.00    +0.000 NA
ATOM     43  H   UNL     1      20.737  15.964  86.798  0.00  0.00    +0.000 HD
ATOM     44  H   UNL     1      21.472  15.926  88.250  0.00  0.00    +0.000 HD
ENDBRANCH  41  42
ENDBRANCH  40  41
ENDBRANCH  38  39
ENDBRANCH  36  37
BRANCH  36  45
ATOM     45  O   UNL     1      28.799  20.325  85.170  0.00  0.00    +0.000 OA
ATOM     46  H   UNL     1      28.730  21.020  85.849  0.00  0.00    +0.000 HD
ENDBRANCH  36  45
ENDBRANCH  33  34
ENDBRANCH  29  32
ENDBRANCH  27  28
ENDBRANCH  26  27
ENDBRANCH   1  25
TORSDOF 19
ENDMDL
MODEL 6
REMARK VINA RESULT:      -4.1     21.519     26.246
REMARK  Name = Deferoxamine.pdbqt.pdb
REMARK  19 active torsions:
REMARK  status: ('A' for Active; 'I' for Inactive)
REMARK    1  A    between atoms: C_1  and  C_2
REMARK    2  A    between atoms: C_3  and  C_4
REMARK    3  A    between atoms: C_4  and  N_5
REMARK    4  A    between atoms: C_6  and  C_9
REMARK    5  A    between atoms: C_10  and  C_11
REMARK    6  A    between atoms: N_13  and  O_14
REMARK    7  A    between atoms: N_13  and  C_16
REMARK    8  A    between atoms: C_17  and  C_18
REMARK    9  A    between atoms: C_19  and  C_20
REMARK   10  A    between atoms: C_20  and  N_21
REMARK   11  A    between atoms: C_24  and  N_25
REMARK   12  A    between atoms: N_25  and  O_28
REMARK   13  A    between atoms: C_26  and  C_30
REMARK   14  A    between atoms: C_31  and  C_32
REMARK   15  A    between atoms: N_34  and  C_36
REMARK   16  A    between atoms: C_37  and  C_38
REMARK   17  A    between atoms: C_38  and  C_39
REMARK   18  A    between atoms: C_40  and  N_41
REMARK   19  A    between atoms: N_41  and  O_45
REMARK                            x       y       z     vdW  Elec       q    Type
REMARK                         _______ _______ _______ _____ _____    ______ ____
ROOT
ATOM      1  C   UNL     1      45.386  22.097  83.714  0.00  0.00    +0.000 C 
ATOM      2  C   UNL     1      44.226  22.396  83.802  0.00  0.00    +0.000 C 
ENDROOT
BRANCH   2   3
ATOM      3  N   UNL     1      42.923  22.733  83.901  0.00  0.00    +0.000 N 
ATOM      4  C   UNL     1      42.145  23.567  83.117  0.00  0.00    +0.000 C 
ATOM      5  O   UNL     1      42.577  24.315  82.247  0.00  0.00    +0.000 OA
BRANCH   4   6
ATOM      6  C   UNL     1      40.719  23.582  83.371  0.00  0.00    +0.000 C 
ATOM      7  C   UNL     1      39.536  23.608  83.577  0.00  0.00    +0.000 C 
BRANCH   7   8
ATOM      8  C   UNL     1      38.117  23.662  83.832  0.00  0.00    +0.000 C 
ATOM      9  O   UNL     1      37.661  24.611  84.452  0.00  0.00    +0.000 OA
ATOM     10  N   UNL     1      37.392  22.603  83.333  0.00  0.00    +0.000 N 
ATOM     11  H   UNL     1      37.918  21.896  82.836  0.00  0.00    +0.000 HD
BRANCH  10  12
ATOM     12  C   UNL     1      36.064  22.371  83.409  0.00  0.00    +0.000 C 
ATOM     13  C   UNL     1      34.882  22.168  83.472  0.00  0.00    +0.000 C 
BRANCH  13  14
ATOM     14  C   UNL     1      33.374  21.914  83.544  0.00  0.00    +0.000 C 
BRANCH  14  15
ATOM     15  C   UNL     1      31.864  21.669  83.617  0.00  0.00    +0.000 C 
ATOM     16  C   UNL     1      30.681  21.476  83.677  0.00  0.00    +0.000 C 
BRANCH  16  17
ATOM     17  N   UNL     1      29.353  21.258  83.752  0.00  0.00    +0.000 N 
ATOM     18  C   UNL     1      28.613  20.445  84.578  0.00  0.00    +0.000 C 
ATOM     19  O   UNL     1      28.973  19.702  85.474  0.00  0.00    +0.000 OA
ATOM     20  C   UNL     1      27.113  20.406  84.421  0.00  0.00    +0.000 C 
BRANCH  17  21
ATOM     21  O   UNL     1      28.694  22.041  82.769  0.00  0.00    +0.000 OA
ATOM     22  H   UNL     1      28.922  22.958  83.028  0.00  0.00    +0.000 HD
ENDBRANCH  17  21
ENDBRANCH  16  17
ENDBRANCH  14  15
ENDBRANCH  13  14
ENDBRANCH  10  12
ENDBRANCH   7   8
ENDBRANCH   4   6
BRANCH   3  23
ATOM     23  O   UNL     1      42.254  21.784  84.707  0.00  0.00    +0.000 OA
ATOM     24  H   UNL     1      42.352  22.179  85.593  0.00  0.00    +0.000 HD
ENDBRANCH   3  23
ENDBRANCH   2   3
BRANCH   1  25
ATOM     25  C   UNL     1      46.869  21.731  83.609  0.00  0.00    +0.000 C 
ATOM     26  C   UNL     1      48.033  21.454  83.518  0.00  0.00    +0.000 C 
BRANCH  26  27
ATOM     27  C   UNL     1      49.521  21.111  83.394  0.00  0.00    +0.000 C 
BRANCH  27  28
ATOM     28  N   UNL     1      50.829  20.792  83.285  0.00  0.00    +0.000 N 
ATOM     29  C   UNL     1      51.404  19.676  82.724  0.00  0.00    +0.000 C 
ATOM     30  O   UNL     1      50.803  18.744  82.208  0.00  0.00    +0.000 OA
ATOM     31  H   UNL     1      51.460  21.483  83.668  0.00  0.00    +0.000 HD
BRANCH  29  32
ATOM     32  C   UNL     1      52.845  19.639  82.767  0.00  0.00    +0.000 C 
ATOM     33  C   UNL     1      54.045  19.595  82.822  0.00  0.00    +0.000 C 
BRANCH  33  34
ATOM     34  C   UNL     1      55.489  19.522  82.898  0.00  0.00    +0.000 C 
ATOM     35  O   UNL     1      55.988  19.221  83.979  0.00  0.00    +0.000 OA
ATOM     36  N   UNL     1      56.205  19.834  81.755  0.00  0.00    +0.000 N 
BRANCH  36  37
ATOM     37  C   UNL     1      57.522  19.719  81.483  0.00  0.00    +0.000 C 
ATOM     38  C   UNL     1      58.693  19.620  81.243  0.00  0.00    +0.000 C 
BRANCH  38  39
ATOM     39  C   UNL     1      60.190  19.500  80.935  0.00  0.00    +0.000 C 
ATOM     40  C   UNL     1      61.360  19.402  80.692  0.00  0.00    +0.000 C 
BRANCH  40  41
ATOM     41  C   UNL     1      62.854  19.272  80.381  0.00  0.00    +0.000 C 
BRANCH  41  42
ATOM     42  N   UNL     1      64.272  19.150  80.086  0.00  0.00    +0.000 NA
ATOM     43  H   UNL     1      64.612  19.989  79.619  0.00  0.00    +0.000 HD
ATOM     44  H   UNL     1      64.809  19.070  80.948  0.00  0.00    +0.000 HD
ENDBRANCH  41  42
ENDBRANCH  40  41
ENDBRANCH  38  39
ENDBRANCH  36  37
BRANCH  36  45
ATOM     45  O   UNL     1      55.484  19.953  80.546  0.00  0.00    +0.000 OA
ATOM     46  H   UNL     1      54.593  19.669  80.823  0.00  0.00    +0.000 HD
ENDBRANCH  36  45
ENDBRANCH  33  34
ENDBRANCH  29  32
ENDBRANCH  27  28
ENDBRANCH  26  27
ENDBRANCH   1  25
TORSDOF 19
ENDMDL
MODEL 7
REMARK VINA RESULT:      -4.1      9.942     21.131
REMARK  Name = Deferoxamine.pdbqt.pdb
REMARK  19 active torsions:
REMARK  status: ('A' for Active; 'I' for Inactive)
REMARK    1  A    between atoms: C_1  and  C_2
REMARK    2  A    between atoms: C_3  and  C_4
REMARK    3  A    between atoms: C_4  and  N_5
REMARK    4  A    between atoms: C_6  and  C_9
REMARK    5  A    between atoms: C_10  and  C_11
REMARK    6  A    between atoms: N_13  and  O_14
REMARK    7  A    between atoms: N_13  and  C_16
REMARK    8  A    between atoms: C_17  and  C_18
REMARK    9  A    between atoms: C_19  and  C_20
REMARK   10  A    between atoms: C_20  and  N_21
REMARK   11  A    between atoms: C_24  and  N_25
REMARK   12  A    between atoms: N_25  and  O_28
REMARK   13  A    between atoms: C_26  and  C_30
REMARK   14  A    between atoms: C_31  and  C_32
REMARK   15  A    between atoms: N_34  and  C_36
REMARK   16  A    between atoms: C_37  and  C_38
REMARK   17  A    between atoms: C_38  and  C_39
REMARK   18  A    between atoms: C_40  and  N_41
REMARK   19  A    between atoms: N_41  and  O_45
REMARK                            x       y       z     vdW  Elec       q    Type
REMARK                         _______ _______ _______ _____ _____    ______ ____
ROOT
ATOM      1  C   UNL     1      61.714  36.398  75.869  0.00  0.00    +0.000 C 
ATOM      2  C   UNL     1      62.556  35.677  76.332  0.00  0.00    +0.000 C 
ENDROOT
BRANCH   2   3
ATOM      3  N   UNL     1      63.502  34.868  76.853  0.00  0.00    +0.000 N 
ATOM      4  C   UNL     1      64.882  34.980  76.859  0.00  0.00    +0.000 C 
ATOM      5  O   UNL     1      65.521  35.800  76.208  0.00  0.00    +0.000 OA
BRANCH   4   6
ATOM      6  C   UNL     1      65.624  34.036  77.668  0.00  0.00    +0.000 C 
ATOM      7  C   UNL     1      66.240  33.261  78.349  0.00  0.00    +0.000 C 
BRANCH   7   8
ATOM      8  C   UNL     1      66.989  32.349  79.178  0.00  0.00    +0.000 C 
ATOM      9  O   UNL     1      67.196  32.643  80.347  0.00  0.00    +0.000 OA
ATOM     10  N   UNL     1      67.412  31.199  78.550  0.00  0.00    +0.000 N 
ATOM     11  H   UNL     1      67.155  31.102  77.576  0.00  0.00    +0.000 HD
BRANCH  10  12
ATOM     12  C   UNL     1      68.125  30.168  79.053  0.00  0.00    +0.000 C 
ATOM     13  C   UNL     1      68.760  29.255  79.504  0.00  0.00    +0.000 C 
BRANCH  13  14
ATOM     14  C   UNL     1      69.570  28.094  80.089  0.00  0.00    +0.000 C 
BRANCH  14  15
ATOM     15  C   UNL     1      70.383  26.932  80.666  0.00  0.00    +0.000 C 
ATOM     16  C   UNL     1      71.021  26.019  81.115  0.00  0.00    +0.000 C 
BRANCH  16  17
ATOM     17  N   UNL     1      71.741  24.996  81.613  0.00  0.00    +0.000 N 
ATOM     18  C   UNL     1      71.439  24.057  82.572  0.00  0.00    +0.000 C 
ATOM     19  O   UNL     1      70.423  23.904  83.227  0.00  0.00    +0.000 OA
ATOM     20  C   UNL     1      72.468  23.014  82.931  0.00  0.00    +0.000 C 
BRANCH  17  21
ATOM     21  O   UNL     1      73.012  24.966  80.983  0.00  0.00    +0.000 OA
ATOM     22  H   UNL     1      73.263  25.912  80.946  0.00  0.00    +0.000 HD
ENDBRANCH  17  21
ENDBRANCH  16  17
ENDBRANCH  14  15
ENDBRANCH  13  14
ENDBRANCH  10  12
ENDBRANCH   7   8
ENDBRANCH   4   6
BRANCH   3  23
ATOM     23  O   UNL     1      62.913  34.018  77.815  0.00  0.00    +0.000 OA
ATOM     24  H   UNL     1      62.509  33.334  77.248  0.00  0.00    +0.000 HD
ENDBRANCH   3  23
ENDBRANCH   2   3
BRANCH   1  25
ATOM     25  C   UNL     1      60.643  37.327  75.291  0.00  0.00    +0.000 C 
ATOM     26  C   UNL     1      59.804  38.062  74.849  0.00  0.00    +0.000 C 
BRANCH  26  27
ATOM     27  C   UNL     1      58.732  39.007  74.298  0.00  0.00    +0.000 C 
BRANCH  27  28
ATOM     28  N   UNL     1      57.799  39.853  73.809  0.00  0.00    +0.000 N 
ATOM     29  C   UNL     1      56.429  39.773  73.890  0.00  0.00    +0.000 C 
ATOM     30  O   UNL     1      55.796  38.885  74.442  0.00  0.00    +0.000 OA
ATOM     31  H   UNL     1      58.178  40.657  73.324  0.00  0.00    +0.000 HD
BRANCH  29  32
ATOM     32  C   UNL     1      55.711  40.853  73.259  0.00  0.00    +0.000 C 
ATOM     33  C   UNL     1      55.120  41.767  72.751  0.00  0.00    +0.000 C 
BRANCH  33  34
ATOM     34  C   UNL     1      54.423  42.884  72.146  0.00  0.00    +0.000 C 
ATOM     35  O   UNL     1      53.202  42.926  72.267  0.00  0.00    +0.000 OA
ATOM     36  N   UNL     1      55.181  43.804  71.442  0.00  0.00    +0.000 N 
BRANCH  36  37
ATOM     37  C   UNL     1      54.845  44.995  70.905  0.00  0.00    +0.000 C 
ATOM     38  C   UNL     1      54.542  46.054  70.429  0.00  0.00    +0.000 C 
BRANCH  38  39
ATOM     39  C   UNL     1      54.149  47.404  69.819  0.00  0.00    +0.000 C 
ATOM     40  C   UNL     1      53.844  48.463  69.345  0.00  0.00    +0.000 C 
BRANCH  40  41
ATOM     41  C   UNL     1      53.457  49.817  68.744  0.00  0.00    +0.000 C 
BRANCH  41  42
ATOM     42  N   UNL     1      53.090  51.102  68.173  0.00  0.00    +0.000 NA
ATOM     43  H   UNL     1      52.272  51.004  67.574  0.00  0.00    +0.000 HD
ATOM     44  H   UNL     1      52.824  51.755  68.908  0.00  0.00    +0.000 HD
ENDBRANCH  41  42
ENDBRANCH  40  41
ENDBRANCH  38  39
ENDBRANCH  36  37
BRANCH  36  45
ATOM     45  O   UNL     1      56.586  43.728  71.575  0.00  0.00    +0.000 OA
ATOM     46  H   UNL     1      56.691  42.878  72.040  0.00  0.00    +0.000 HD
ENDBRANCH  36  45
ENDBRANCH  33  34
ENDBRANCH  29  32
ENDBRANCH  27  28
ENDBRANCH  26  27
ENDBRANCH   1  25
TORSDOF 19
ENDMDL
MODEL 8
REMARK VINA RESULT:      -4.1     22.136     25.582
REMARK  Name = Deferoxamine.pdbqt.pdb
REMARK  19 active torsions:
REMARK  status: ('A' for Active; 'I' for Inactive)
REMARK    1  A    between atoms: C_1  and  C_2
REMARK    2  A    between atoms: C_3  and  C_4
REMARK    3  A    between atoms: C_4  and  N_5
REMARK    4  A    between atoms: C_6  and  C_9
REMARK    5  A    between atoms: C_10  and  C_11
REMARK    6  A    between atoms: N_13  and  O_14
REMARK    7  A    between atoms: N_13  and  C_16
REMARK    8  A    between atoms: C_17  and  C_18
REMARK    9  A    between atoms: C_19  and  C_20
REMARK   10  A    between atoms: C_20  and  N_21
REMARK   11  A    between atoms: C_24  and  N_25
REMARK   12  A    between atoms: N_25  and  O_28
REMARK   13  A    between atoms: C_26  and  C_30
REMARK   14  A    between atoms: C_31  and  C_32
REMARK   15  A    between atoms: N_34  and  C_36
REMARK   16  A    between atoms: C_37  and  C_38
REMARK   17  A    between atoms: C_38  and  C_39
REMARK   18  A    between atoms: C_40  and  N_41
REMARK   19  A    between atoms: N_41  and  O_45
REMARK                            x       y       z     vdW  Elec       q    Type
REMARK                         _______ _______ _______ _____ _____    ______ ____
ROOT
ATOM      1  C   UNL     1      44.456  24.065  70.355  0.00  0.00    +0.000 C 
ATOM      2  C   UNL     1      43.374  24.364  70.784  0.00  0.00    +0.000 C 
ENDROOT
BRANCH   2   3
ATOM      3  N   UNL     1      42.159  24.698  71.265  0.00  0.00    +0.000 N 
ATOM      4  C   UNL     1      41.426  24.168  72.313  0.00  0.00    +0.000 C 
ATOM      5  O   UNL     1      41.705  23.134  72.911  0.00  0.00    +0.000 OA
BRANCH   4   6
ATOM      6  C   UNL     1      40.222  24.870  72.707  0.00  0.00    +0.000 C 
ATOM      7  C   UNL     1      39.218  25.450  73.021  0.00  0.00    +0.000 C 
BRANCH   7   8
ATOM      8  C   UNL     1      38.010  26.154  73.376  0.00  0.00    +0.000 C 
ATOM      9  O   UNL     1      37.175  26.373  72.510  0.00  0.00    +0.000 OA
ATOM     10  N   UNL     1      37.914  26.523  74.698  0.00  0.00    +0.000 N 
ATOM     11  H   UNL     1      38.691  26.263  75.292  0.00  0.00    +0.000 HD
BRANCH  10  12
ATOM     12  C   UNL     1      36.919  27.186  75.327  0.00  0.00    +0.000 C 
ATOM     13  C   UNL     1      36.033  27.769  75.888  0.00  0.00    +0.000 C 
BRANCH  13  14
ATOM     14  C   UNL     1      34.900  28.506  76.609  0.00  0.00    +0.000 C 
BRANCH  14  15
ATOM     15  C   UNL     1      33.772  29.240  77.339  0.00  0.00    +0.000 C 
ATOM     16  C   UNL     1      32.886  29.813  77.912  0.00  0.00    +0.000 C 
BRANCH  16  17
ATOM     17  N   UNL     1      31.893  30.452  78.560  0.00  0.00    +0.000 N 
ATOM     18  C   UNL     1      31.356  31.706  78.386  0.00  0.00    +0.000 C 
ATOM     19  O   UNL     1      31.642  32.577  77.584  0.00  0.00    +0.000 OA
ATOM     20  C   UNL     1      30.230  32.156  79.284  0.00  0.00    +0.000 C 
BRANCH  17  21
ATOM     21  O   UNL     1      31.380  29.608  79.579  0.00  0.00    +0.000 OA
ATOM     22  H   UNL     1      30.698  29.083  79.110  0.00  0.00    +0.000 HD
ENDBRANCH  17  21
ENDBRANCH  16  17
ENDBRANCH  14  15
ENDBRANCH  13  14
ENDBRANCH  10  12
ENDBRANCH   7   8
ENDBRANCH   4   6
BRANCH   3  23
ATOM     23  O   UNL     1      41.824  26.000  70.828  0.00  0.00    +0.000 OA
ATOM     24  H   UNL     1      40.929  26.105  71.201  0.00  0.00    +0.000 HD
ENDBRANCH   3  23
ENDBRANCH   2   3
BRANCH   1  25
ATOM     25  C   UNL     1      45.828  23.683  69.794  0.00  0.00    +0.000 C 
ATOM     26  C   UNL     1      46.898  23.384  69.341  0.00  0.00    +0.000 C 
BRANCH  26  27
ATOM     27  C   UNL     1      48.260  23.004  68.750  0.00  0.00    +0.000 C 
BRANCH  27  28
ATOM     28  N   UNL     1      49.451  22.660  68.215  0.00  0.00    +0.000 N 
ATOM     29  C   UNL     1      50.526  22.050  68.817  0.00  0.00    +0.000 C 
ATOM     30  O   UNL     1      50.588  21.702  69.987  0.00  0.00    +0.000 OA
ATOM     31  H   UNL     1      49.548  22.882  67.233  0.00  0.00    +0.000 HD
BRANCH  29  32
ATOM     32  C   UNL     1      51.661  21.815  67.958  0.00  0.00    +0.000 C 
ATOM     33  C   UNL     1      52.592  21.622  67.223  0.00  0.00    +0.000 C 
BRANCH  33  34
ATOM     34  C   UNL     1      53.705  21.405  66.323  0.00  0.00    +0.000 C 
ATOM     35  O   UNL     1      53.527  21.635  65.131  0.00  0.00    +0.000 OA
ATOM     36  N   UNL     1      54.881  20.916  66.868  0.00  0.00    +0.000 N 
BRANCH  36  37
ATOM     37  C   UNL     1      56.103  20.752  66.320  0.00  0.00    +0.000 C 
ATOM     38  C   UNL     1      57.189  20.606  65.831  0.00  0.00    +0.000 C 
BRANCH  38  39
ATOM     39  C   UNL     1      58.573  20.412  65.203  0.00  0.00    +0.000 C 
ATOM     40  C   UNL     1      59.656  20.265  64.708  0.00  0.00    +0.000 C 
BRANCH  40  41
ATOM     41  C   UNL     1      61.037  20.079  64.073  0.00  0.00    +0.000 C 
BRANCH  41  42
ATOM     42  N   UNL     1      62.348  19.903  63.471  0.00  0.00    +0.000 NA
ATOM     43  H   UNL     1      62.259  19.512  62.534  0.00  0.00    +0.000 HD
ATOM     44  H   UNL     1      62.811  20.803  63.357  0.00  0.00    +0.000 HD
ENDBRANCH  41  42
ENDBRANCH  40  41
ENDBRANCH  38  39
ENDBRANCH  36  37
BRANCH  36  45
ATOM     45  O   UNL     1      54.991  20.903  68.277  0.00  0.00    +0.000 OA
ATOM     46  H   UNL     1      55.923  20.644  68.396  0.00  0.00    +0.000 HD
ENDBRANCH  36  45
ENDBRANCH  33  34
ENDBRANCH  29  32
ENDBRANCH  27  28
ENDBRANCH  26  27
ENDBRANCH   1  25
TORSDOF 19
ENDMDL
MODEL 9
REMARK VINA RESULT:      -4.1     23.438     30.271
REMARK  Name = Deferoxamine.pdbqt.pdb
REMARK  19 active torsions:
REMARK  status: ('A' for Active; 'I' for Inactive)
REMARK    1  A    between atoms: C_1  and  C_2
REMARK    2  A    between atoms: C_3  and  C_4
REMARK    3  A    between atoms: C_4  and  N_5
REMARK    4  A    between atoms: C_6  and  C_9
REMARK    5  A    between atoms: C_10  and  C_11
REMARK    6  A    between atoms: N_13  and  O_14
REMARK    7  A    between atoms: N_13  and  C_16
REMARK    8  A    between atoms: C_17  and  C_18
REMARK    9  A    between atoms: C_19  and  C_20
REMARK   10  A    between atoms: C_20  and  N_21
REMARK   11  A    between atoms: C_24  and  N_25
REMARK   12  A    between atoms: N_25  and  O_28
REMARK   13  A    between atoms: C_26  and  C_30
REMARK   14  A    between atoms: C_31  and  C_32
REMARK   15  A    between atoms: N_34  and  C_36
REMARK   16  A    between atoms: C_37  and  C_38
REMARK   17  A    between atoms: C_38  and  C_39
REMARK   18  A    between atoms: C_40  and  N_41
REMARK   19  A    between atoms: N_41  and  O_45
REMARK                            x       y       z     vdW  Elec       q    Type
REMARK                         _______ _______ _______ _____ _____    ______ ____
ROOT
ATOM      1  C   UNL     1      37.206  23.417  83.749  0.00  0.00    +0.000 C 
ATOM      2  C   UNL     1      36.030  23.217  83.603  0.00  0.00    +0.000 C 
ENDROOT
BRANCH   2   3
ATOM      3  N   UNL     1      34.710  22.993  83.439  0.00  0.00    +0.000 N 
ATOM      4  C   UNL     1      33.984  22.670  82.305  0.00  0.00    +0.000 C 
ATOM      5  O   UNL     1      34.423  22.696  81.161  0.00  0.00    +0.000 OA
BRANCH   4   6
ATOM      6  C   UNL     1      32.593  22.307  82.485  0.00  0.00    +0.000 C 
ATOM      7  C   UNL     1      31.443  22.001  82.647  0.00  0.00    +0.000 C 
BRANCH   7   8
ATOM      8  C   UNL     1      30.069  21.613  82.852  0.00  0.00    +0.000 C 
ATOM      9  O   UNL     1      29.225  21.969  82.042  0.00  0.00    +0.000 OA
ATOM     10  N   UNL     1      29.836  20.854  83.976  0.00  0.00    +0.000 N 
ATOM     11  H   UNL     1      30.644  20.638  84.545  0.00  0.00    +0.000 HD
BRANCH  10  12
ATOM     12  C   UNL     1      28.671  20.346  84.433  0.00  0.00    +0.000 C 
ATOM     13  C   UNL     1      27.636  19.898  84.844  0.00  0.00    +0.000 C 
BRANCH  13  14
ATOM     14  C   UNL     1      26.314  19.333  85.374  0.00  0.00    +0.000 C 
BRANCH  14  15
ATOM     15  C   UNL     1      24.993  18.775  85.910  0.00  0.00    +0.000 C 
ATOM     16  C   UNL     1      23.956  18.336  86.327  0.00  0.00    +0.000 C 
BRANCH  16  17
ATOM     17  N   UNL     1      22.795  17.837  86.792  0.00  0.00    +0.000 N 
ATOM     18  C   UNL     1      22.268  17.800  88.062  0.00  0.00    +0.000 C 
ATOM     19  O   UNL     1      22.723  18.219  89.112  0.00  0.00    +0.000 OA
ATOM     20  C   UNL     1      20.920  17.159  88.282  0.00  0.00    +0.000 C 
BRANCH  17  21
ATOM     21  O   UNL     1      22.062  17.274  85.716  0.00  0.00    +0.000 OA
ATOM     22  H   UNL     1      21.457  16.646  86.164  0.00  0.00    +0.000 HD
ENDBRANCH  17  21
ENDBRANCH  16  17
ENDBRANCH  14  15
ENDBRANCH  13  14
ENDBRANCH  10  12
ENDBRANCH   7   8
ENDBRANCH   4   6
BRANCH   3  23
ATOM     23  O   UNL     1      34.123  22.708  84.692  0.00  0.00    +0.000 OA
ATOM     24  H   UNL     1      33.444  23.405  84.751  0.00  0.00    +0.000 HD
ENDBRANCH   3  23
ENDBRANCH   2   3
BRANCH   1  25
ATOM     25  C   UNL     1      38.701  23.688  83.934  0.00  0.00    +0.000 C 
ATOM     26  C   UNL     1      39.876  23.888  84.073  0.00  0.00    +0.000 C 
BRANCH  26  27
ATOM     27  C   UNL     1      41.379  24.132  84.243  0.00  0.00    +0.000 C 
BRANCH  27  28
ATOM     28  N   UNL     1      42.706  24.346  84.375  0.00  0.00    +0.000 N 
ATOM     29  C   UNL     1      43.495  25.293  83.767  0.00  0.00    +0.000 C 
ATOM     30  O   UNL     1      43.113  26.138  82.969  0.00  0.00    +0.000 OA
ATOM     31  H   UNL     1      43.168  23.717  85.020  0.00  0.00    +0.000 HD
BRANCH  29  32
ATOM     32  C   UNL     1      44.891  25.256  84.129  0.00  0.00    +0.000 C 
ATOM     33  C   UNL     1      46.055  25.203  84.423  0.00  0.00    +0.000 C 
BRANCH  33  34
ATOM     34  C   UNL     1      47.461  25.123  84.761  0.00  0.00    +0.000 C 
ATOM     35  O   UNL     1      48.062  26.176  84.952  0.00  0.00    +0.000 OA
ATOM     36  N   UNL     1      48.036  23.864  84.808  0.00  0.00    +0.000 N 
BRANCH  36  37
ATOM     37  C   UNL     1      49.256  23.469  85.224  0.00  0.00    +0.000 C 
ATOM     38  C   UNL     1      50.344  23.120  85.594  0.00  0.00    +0.000 C 
BRANCH  38  39
ATOM     39  C   UNL     1      51.735  22.680  86.062  0.00  0.00    +0.000 C 
ATOM     40  C   UNL     1      52.824  22.333  86.424  0.00  0.00    +0.000 C 
BRANCH  40  41
ATOM     41  C   UNL     1      54.216  21.888  86.882  0.00  0.00    +0.000 C 
BRANCH  41  42
ATOM     42  N   UNL     1      55.537  21.466  87.317  0.00  0.00    +0.000 NA
ATOM     43  H   UNL     1      56.101  21.181  86.518  0.00  0.00    +0.000 HD
ATOM     44  H   UNL     1      56.034  22.243  87.750  0.00  0.00    +0.000 HD
ENDBRANCH  41  42
ENDBRANCH  40  41
ENDBRANCH  38  39
ENDBRANCH  36  37
BRANCH  36  45
ATOM     45  O   UNL     1      47.167  22.749  84.771  0.00  0.00    +0.000 OA
ATOM     46  H   UNL     1      47.513  22.260  84.002  0.00  0.00    +0.000 HD
ENDBRANCH  36  45
ENDBRANCH  33  34
ENDBRANCH  29  32
ENDBRANCH  27  28
ENDBRANCH  26  27
ENDBRANCH   1  25
TORSDOF 19
ENDMDL
