MODEL 1
REMARK VINA RESULT:      -5.7      0.000      0.000
REMARK  Name = 
REMARK  25 active torsions:
REMARK  status: ('A' for Active; 'I' for Inactive)
REMARK    1  A    between atoms: O_2  and  C_17
REMARK    2  A    between atoms: O_2  and  C_36
REMARK    3  A    between atoms: O_3  and  C_20
REMARK    4  A    between atoms: O_3  and  C_37
REMARK    5  A    between atoms: O_4  and  C_21
REMARK    6  A    between atoms: O_5  and  C_22
REMARK    7  A    between atoms: O_7  and  C_30
REMARK    8  A    between atoms: O_8  and  C_31
REMARK    9  A    between atoms: O_8  and  C_39
REMARK   10  A    between atoms: O_12  and  C_41
REMARK   11  A    between atoms: O_13  and  C_51
REMARK   12  A    between atoms: O_13  and  C_55
REMARK   13  A    between atoms: N_15  and  C_44
REMARK   14  A    between atoms: C_18  and  C_29
REMARK   15  A    between atoms: C_24  and  C_33
REMARK   16  A    between atoms: C_24  and  C_34
REMARK   17  A    between atoms: C_32  and  C_35
REMARK   18  A    between atoms: C_36  and  C_38
REMARK   19  A    between atoms: C_37  and  C_40
REMARK   20  A    between atoms: C_39  and  C_41
REMARK   21  A    between atoms: C_41  and  C_44
REMARK   22  A    between atoms: C_44  and  C_48
REMARK   23  A    between atoms: C_55  and  C_56
REMARK   24  A    between atoms: C_55  and  C_57
REMARK   25  A    between atoms: C_55  and  C_58
REMARK                            x       y       z     vdW  Elec       q    Type
REMARK                         _______ _______ _______ _____ _____    ______ ____
ROOT
ATOM      1  O   UNL     1      42.621  37.559  90.369  0.00  0.00    +0.000 OA
ATOM      2  O   UNL     1      40.429  41.517  85.400  0.00  0.00    +0.000 OA
ATOM      3  C   UNL     1      42.296  37.849  86.954  0.00  0.00    +0.000 C 
ATOM      4  C   UNL     1      43.093  37.737  88.287  0.00  0.00    +0.000 C 
ATOM      5  C   UNL     1      41.935  39.692  86.677  0.00  0.00    +0.000 C 
ATOM      6  C   UNL     1      41.925  38.186  89.257  0.00  0.00    +0.000 C 
ATOM      7  C   UNL     1      43.010  36.766  85.615  0.00  0.00    +0.000 C 
ATOM      8  C   UNL     1      42.769  36.310  83.793  0.00  0.00    +0.000 C 
ATOM      9  C   UNL     1      41.059  40.097  87.934  0.00  0.00    +0.000 C 
ATOM     10  C   UNL     1      41.637  39.671  89.318  0.00  0.00    +0.000 C 
ATOM     11  C   UNL     1      41.764  37.118  82.573  0.00  0.00    +0.000 C 
ATOM     12  C   UNL     1      43.123  36.586  89.370  0.00  0.00    +0.000 C 
ATOM     13  C   UNL     1      41.127  40.503  85.183  0.00  0.00    +0.000 C 
ATOM     14  C   UNL     1      44.210  36.473  83.122  0.00  0.00    +0.000 C 
ATOM     15  C   UNL     1      42.093  38.681  82.479  0.00  0.00    +0.000 C 
ATOM     16  C   UNL     1      43.233  40.590  86.834  0.00  0.00    +0.000 C 
ATOM     17  C   UNL     1      41.228  39.987  83.338  0.00  0.00    +0.000 C 
ATOM     18  C   UNL     1      44.532  37.841  82.364  0.00  0.00    +0.000 C 
ATOM     19  C   UNL     1      43.401  38.902  82.117  0.00  0.00    +0.000 C 
ATOM     20  C   UNL     1      42.147  36.475  81.146  0.00  0.00    +0.000 C 
ATOM     21  C   UNL     1      40.246  36.764  82.476  0.00  0.00    +0.000 C 
ATOM     22  C   UNL     1      43.910  40.264  81.714  0.00  0.00    +0.000 C 
ENDROOT
BRANCH  17  23
ATOM     23  O   UNL     1      39.973  40.095  82.666  0.00  0.00    +0.000 OA
ATOM     24  H   UNL     1      39.814  39.211  82.285  0.00  0.00    +0.000 HD
ENDBRANCH  17  23
BRANCH   9  25
ATOM     25  O   UNL     1      39.777  39.479  87.814  0.00  0.00    +0.000 OA
ATOM     26  H   UNL     1      39.261  40.013  87.183  0.00  0.00    +0.000 HD
ENDBRANCH   9  25
BRANCH   8  27
ATOM     27  O   UNL     1      42.477  34.898  83.808  0.00  0.00    +0.000 OA
ATOM     28  H   UNL     1      42.366  34.586  82.892  0.00  0.00    +0.000 HD
ENDBRANCH   8  27
BRANCH  18  29
ATOM     29  O   UNL     1      45.587  38.517  83.107  0.00  0.00    +0.000 OA
BRANCH  29  31
ATOM     30  O   UNL     1      47.608  39.505  82.904  0.00  0.00    +0.000 OA
ATOM     31  C   UNL     1      46.777  38.708  82.483  0.00  0.00    +0.000 C 
BRANCH  31  32
ATOM     32  C   UNL     1      46.930  37.987  81.139  0.00  0.00    +0.000 C 
BRANCH  32  33
ATOM     33  O   UNL     1      48.164  37.281  80.956  0.00  0.00    +0.000 OA
ATOM     34  H   UNL     1      48.181  36.587  81.642  0.00  0.00    +0.000 HD
ENDBRANCH  32  33
BRANCH  32  35
ATOM     35  C   UNL     1      46.687  39.013  80.000  0.00  0.00    +0.000 C 
BRANCH  35  36
ATOM     36  C   UNL     1      46.082  38.375  78.754  0.00  0.00    +0.000 A 
ATOM     37  C   UNL     1      44.721  38.029  78.745  0.00  0.00    +0.000 A 
ATOM     38  C   UNL     1      46.837  38.155  77.590  0.00  0.00    +0.000 A 
ATOM     39  C   UNL     1      44.138  37.454  77.613  0.00  0.00    +0.000 A 
ATOM     40  C   UNL     1      46.252  37.579  76.461  0.00  0.00    +0.000 A 
ATOM     41  C   UNL     1      44.904  37.226  76.474  0.00  0.00    +0.000 A 
ENDBRANCH  35  36
BRANCH  35  43
ATOM     42  O   UNL     1      47.385  41.766  80.434  0.00  0.00    +0.000 OA
ATOM     43  N   UNL     1      47.918  39.696  79.626  0.00  0.00    +0.000 N 
ATOM     44  C   UNL     1      48.107  41.030  79.783  0.00  0.00    +0.000 C 
ATOM     45  H   UNL     1      48.527  39.233  78.964  0.00  0.00    +0.000 HD
BRANCH  44  46
ATOM     46  O   UNL     1      49.231  41.387  79.126  0.00  0.00    +0.000 OA
BRANCH  46  47
ATOM     47  C   UNL     1      50.411  41.815  79.853  0.00  0.00    +0.000 C 
ATOM     48  C   UNL     1      50.571  41.041  81.166  0.00  0.00    +0.000 C 
ATOM     49  C   UNL     1      51.587  41.463  78.929  0.00  0.00    +0.000 C 
ATOM     50  C   UNL     1      50.403  43.331  80.080  0.00  0.00    +0.000 C 
ENDBRANCH  46  47
ENDBRANCH  44  46
ENDBRANCH  35  43
ENDBRANCH  32  35
ENDBRANCH  31  32
ENDBRANCH  29  31
ENDBRANCH  18  29
BRANCH   7  51
ATOM     51  O   UNL     1      43.686  37.831  85.236  0.00  0.00    +0.000 OA
BRANCH  51  53
ATOM     52  O   UNL     1      44.480  36.157  86.008  0.00  0.00    +0.000 OA
ATOM     53  C   UNL     1      44.856  37.283  85.703  0.00  0.00    +0.000 C 
BRANCH  53  54
ATOM     54  C   UNL     1      46.457  38.285  86.025  0.00  0.00    +0.000 A 
ATOM     55  C   UNL     1      46.543  39.744  86.097  0.00  0.00    +0.000 A 
ATOM     56  C   UNL     1      47.746  37.776  86.369  0.00  0.00    +0.000 A 
ATOM     57  C   UNL     1      47.679  40.522  86.437  0.00  0.00    +0.000 A 
ATOM     58  C   UNL     1      48.899  38.541  86.714  0.00  0.00    +0.000 A 
ATOM     59  C   UNL     1      48.868  39.914  86.749  0.00  0.00    +0.000 A 
ENDBRANCH  53  54
ENDBRANCH  51  53
ENDBRANCH   7  51
BRANCH   4  60
ATOM     60  O   UNL     1      44.252  38.602  88.311  0.00  0.00    +0.000 OA
BRANCH  60  62
ATOM     61  O   UNL     1      45.927  37.502  89.307  0.00  0.00    +0.000 OA
ATOM     62  C   UNL     1      45.243  38.520  89.230  0.00  0.00    +0.000 C 
ATOM     63  C   UNL     1      45.411  39.632  90.217  0.00  0.00    +0.000 C 
ENDBRANCH  60  62
ENDBRANCH   4  60
TORSDOF 17
ENDMDL
MODEL 2
REMARK VINA RESULT:      -5.6     28.123     32.296
REMARK  Name = 
REMARK  25 active torsions:
REMARK  status: ('A' for Active; 'I' for Inactive)
REMARK    1  A    between atoms: O_2  and  C_17
REMARK    2  A    between atoms: O_2  and  C_36
REMARK    3  A    between atoms: O_3  and  C_20
REMARK    4  A    between atoms: O_3  and  C_37
REMARK    5  A    between atoms: O_4  and  C_21
REMARK    6  A    between atoms: O_5  and  C_22
REMARK    7  A    between atoms: O_7  and  C_30
REMARK    8  A    between atoms: O_8  and  C_31
REMARK    9  A    between atoms: O_8  and  C_39
REMARK   10  A    between atoms: O_12  and  C_41
REMARK   11  A    between atoms: O_13  and  C_51
REMARK   12  A    between atoms: O_13  and  C_55
REMARK   13  A    between atoms: N_15  and  C_44
REMARK   14  A    between atoms: C_18  and  C_29
REMARK   15  A    between atoms: C_24  and  C_33
REMARK   16  A    between atoms: C_24  and  C_34
REMARK   17  A    between atoms: C_32  and  C_35
REMARK   18  A    between atoms: C_36  and  C_38
REMARK   19  A    between atoms: C_37  and  C_40
REMARK   20  A    between atoms: C_39  and  C_41
REMARK   21  A    between atoms: C_41  and  C_44
REMARK   22  A    between atoms: C_44  and  C_48
REMARK   23  A    between atoms: C_55  and  C_56
REMARK   24  A    between atoms: C_55  and  C_57
REMARK   25  A    between atoms: C_55  and  C_58
REMARK                            x       y       z     vdW  Elec       q    Type
REMARK                         _______ _______ _______ _____ _____    ______ ____
ROOT
ATOM      1  O   UNL     1      17.211  21.174  91.366  0.00  0.00    +0.000 OA
ATOM      2  O   UNL     1      15.037  20.432  85.051  0.00  0.00    +0.000 OA
ATOM      3  C   UNL     1      17.346  19.164  88.573  0.00  0.00    +0.000 C 
ATOM      4  C   UNL     1      17.942  20.116  89.652  0.00  0.00    +0.000 C 
ATOM      5  C   UNL     1      16.671  20.260  87.180  0.00  0.00    +0.000 C 
ATOM      6  C   UNL     1      16.577  20.766  90.123  0.00  0.00    +0.000 C 
ATOM      7  C   UNL     1      18.453  17.702  88.238  0.00  0.00    +0.000 C 
ATOM      8  C   UNL     1      18.581  16.162  87.143  0.00  0.00    +0.000 C 
ATOM      9  C   UNL     1      15.554  21.131  87.892  0.00  0.00    +0.000 C 
ATOM     10  C   UNL     1      15.993  21.828  89.216  0.00  0.00    +0.000 C 
ATOM     11  C   UNL     1      17.628  15.743  85.705  0.00  0.00    +0.000 C 
ATOM     12  C   UNL     1      18.040  19.953  91.222  0.00  0.00    +0.000 C 
ATOM     13  C   UNL     1      15.948  19.721  85.528  0.00  0.00    +0.000 C 
ATOM     14  C   UNL     1      20.044  16.219  86.503  0.00  0.00    +0.000 C 
ATOM     15  C   UNL     1      17.649  16.920  84.621  0.00  0.00    +0.000 C 
ATOM     16  C   UNL     1      17.725  21.344  86.700  0.00  0.00    +0.000 C 
ATOM     17  C   UNL     1      16.423  18.207  84.448  0.00  0.00    +0.000 C 
ATOM     18  C   UNL     1      20.196  16.833  85.037  0.00  0.00    +0.000 C 
ATOM     19  C   UNL     1      18.925  17.181  84.181  0.00  0.00    +0.000 C 
ATOM     20  C   UNL     1      18.339  14.469  85.023  0.00  0.00    +0.000 C 
ATOM     21  C   UNL     1      16.243  15.044  85.883  0.00  0.00    +0.000 C 
ATOM     22  C   UNL     1      19.207  18.059  82.987  0.00  0.00    +0.000 C 
ENDROOT
BRANCH  17  23
ATOM     23  O   UNL     1      15.286  17.554  83.885  0.00  0.00    +0.000 OA
ATOM     24  H   UNL     1      14.595  18.242  83.844  0.00  0.00    +0.000 HD
ENDBRANCH  17  23
BRANCH   9  25
ATOM     25  O   UNL     1      14.453  20.281  88.219  0.00  0.00    +0.000 OA
ATOM     26  H   UNL     1      14.645  19.406  87.837  0.00  0.00    +0.000 HD
ENDBRANCH   9  25
BRANCH   8  27
ATOM     27  O   UNL     1      18.578  15.057  88.069  0.00  0.00    +0.000 OA
ATOM     28  H   UNL     1      17.775  14.526  87.928  0.00  0.00    +0.000 HD
ENDBRANCH   8  27
BRANCH  18  29
ATOM     29  O   UNL     1      20.973  18.060  85.152  0.00  0.00    +0.000 OA
BRANCH  29  31
ATOM     30  O   UNL     1      22.734  17.850  83.754  0.00  0.00    +0.000 OA
ATOM     31  C   UNL     1      22.303  17.993  84.893  0.00  0.00    +0.000 C 
BRANCH  31  32
ATOM     32  C   UNL     1      23.206  17.941  86.131  0.00  0.00    +0.000 C 
BRANCH  32  33
ATOM     33  O   UNL     1      23.498  19.207  86.733  0.00  0.00    +0.000 OA
ATOM     34  H   UNL     1      24.373  19.109  87.153  0.00  0.00    +0.000 HD
ENDBRANCH  32  33
BRANCH  32  35
ATOM     35  C   UNL     1      24.503  17.173  85.760  0.00  0.00    +0.000 C 
BRANCH  35  36
ATOM     36  C   UNL     1      24.454  15.705  86.170  0.00  0.00    +0.000 A 
ATOM     37  C   UNL     1      24.920  15.324  87.439  0.00  0.00    +0.000 A 
ATOM     38  C   UNL     1      23.919  14.716  85.328  0.00  0.00    +0.000 A 
ATOM     39  C   UNL     1      24.877  13.988  87.844  0.00  0.00    +0.000 A 
ATOM     40  C   UNL     1      23.878  13.381  85.736  0.00  0.00    +0.000 A 
ATOM     41  C   UNL     1      24.359  13.017  86.992  0.00  0.00    +0.000 A 
ENDBRANCH  35  36
BRANCH  35  43
ATOM     42  O   UNL     1      26.965  17.915  84.477  0.00  0.00    +0.000 OA
ATOM     43  N   UNL     1      25.677  17.790  86.362  0.00  0.00    +0.000 N 
ATOM     44  C   UNL     1      26.834  18.004  85.686  0.00  0.00    +0.000 C 
ATOM     45  H   UNL     1      25.743  17.783  87.371  0.00  0.00    +0.000 HD
BRANCH  44  46
ATOM     46  O   UNL     1      27.792  18.355  86.571  0.00  0.00    +0.000 OA
BRANCH  46  47
ATOM     47  C   UNL     1      28.945  17.502  86.792  0.00  0.00    +0.000 C 
ATOM     48  C   UNL     1      30.082  17.837  85.820  0.00  0.00    +0.000 C 
ATOM     49  C   UNL     1      29.406  17.833  88.219  0.00  0.00    +0.000 C 
ATOM     50  C   UNL     1      28.559  16.020  86.732  0.00  0.00    +0.000 C 
ENDBRANCH  46  47
ENDBRANCH  44  46
ENDBRANCH  35  43
ENDBRANCH  32  35
ENDBRANCH  31  32
ENDBRANCH  29  31
ENDBRANCH  18  29
BRANCH   7  51
ATOM     51  O   UNL     1      18.951  18.418  87.251  0.00  0.00    +0.000 OA
BRANCH  51  53
ATOM     52  O   UNL     1      20.529  19.653  87.375  0.00  0.00    +0.000 OA
ATOM     53  C   UNL     1      20.078  18.690  87.987  0.00  0.00    +0.000 C 
BRANCH  53  54
ATOM     54  C   UNL     1      20.766  17.546  89.361  0.00  0.00    +0.000 A 
ATOM     55  C   UNL     1      22.150  17.083  89.463  0.00  0.00    +0.000 A 
ATOM     56  C   UNL     1      20.089  17.093  90.535  0.00  0.00    +0.000 A 
ATOM     57  C   UNL     1      22.728  16.326  90.515  0.00  0.00    +0.000 A 
ATOM     58  C   UNL     1      20.652  16.333  91.602  0.00  0.00    +0.000 A 
ATOM     59  C   UNL     1      21.971  15.949  91.594  0.00  0.00    +0.000 A 
ENDBRANCH  53  54
ENDBRANCH  51  53
ENDBRANCH   7  51
BRANCH   4  60
ATOM     60  O   UNL     1      18.889  21.057  89.095  0.00  0.00    +0.000 OA
BRANCH  60  62
ATOM     61  O   UNL     1      20.737  21.144  90.354  0.00  0.00    +0.000 OA
ATOM     62  C   UNL     1      19.801  21.740  89.825  0.00  0.00    +0.000 C 
ATOM     63  C   UNL     1      19.586  23.200  90.074  0.00  0.00    +0.000 C 
ENDBRANCH  60  62
ENDBRANCH   4  60
TORSDOF 17
ENDMDL
MODEL 3
REMARK VINA RESULT:      -5.5     11.788     15.419
REMARK  Name = 
REMARK  25 active torsions:
REMARK  status: ('A' for Active; 'I' for Inactive)
REMARK    1  A    between atoms: O_2  and  C_17
REMARK    2  A    between atoms: O_2  and  C_36
REMARK    3  A    between atoms: O_3  and  C_20
REMARK    4  A    between atoms: O_3  and  C_37
REMARK    5  A    between atoms: O_4  and  C_21
REMARK    6  A    between atoms: O_5  and  C_22
REMARK    7  A    between atoms: O_7  and  C_30
REMARK    8  A    between atoms: O_8  and  C_31
REMARK    9  A    between atoms: O_8  and  C_39
REMARK   10  A    between atoms: O_12  and  C_41
REMARK   11  A    between atoms: O_13  and  C_51
REMARK   12  A    between atoms: O_13  and  C_55
REMARK   13  A    between atoms: N_15  and  C_44
REMARK   14  A    between atoms: C_18  and  C_29
REMARK   15  A    between atoms: C_24  and  C_33
REMARK   16  A    between atoms: C_24  and  C_34
REMARK   17  A    between atoms: C_32  and  C_35
REMARK   18  A    between atoms: C_36  and  C_38
REMARK   19  A    between atoms: C_37  and  C_40
REMARK   20  A    between atoms: C_39  and  C_41
REMARK   21  A    between atoms: C_41  and  C_44
REMARK   22  A    between atoms: C_44  and  C_48
REMARK   23  A    between atoms: C_55  and  C_56
REMARK   24  A    between atoms: C_55  and  C_57
REMARK   25  A    between atoms: C_55  and  C_58
REMARK                            x       y       z     vdW  Elec       q    Type
REMARK                         _______ _______ _______ _____ _____    ______ ____
ROOT
ATOM      1  O   UNL     1      43.064  23.043  82.597  0.00  0.00    +0.000 OA
ATOM      2  O   UNL     1      41.613  23.524  89.141  0.00  0.00    +0.000 OA
ATOM      3  C   UNL     1      43.598  24.883  85.458  0.00  0.00    +0.000 C 
ATOM      4  C   UNL     1      44.027  23.968  84.274  0.00  0.00    +0.000 C 
ATOM      5  C   UNL     1      43.019  23.742  86.859  0.00  0.00    +0.000 C 
ATOM      6  C   UNL     1      42.588  23.408  83.921  0.00  0.00    +0.000 C 
ATOM      7  C   UNL     1      44.808  26.271  85.746  0.00  0.00    +0.000 C 
ATOM      8  C   UNL     1      45.131  27.740  86.898  0.00  0.00    +0.000 C 
ATOM      9  C   UNL     1      41.789  22.965  86.228  0.00  0.00    +0.000 C 
ATOM     10  C   UNL     1      42.049  22.324  84.830  0.00  0.00    +0.000 C 
ATOM     11  C   UNL     1      44.359  28.120  88.451  0.00  0.00    +0.000 C 
ATOM     12  C   UNL     1      43.966  24.214  82.713  0.00  0.00    +0.000 C 
ATOM     13  C   UNL     1      42.504  24.219  88.605  0.00  0.00    +0.000 C 
ATOM     14  C   UNL     1      46.649  27.580  87.372  0.00  0.00    +0.000 C 
ATOM     15  C   UNL     1      44.433  26.884  89.465  0.00  0.00    +0.000 C 
ATOM     16  C   UNL     1      44.060  22.585  87.165  0.00  0.00    +0.000 C 
ATOM     17  C   UNL     1      43.168  25.646  89.703  0.00  0.00    +0.000 C 
ATOM     18  C   UNL     1      46.923  26.877  88.779  0.00  0.00    +0.000 C 
ATOM     19  C   UNL     1      45.734  26.541  89.749  0.00  0.00    +0.000 C 
ATOM     20  C   UNL     1      45.202  29.320  89.116  0.00  0.00    +0.000 C 
ATOM     21  C   UNL     1      43.000  28.890  88.460  0.00  0.00    +0.000 C 
ATOM     22  C   UNL     1      46.095  25.584  90.859  0.00  0.00    +0.000 C 
ENDROOT
BRANCH  17  23
ATOM     23  O   UNL     1      42.132  26.318  90.419  0.00  0.00    +0.000 OA
ATOM     24  H   UNL     1      42.292  26.100  91.357  0.00  0.00    +0.000 HD
ENDBRANCH  17  23
BRANCH   9  25
ATOM     25  O   UNL     1      40.705  23.881  86.067  0.00  0.00    +0.000 OA
ATOM     26  H   UNL     1      39.935  23.362  85.772  0.00  0.00    +0.000 HD
ENDBRANCH   9  25
BRANCH   8  27
ATOM     27  O   UNL     1      45.087  28.894  86.036  0.00  0.00    +0.000 OA
ATOM     28  H   UNL     1      44.722  29.649  86.532  0.00  0.00    +0.000 HD
ENDBRANCH   8  27
BRANCH  18  29
ATOM     29  O   UNL     1      47.619  25.624  88.518  0.00  0.00    +0.000 OA
BRANCH  29  31
ATOM     30  O   UNL     1      49.424  24.574  89.377  0.00  0.00    +0.000 OA
ATOM     31  C   UNL     1      48.938  25.557  88.829  0.00  0.00    +0.000 C 
BRANCH  31  32
ATOM     32  C   UNL     1      49.728  26.850  88.598  0.00  0.00    +0.000 C 
BRANCH  32  33
ATOM     33  O   UNL     1      50.633  26.829  87.488  0.00  0.00    +0.000 OA
ATOM     34  H   UNL     1      50.307  27.504  86.862  0.00  0.00    +0.000 HD
ENDBRANCH  32  33
BRANCH  32  35
ATOM     35  C   UNL     1      50.455  27.223  89.918  0.00  0.00    +0.000 C 
BRANCH  35  36
ATOM     36  C   UNL     1      49.497  27.711  90.999  0.00  0.00    +0.000 A 
ATOM     37  C   UNL     1      49.348  26.967  92.181  0.00  0.00    +0.000 A 
ATOM     38  C   UNL     1      48.778  28.911  90.868  0.00  0.00    +0.000 A 
ATOM     39  C   UNL     1      48.486  27.397  93.192  0.00  0.00    +0.000 A 
ATOM     40  C   UNL     1      47.915  29.338  91.880  0.00  0.00    +0.000 A 
ATOM     41  C   UNL     1      47.767  28.580  93.039  0.00  0.00    +0.000 A 
ENDBRANCH  35  36
BRANCH  35  43
ATOM     42  O   UNL     1      52.866  27.671  91.415  0.00  0.00    +0.000 OA
ATOM     43  N   UNL     1      51.471  28.243  89.697  0.00  0.00    +0.000 N 
ATOM     44  C   UNL     1      52.525  28.437  90.530  0.00  0.00    +0.000 C 
ATOM     45  H   UNL     1      51.234  29.015  89.089  0.00  0.00    +0.000 HD
BRANCH  44  46
ATOM     46  O   UNL     1      53.134  29.594  90.193  0.00  0.00    +0.000 OA
BRANCH  46  47
ATOM     47  C   UNL     1      52.704  30.854  90.770  0.00  0.00    +0.000 C 
ATOM     48  C   UNL     1      51.883  30.633  92.044  0.00  0.00    +0.000 C 
ATOM     49  C   UNL     1      54.008  31.574  91.145  0.00  0.00    +0.000 C 
ATOM     50  C   UNL     1      51.951  31.706  89.743  0.00  0.00    +0.000 C 
ENDBRANCH  46  47
ENDBRANCH  44  46
ENDBRANCH  35  43
ENDBRANCH  32  35
ENDBRANCH  31  32
ENDBRANCH  29  31
ENDBRANCH  18  29
BRANCH   7  51
ATOM     51  O   UNL     1      45.371  25.479  86.635  0.00  0.00    +0.000 OA
BRANCH  51  53
ATOM     52  O   UNL     1      46.192  26.069  84.901  0.00  0.00    +0.000 OA
ATOM     53  C   UNL     1      46.469  25.314  85.827  0.00  0.00    +0.000 C 
BRANCH  53  54
ATOM     54  C   UNL     1      47.803  23.964  86.090  0.00  0.00    +0.000 A 
ATOM     55  C   UNL     1      47.625  22.738  86.868  0.00  0.00    +0.000 A 
ATOM     56  C   UNL     1      49.090  23.882  85.475  0.00  0.00    +0.000 A 
ATOM     57  C   UNL     1      48.542  21.664  87.002  0.00  0.00    +0.000 A 
ATOM     58  C   UNL     1      50.025  22.813  85.598  0.00  0.00    +0.000 A 
ATOM     59  C   UNL     1      49.753  21.703  86.360  0.00  0.00    +0.000 A 
ENDBRANCH  53  54
ENDBRANCH  51  53
ENDBRANCH   7  51
BRANCH   4  60
ATOM     60  O   UNL     1      44.977  22.954  84.675  0.00  0.00    +0.000 OA
BRANCH  60  62
ATOM     61  O   UNL     1      46.581  22.905  83.116  0.00  0.00    +0.000 OA
ATOM     62  C   UNL     1      45.785  22.286  83.818  0.00  0.00    +0.000 C 
ATOM     63  C   UNL     1      45.608  20.809  83.657  0.00  0.00    +0.000 C 
ENDBRANCH  60  62
ENDBRANCH   4  60
TORSDOF 17
ENDMDL
MODEL 4
REMARK VINA RESULT:      -5.5     29.365     33.621
REMARK  Name = 
REMARK  25 active torsions:
REMARK  status: ('A' for Active; 'I' for Inactive)
REMARK    1  A    between atoms: O_2  and  C_17
REMARK    2  A    between atoms: O_2  and  C_36
REMARK    3  A    between atoms: O_3  and  C_20
REMARK    4  A    between atoms: O_3  and  C_37
REMARK    5  A    between atoms: O_4  and  C_21
REMARK    6  A    between atoms: O_5  and  C_22
REMARK    7  A    between atoms: O_7  and  C_30
REMARK    8  A    between atoms: O_8  and  C_31
REMARK    9  A    between atoms: O_8  and  C_39
REMARK   10  A    between atoms: O_12  and  C_41
REMARK   11  A    between atoms: O_13  and  C_51
REMARK   12  A    between atoms: O_13  and  C_55
REMARK   13  A    between atoms: N_15  and  C_44
REMARK   14  A    between atoms: C_18  and  C_29
REMARK   15  A    between atoms: C_24  and  C_33
REMARK   16  A    between atoms: C_24  and  C_34
REMARK   17  A    between atoms: C_32  and  C_35
REMARK   18  A    between atoms: C_36  and  C_38
REMARK   19  A    between atoms: C_37  and  C_40
REMARK   20  A    between atoms: C_39  and  C_41
REMARK   21  A    between atoms: C_41  and  C_44
REMARK   22  A    between atoms: C_44  and  C_48
REMARK   23  A    between atoms: C_55  and  C_56
REMARK   24  A    between atoms: C_55  and  C_57
REMARK   25  A    between atoms: C_55  and  C_58
REMARK                            x       y       z     vdW  Elec       q    Type
REMARK                         _______ _______ _______ _____ _____    ______ ____
ROOT
ATOM      1  O   UNL     1      21.494  18.045  93.601  0.00  0.00    +0.000 OA
ATOM      2  O   UNL     1      22.444  23.403  89.658  0.00  0.00    +0.000 OA
ATOM      3  C   UNL     1      19.963  20.227  91.421  0.00  0.00    +0.000 C 
ATOM      4  C   UNL     1      20.478  18.833  91.886  0.00  0.00    +0.000 C 
ATOM      5  C   UNL     1      21.405  21.082  90.531  0.00  0.00    +0.000 C 
ATOM      6  C   UNL     1      21.515  19.352  92.965  0.00  0.00    +0.000 C 
ATOM      7  C   UNL     1      18.256  20.132  90.678  0.00  0.00    +0.000 C 
ATOM      8  C   UNL     1      16.935  21.214  89.858  0.00  0.00    +0.000 C 
ATOM      9  C   UNL     1      22.521  21.200  91.651  0.00  0.00    +0.000 C 
ATOM     10  C   UNL     1      22.827  19.885  92.432  0.00  0.00    +0.000 C 
ATOM     11  C   UNL     1      17.089  22.871  89.239  0.00  0.00    +0.000 C 
ATOM     12  C   UNL     1      20.085  17.962  93.146  0.00  0.00    +0.000 C 
ATOM     13  C   UNL     1      21.392  22.729  89.620  0.00  0.00    +0.000 C 
ATOM     14  C   UNL     1      16.537  20.448  88.513  0.00  0.00    +0.000 C 
ATOM     15  C   UNL     1      18.309  23.006  88.212  0.00  0.00    +0.000 C 
ATOM     16  C   UNL     1      22.081  20.147  89.442  0.00  0.00    +0.000 C 
ATOM     17  C   UNL     1      19.967  23.532  88.618  0.00  0.00    +0.000 C 
ATOM     18  C   UNL     1      17.242  20.905  87.155  0.00  0.00    +0.000 C 
ATOM     19  C   UNL     1      18.140  22.193  87.116  0.00  0.00    +0.000 C 
ATOM     20  C   UNL     1      15.745  23.191  88.410  0.00  0.00    +0.000 C 
ATOM     21  C   UNL     1      16.930  24.072  90.224  0.00  0.00    +0.000 C 
ATOM     22  C   UNL     1      19.004  22.306  85.884  0.00  0.00    +0.000 C 
ENDROOT
BRANCH  17  23
ATOM     23  O   UNL     1      19.856  24.937  88.848  0.00  0.00    +0.000 OA
ATOM     24  H   UNL     1      20.182  25.070  89.758  0.00  0.00    +0.000 HD
ENDBRANCH  17  23
BRANCH   9  25
ATOM     25  O   UNL     1      22.099  22.164  92.616  0.00  0.00    +0.000 OA
ATOM     26  H   UNL     1      21.126  22.198  92.578  0.00  0.00    +0.000 HD
ENDBRANCH   9  25
BRANCH   8  27
ATOM     27  O   UNL     1      15.796  21.125  90.736  0.00  0.00    +0.000 OA
ATOM     28  H   UNL     1      16.008  21.565  91.579  0.00  0.00    +0.000 HD
ENDBRANCH   8  27
BRANCH  18  29
ATOM     29  O   UNL     1      18.072  19.800  86.696  0.00  0.00    +0.000 OA
BRANCH  29  31
ATOM     30  O   UNL     1      18.555  19.037  84.626  0.00  0.00    +0.000 OA
ATOM     31  C   UNL     1      17.738  19.202  85.525  0.00  0.00    +0.000 C 
BRANCH  31  32
ATOM     32  C   UNL     1      16.245  18.903  85.350  0.00  0.00    +0.000 C 
BRANCH  32  33
ATOM     33  O   UNL     1      15.860  17.540  85.564  0.00  0.00    +0.000 OA
ATOM     34  H   UNL     1      15.654  17.176  84.683  0.00  0.00    +0.000 HD
ENDBRANCH  32  33
BRANCH  32  35
ATOM     35  C   UNL     1      15.805  19.404  83.948  0.00  0.00    +0.000 C 
BRANCH  35  36
ATOM     36  C   UNL     1      15.827  20.925  83.835  0.00  0.00    +0.000 A 
ATOM     37  C   UNL     1      15.037  21.696  84.703  0.00  0.00    +0.000 A 
ATOM     38  C   UNL     1      16.647  21.589  82.907  0.00  0.00    +0.000 A 
ATOM     39  C   UNL     1      15.047  23.091  84.628  0.00  0.00    +0.000 A 
ATOM     40  C   UNL     1      16.654  22.984  82.834  0.00  0.00    +0.000 A 
ATOM     41  C   UNL     1      15.852  23.733  83.692  0.00  0.00    +0.000 A 
ENDBRANCH  35  36
BRANCH  35  43
ATOM     42  O   UNL     1      14.909  18.300  81.451  0.00  0.00    +0.000 OA
ATOM     43  N   UNL     1      14.472  18.928  83.605  0.00  0.00    +0.000 N 
ATOM     44  C   UNL     1      14.125  18.520  82.359  0.00  0.00    +0.000 C 
ATOM     45  H   UNL     1      13.711  19.186  84.220  0.00  0.00    +0.000 HD
BRANCH  44  46
ATOM     46  O   UNL     1      12.783  18.378  82.310  0.00  0.00    +0.000 OA
BRANCH  46  47
ATOM     47  C   UNL     1      11.952  19.392  81.688  0.00  0.00    +0.000 C 
ATOM     48  C   UNL     1      12.627  20.767  81.722  0.00  0.00    +0.000 C 
ATOM     49  C   UNL     1      11.823  18.944  80.224  0.00  0.00    +0.000 C 
ATOM     50  C   UNL     1      10.554  19.425  82.315  0.00  0.00    +0.000 C 
ENDBRANCH  46  47
ENDBRANCH  44  46
ENDBRANCH  35  43
ENDBRANCH  32  35
ENDBRANCH  31  32
ENDBRANCH  29  31
ENDBRANCH  18  29
BRANCH   7  51
ATOM     51  O   UNL     1      18.864  20.029  89.515  0.00  0.00    +0.000 OA
BRANCH  51  53
ATOM     52  O   UNL     1      17.871  18.561  90.457  0.00  0.00    +0.000 OA
ATOM     53  C   UNL     1      18.475  18.717  89.401  0.00  0.00    +0.000 C 
BRANCH  53  54
ATOM     54  C   UNL     1      19.101  17.526  88.037  0.00  0.00    +0.000 A 
ATOM     55  C   UNL     1      20.412  17.594  87.390  0.00  0.00    +0.000 A 
ATOM     56  C   UNL     1      18.461  16.343  87.555  0.00  0.00    +0.000 A 
ATOM     57  C   UNL     1      20.958  16.675  86.457  0.00  0.00    +0.000 A 
ATOM     58  C   UNL     1      18.993  15.409  86.619  0.00  0.00    +0.000 A 
ATOM     59  C   UNL     1      20.241  15.573  86.069  0.00  0.00    +0.000 A 
ENDBRANCH  53  54
ENDBRANCH  51  53
ENDBRANCH   7  51
BRANCH   4  60
ATOM     60  O   UNL     1      21.073  18.075  90.806  0.00  0.00    +0.000 OA
BRANCH  60  62
ATOM     61  O   UNL     1      20.254  15.993  90.787  0.00  0.00    +0.000 OA
ATOM     62  C   UNL     1      21.236  16.731  90.820  0.00  0.00    +0.000 C 
ATOM     63  C   UNL     1      22.611  16.169  90.994  0.00  0.00    +0.000 C 
ENDBRANCH  60  62
ENDBRANCH   4  60
TORSDOF 17
ENDMDL
MODEL 5
REMARK VINA RESULT:      -5.3     33.689     38.291
REMARK  Name = 
REMARK  25 active torsions:
REMARK  status: ('A' for Active; 'I' for Inactive)
REMARK    1  A    between atoms: O_2  and  C_17
REMARK    2  A    between atoms: O_2  and  C_36
REMARK    3  A    between atoms: O_3  and  C_20
REMARK    4  A    between atoms: O_3  and  C_37
REMARK    5  A    between atoms: O_4  and  C_21
REMARK    6  A    between atoms: O_5  and  C_22
REMARK    7  A    between atoms: O_7  and  C_30
REMARK    8  A    between atoms: O_8  and  C_31
REMARK    9  A    between atoms: O_8  and  C_39
REMARK   10  A    between atoms: O_12  and  C_41
REMARK   11  A    between atoms: O_13  and  C_51
REMARK   12  A    between atoms: O_13  and  C_55
REMARK   13  A    between atoms: N_15  and  C_44
REMARK   14  A    between atoms: C_18  and  C_29
REMARK   15  A    between atoms: C_24  and  C_33
REMARK   16  A    between atoms: C_24  and  C_34
REMARK   17  A    between atoms: C_32  and  C_35
REMARK   18  A    between atoms: C_36  and  C_38
REMARK   19  A    between atoms: C_37  and  C_40
REMARK   20  A    between atoms: C_39  and  C_41
REMARK   21  A    between atoms: C_41  and  C_44
REMARK   22  A    between atoms: C_44  and  C_48
REMARK   23  A    between atoms: C_55  and  C_56
REMARK   24  A    between atoms: C_55  and  C_57
REMARK   25  A    between atoms: C_55  and  C_58
REMARK                            x       y       z     vdW  Elec       q    Type
REMARK                         _______ _______ _______ _____ _____    ______ ____
ROOT
ATOM      1  O   UNL     1      23.582   4.712  99.736  0.00  0.00    +0.000 OA
ATOM      2  O   UNL     1      21.338   8.880 104.506  0.00  0.00    +0.000 OA
ATOM      3  C   UNL     1      22.385   7.882 100.351  0.00  0.00    +0.000 C 
ATOM      4  C   UNL     1      23.462   6.844  99.917  0.00  0.00    +0.000 C 
ATOM      5  C   UNL     1      22.530   8.074 102.234  0.00  0.00    +0.000 C 
ATOM      6  C   UNL     1      22.815   5.579 100.616  0.00  0.00    +0.000 C 
ATOM      7  C   UNL     1      22.324   9.351  99.206  0.00  0.00    +0.000 C 
ATOM      8  C   UNL     1      21.440  11.010  98.971  0.00  0.00    +0.000 C 
ATOM      9  C   UNL     1      22.218   6.622 102.786  0.00  0.00    +0.000 C 
ATOM     10  C   UNL     1      23.016   5.464 102.112  0.00  0.00    +0.000 C 
ATOM     11  C   UNL     1      20.416  11.892 100.122  0.00  0.00    +0.000 C 
ATOM     12  C   UNL     1      23.458   5.797  98.732  0.00  0.00    +0.000 C 
ATOM     13  C   UNL     1      21.606   9.276 103.350  0.00  0.00    +0.000 C 
ATOM     14  C   UNL     1      22.605  12.082  98.754  0.00  0.00    +0.000 C 
ATOM     15  C   UNL     1      21.156  12.109 101.524  0.00  0.00    +0.000 C 
ATOM     16  C   UNL     1      24.024   8.328 102.701  0.00  0.00    +0.000 C 
ATOM     17  C   UNL     1      21.010  11.057 102.960  0.00  0.00    +0.000 C 
ATOM     18  C   UNL     1      23.089  12.927 100.020  0.00  0.00    +0.000 C 
ATOM     19  C   UNL     1      22.307  12.847 101.380  0.00  0.00    +0.000 C 
ATOM     20  C   UNL     1      20.159  13.355  99.500  0.00  0.00    +0.000 C 
ATOM     21  C   UNL     1      18.902  11.525 100.234  0.00  0.00    +0.000 C 
ATOM     22  C   UNL     1      23.061  13.410 102.559  0.00  0.00    +0.000 C 
ENDROOT
BRANCH  17  23
ATOM     23  O   UNL     1      19.706  11.327 103.477  0.00  0.00    +0.000 OA
ATOM     24  H   UNL     1      19.114  11.284 102.703  0.00  0.00    +0.000 HD
ENDBRANCH  17  23
BRANCH   9  25
ATOM     25  O   UNL     1      20.832   6.343 102.579  0.00  0.00    +0.000 OA
ATOM     26  H   UNL     1      20.492   5.960 103.408  0.00  0.00    +0.000 HD
ENDBRANCH   9  25
BRANCH   8  27
ATOM     27  O   UNL     1      20.757  10.882  97.709  0.00  0.00    +0.000 OA
ATOM     28  H   UNL     1      19.821  11.124  97.827  0.00  0.00    +0.000 HD
ENDBRANCH   8  27
BRANCH  18  29
ATOM     29  O   UNL     1      24.466  12.545 100.304  0.00  0.00    +0.000 OA
BRANCH  29  31
ATOM     30  O   UNL     1      26.337  13.679 100.866  0.00  0.00    +0.000 OA
ATOM     31  C   UNL     1      25.438  13.459 100.061  0.00  0.00    +0.000 C 
BRANCH  31  32
ATOM     32  C   UNL     1      25.238  14.303  98.796  0.00  0.00    +0.000 C 
BRANCH  32  33
ATOM     33  O   UNL     1      26.060  13.944  97.680  0.00  0.00    +0.000 OA
ATOM     34  H   UNL     1      26.383  14.784  97.302  0.00  0.00    +0.000 HD
ENDBRANCH  32  33
BRANCH  32  35
ATOM     35  C   UNL     1      25.410  15.799  99.172  0.00  0.00    +0.000 C 
BRANCH  35  36
ATOM     36  C   UNL     1      24.275  16.318 100.048  0.00  0.00    +0.000 A 
ATOM     37  C   UNL     1      22.948  16.211  99.600  0.00  0.00    +0.000 A 
ATOM     38  C   UNL     1      24.510  16.873 101.318  0.00  0.00    +0.000 A 
ATOM     39  C   UNL     1      21.889  16.669 100.387  0.00  0.00    +0.000 A 
ATOM     40  C   UNL     1      23.449  17.330 102.102  0.00  0.00    +0.000 A 
ATOM     41  C   UNL     1      22.140  17.231 101.635  0.00  0.00    +0.000 A 
ENDBRANCH  35  36
BRANCH  35  43
ATOM     42  O   UNL     1      26.715  18.346  98.912  0.00  0.00    +0.000 OA
ATOM     43  N   UNL     1      25.509  16.638  97.986  0.00  0.00    +0.000 N 
ATOM     44  C   UNL     1      26.059  17.879  97.996  0.00  0.00    +0.000 C 
ATOM     45  H   UNL     1      24.892  16.429  97.212  0.00  0.00    +0.000 HD
BRANCH  44  46
ATOM     46  O   UNL     1      25.781  18.483  96.821  0.00  0.00    +0.000 OA
BRANCH  46  47
ATOM     47  C   UNL     1      24.716  19.464  96.726  0.00  0.00    +0.000 C 
ATOM     48  C   UNL     1      25.267  20.893  96.763  0.00  0.00    +0.000 C 
ATOM     49  C   UNL     1      24.082  19.218  95.349  0.00  0.00    +0.000 C 
ATOM     50  C   UNL     1      23.651  19.233  97.804  0.00  0.00    +0.000 C 
ENDBRANCH  46  47
ENDBRANCH  44  46
ENDBRANCH  35  43
ENDBRANCH  32  35
ENDBRANCH  31  32
ENDBRANCH  29  31
ENDBRANCH  18  29
BRANCH   7  51
ATOM     51  O   UNL     1      23.147   9.934 100.052  0.00  0.00    +0.000 OA
BRANCH  51  53
ATOM     52  O   UNL     1      23.601   9.343  98.188  0.00  0.00    +0.000 OA
ATOM     53  C   UNL     1      24.179   9.836  99.150  0.00  0.00    +0.000 C 
BRANCH  53  54
ATOM     54  C   UNL     1      26.020  10.131  99.590  0.00  0.00    +0.000 A 
ATOM     55  C   UNL     1      27.048  10.603  98.661  0.00  0.00    +0.000 A 
ATOM     56  C   UNL     1      26.626  10.070 100.882  0.00  0.00    +0.000 A 
ATOM     57  C   UNL     1      28.392  10.936  98.964  0.00  0.00    +0.000 A 
ATOM     58  C   UNL     1      27.974  10.400 101.206  0.00  0.00    +0.000 A 
ATOM     59  C   UNL     1      28.859  10.834 100.249  0.00  0.00    +0.000 A 
ENDBRANCH  53  54
ENDBRANCH  51  53
ENDBRANCH   7  51
BRANCH   4  60
ATOM     60  O   UNL     1      24.783   7.182 100.402  0.00  0.00    +0.000 OA
BRANCH  60  62
ATOM     61  O   UNL     1      26.426   5.730 100.843  0.00  0.00    +0.000 OA
ATOM     62  C   UNL     1      25.912   6.521 100.056  0.00  0.00    +0.000 C 
ATOM     63  C   UNL     1      26.581   6.857  98.761  0.00  0.00    +0.000 C 
ENDBRANCH  60  62
ENDBRANCH   4  60
TORSDOF 17
ENDMDL
MODEL 6
REMARK VINA RESULT:      -5.3     33.480     37.993
REMARK  Name = 
REMARK  25 active torsions:
REMARK  status: ('A' for Active; 'I' for Inactive)
REMARK    1  A    between atoms: O_2  and  C_17
REMARK    2  A    between atoms: O_2  and  C_36
REMARK    3  A    between atoms: O_3  and  C_20
REMARK    4  A    between atoms: O_3  and  C_37
REMARK    5  A    between atoms: O_4  and  C_21
REMARK    6  A    between atoms: O_5  and  C_22
REMARK    7  A    between atoms: O_7  and  C_30
REMARK    8  A    between atoms: O_8  and  C_31
REMARK    9  A    between atoms: O_8  and  C_39
REMARK   10  A    between atoms: O_12  and  C_41
REMARK   11  A    between atoms: O_13  and  C_51
REMARK   12  A    between atoms: O_13  and  C_55
REMARK   13  A    between atoms: N_15  and  C_44
REMARK   14  A    between atoms: C_18  and  C_29
REMARK   15  A    between atoms: C_24  and  C_33
REMARK   16  A    between atoms: C_24  and  C_34
REMARK   17  A    between atoms: C_32  and  C_35
REMARK   18  A    between atoms: C_36  and  C_38
REMARK   19  A    between atoms: C_37  and  C_40
REMARK   20  A    between atoms: C_39  and  C_41
REMARK   21  A    between atoms: C_41  and  C_44
REMARK   22  A    between atoms: C_44  and  C_48
REMARK   23  A    between atoms: C_55  and  C_56
REMARK   24  A    between atoms: C_55  and  C_57
REMARK   25  A    between atoms: C_55  and  C_58
REMARK                            x       y       z     vdW  Elec       q    Type
REMARK                         _______ _______ _______ _____ _____    ______ ____
ROOT
ATOM      1  O   UNL     1      23.644   4.762  99.737  0.00  0.00    +0.000 OA
ATOM      2  O   UNL     1      21.263   8.925 104.445  0.00  0.00    +0.000 OA
ATOM      3  C   UNL     1      22.388   7.916 100.313  0.00  0.00    +0.000 C 
ATOM      4  C   UNL     1      23.487   6.893  99.902  0.00  0.00    +0.000 C 
ATOM      5  C   UNL     1      22.501   8.124 102.196  0.00  0.00    +0.000 C 
ATOM      6  C   UNL     1      22.850   5.622 100.600  0.00  0.00    +0.000 C 
ATOM      7  C   UNL     1      22.319   9.377  99.157  0.00  0.00    +0.000 C 
ATOM      8  C   UNL     1      21.413  11.019  98.898  0.00  0.00    +0.000 C 
ATOM      9  C   UNL     1      22.204   6.670 102.754  0.00  0.00    +0.000 C 
ATOM     10  C   UNL     1      23.031   5.521 102.100  0.00  0.00    +0.000 C 
ATOM     11  C   UNL     1      20.358  11.892 100.027  0.00  0.00    +0.000 C 
ATOM     12  C   UNL     1      23.517   5.838  98.725  0.00  0.00    +0.000 C 
ATOM     13  C   UNL     1      21.541   9.318 103.291  0.00  0.00    +0.000 C 
ATOM     14  C   UNL     1      22.564  12.108  98.691  0.00  0.00    +0.000 C 
ATOM     15  C   UNL     1      21.074  12.131 101.439  0.00  0.00    +0.000 C 
ATOM     16  C   UNL     1      23.984   8.404 102.684  0.00  0.00    +0.000 C 
ATOM     17  C   UNL     1      20.923  11.087 102.880  0.00  0.00    +0.000 C 
ATOM     18  C   UNL     1      23.015  12.970  99.957  0.00  0.00    +0.000 C 
ATOM     19  C   UNL     1      22.215  12.887 101.306  0.00  0.00    +0.000 C 
ATOM     20  C   UNL     1      20.087  13.347  99.391  0.00  0.00    +0.000 C 
ATOM     21  C   UNL     1      18.848  11.502 100.120  0.00  0.00    +0.000 C 
ATOM     22  C   UNL     1      22.942  13.469 102.492  0.00  0.00    +0.000 C 
ENDROOT
BRANCH  17  23
ATOM     23  O   UNL     1      19.608  11.339 103.376  0.00  0.00    +0.000 OA
ATOM     24  H   UNL     1      19.009  11.038 102.667  0.00  0.00    +0.000 HD
ENDBRANCH  17  23
BRANCH   9  25
ATOM     25  O   UNL     1      20.827   6.368 102.529  0.00  0.00    +0.000 OA
ATOM     26  H   UNL     1      20.778   5.858 101.700  0.00  0.00    +0.000 HD
ENDBRANCH   9  25
BRANCH   8  27
ATOM     27  O   UNL     1      20.750  10.872  97.627  0.00  0.00    +0.000 OA
ATOM     28  H   UNL     1      20.852  11.695  97.117  0.00  0.00    +0.000 HD
ENDBRANCH   8  27
BRANCH  18  29
ATOM     29  O   UNL     1      24.394  12.612 100.264  0.00  0.00    +0.000 OA
BRANCH  29  31
ATOM     30  O   UNL     1      26.183  13.826 100.915  0.00  0.00    +0.000 OA
ATOM     31  C   UNL     1      25.351  13.551 100.058  0.00  0.00    +0.000 C 
BRANCH  31  32
ATOM     32  C   UNL     1      25.214  14.346  98.754  0.00  0.00    +0.000 C 
BRANCH  32  33
ATOM     33  O   UNL     1      25.892  13.792  97.621  0.00  0.00    +0.000 OA
ATOM     34  H   UNL     1      25.283  13.895  96.866  0.00  0.00    +0.000 HD
ENDBRANCH  32  33
BRANCH  32  35
ATOM     35  C   UNL     1      25.655  15.809  99.024  0.00  0.00    +0.000 C 
BRANCH  35  36
ATOM     36  C   UNL     1      24.485  16.786  99.018  0.00  0.00    +0.000 A 
ATOM     37  C   UNL     1      24.452  17.824  98.073  0.00  0.00    +0.000 A 
ATOM     38  C   UNL     1      23.408  16.661  99.912  0.00  0.00    +0.000 A 
ATOM     39  C   UNL     1      23.386  18.726  98.039  0.00  0.00    +0.000 A 
ATOM     40  C   UNL     1      22.344  17.564  99.876  0.00  0.00    +0.000 A 
ATOM     41  C   UNL     1      22.335  18.598  98.942  0.00  0.00    +0.000 A 
ENDBRANCH  35  36
BRANCH  35  43
ATOM     42  O   UNL     1      28.479  16.177  99.410  0.00  0.00    +0.000 OA
ATOM     43  N   UNL     1      26.643  16.256  98.051  0.00  0.00    +0.000 N 
ATOM     44  C   UNL     1      27.941  16.498  98.364  0.00  0.00    +0.000 C 
ATOM     45  H   UNL     1      26.301  16.683  97.200  0.00  0.00    +0.000 HD
BRANCH  44  46
ATOM     46  O   UNL     1      28.527  17.123  97.321  0.00  0.00    +0.000 OA
BRANCH  46  47
ATOM     47  C   UNL     1      29.613  16.493  96.594  0.00  0.00    +0.000 C 
ATOM     48  C   UNL     1      29.405  14.979  96.480  0.00  0.00    +0.000 C 
ATOM     49  C   UNL     1      29.546  17.105  95.187  0.00  0.00    +0.000 C 
ATOM     50  C   UNL     1      30.971  16.839  97.216  0.00  0.00    +0.000 C 
ENDBRANCH  46  47
ENDBRANCH  44  46
ENDBRANCH  35  43
ENDBRANCH  32  35
ENDBRANCH  31  32
ENDBRANCH  29  31
ENDBRANCH  18  29
BRANCH   7  51
ATOM     51  O   UNL     1      23.121   9.978 100.011  0.00  0.00    +0.000 OA
BRANCH  51  53
ATOM     52  O   UNL     1      23.607   9.391  98.154  0.00  0.00    +0.000 OA
ATOM     53  C   UNL     1      24.161   9.911  99.117  0.00  0.00    +0.000 C 
BRANCH  53  54
ATOM     54  C   UNL     1      25.988  10.271  99.567  0.00  0.00    +0.000 A 
ATOM     55  C   UNL     1      26.565  10.174 100.908  0.00  0.00    +0.000 A 
ATOM     56  C   UNL     1      27.066  10.547  98.671  0.00  0.00    +0.000 A 
ATOM     57  C   UNL     1      27.928  10.325 101.271  0.00  0.00    +0.000 A 
ATOM     58  C   UNL     1      28.441  10.703  99.015  0.00  0.00    +0.000 A 
ATOM     59  C   UNL     1      28.874  10.592 100.314  0.00  0.00    +0.000 A 
ENDBRANCH  53  54
ENDBRANCH  51  53
ENDBRANCH   7  51
BRANCH   4  60
ATOM     60  O   UNL     1      24.795   7.256 100.404  0.00  0.00    +0.000 OA
BRANCH  60  62
ATOM     61  O   UNL     1      26.263   7.035  98.731  0.00  0.00    +0.000 OA
ATOM     62  C   UNL     1      25.960   6.790  99.897  0.00  0.00    +0.000 C 
ATOM     63  C   UNL     1      26.806   5.884 100.734  0.00  0.00    +0.000 C 
ENDBRANCH  60  62
ENDBRANCH   4  60
TORSDOF 17
ENDMDL
MODEL 7
REMARK VINA RESULT:      -5.3     13.397     17.356
REMARK  Name = 
REMARK  25 active torsions:
REMARK  status: ('A' for Active; 'I' for Inactive)
REMARK    1  A    between atoms: O_2  and  C_17
REMARK    2  A    between atoms: O_2  and  C_36
REMARK    3  A    between atoms: O_3  and  C_20
REMARK    4  A    between atoms: O_3  and  C_37
REMARK    5  A    between atoms: O_4  and  C_21
REMARK    6  A    between atoms: O_5  and  C_22
REMARK    7  A    between atoms: O_7  and  C_30
REMARK    8  A    between atoms: O_8  and  C_31
REMARK    9  A    between atoms: O_8  and  C_39
REMARK   10  A    between atoms: O_12  and  C_41
REMARK   11  A    between atoms: O_13  and  C_51
REMARK   12  A    between atoms: O_13  and  C_55
REMARK   13  A    between atoms: N_15  and  C_44
REMARK   14  A    between atoms: C_18  and  C_29
REMARK   15  A    between atoms: C_24  and  C_33
REMARK   16  A    between atoms: C_24  and  C_34
REMARK   17  A    between atoms: C_32  and  C_35
REMARK   18  A    between atoms: C_36  and  C_38
REMARK   19  A    between atoms: C_37  and  C_40
REMARK   20  A    between atoms: C_39  and  C_41
REMARK   21  A    between atoms: C_41  and  C_44
REMARK   22  A    between atoms: C_44  and  C_48
REMARK   23  A    between atoms: C_55  and  C_56
REMARK   24  A    between atoms: C_55  and  C_57
REMARK   25  A    between atoms: C_55  and  C_58
REMARK                            x       y       z     vdW  Elec       q    Type
REMARK                         _______ _______ _______ _____ _____    ______ ____
ROOT
ATOM      1  O   UNL     1      49.099  42.529  67.437  0.00  0.00    +0.000 OA
ATOM      2  O   UNL     1      49.932  43.656  74.009  0.00  0.00    +0.000 OA
ATOM      3  C   UNL     1      51.294  43.682  69.826  0.00  0.00    +0.000 C 
ATOM      4  C   UNL     1      50.810  42.706  68.714  0.00  0.00    +0.000 C 
ATOM      5  C   UNL     1      50.565  43.061  71.464  0.00  0.00    +0.000 C 
ATOM      6  C   UNL     1      49.273  43.082  68.770  0.00  0.00    +0.000 C 
ATOM      7  C   UNL     1      53.098  44.116  69.644  0.00  0.00    +0.000 C 
ATOM      8  C   UNL     1      54.473  45.113  70.482  0.00  0.00    +0.000 C 
ATOM      9  C   UNL     1      48.999  43.143  71.235  0.00  0.00    +0.000 C 
ATOM     10  C   UNL     1      48.480  42.491  69.916  0.00  0.00    +0.000 C 
ATOM     11  C   UNL     1      54.483  45.844  72.100  0.00  0.00    +0.000 C 
ATOM     12  C   UNL     1      50.493  42.967  67.187  0.00  0.00    +0.000 C 
ATOM     13  C   UNL     1      50.882  43.720  73.198  0.00  0.00    +0.000 C 
ATOM     14  C   UNL     1      55.701  44.101  70.624  0.00  0.00    +0.000 C 
ATOM     15  C   UNL     1      54.115  44.774  73.232  0.00  0.00    +0.000 C 
ATOM     16  C   UNL     1      50.818  41.511  71.687  0.00  0.00    +0.000 C 
ATOM     17  C   UNL     1      52.489  44.487  73.913  0.00  0.00    +0.000 C 
ATOM     18  C   UNL     1      55.891  43.347  72.019  0.00  0.00    +0.000 C 
ATOM     19  C   UNL     1      55.020  43.741  73.265  0.00  0.00    +0.000 C 
ATOM     20  C   UNL     1      55.991  46.329  72.390  0.00  0.00    +0.000 C 
ATOM     21  C   UNL     1      53.846  47.255  72.305  0.00  0.00    +0.000 C 
ATOM     22  C   UNL     1      55.059  42.734  74.388  0.00  0.00    +0.000 C 
ENDROOT
BRANCH  17  23
ATOM     23  O   UNL     1      52.236  45.621  74.743  0.00  0.00    +0.000 OA
ATOM     24  H   UNL     1      51.286  45.812  74.626  0.00  0.00    +0.000 HD
ENDBRANCH  17  23
BRANCH   9  25
ATOM     25  O   UNL     1      48.616  44.519  71.194  0.00  0.00    +0.000 OA
ATOM     26  H   UNL     1      48.072  44.639  70.394  0.00  0.00    +0.000 HD
ENDBRANCH   9  25
BRANCH   8  27
ATOM     27  O   UNL     1      54.859  46.095  69.501  0.00  0.00    +0.000 OA
ATOM     28  H   UNL     1      55.534  45.712  68.914  0.00  0.00    +0.000 HD
ENDBRANCH   8  27
BRANCH  18  29
ATOM     29  O   UNL     1      55.671  41.926  71.785  0.00  0.00    +0.000 OA
BRANCH  29  31
ATOM     30  O   UNL     1      57.065  40.618  70.581  0.00  0.00    +0.000 OA
ATOM     31  C   UNL     1      56.761  41.130  71.654  0.00  0.00    +0.000 C 
BRANCH  31  32
ATOM     32  C   UNL     1      57.481  40.789  72.964  0.00  0.00    +0.000 C 
BRANCH  32  33
ATOM     33  O   UNL     1      58.884  41.073  72.988  0.00  0.00    +0.000 OA
ATOM     34  H   UNL     1      58.975  42.004  72.710  0.00  0.00    +0.000 HD
ENDBRANCH  32  33
BRANCH  32  35
ATOM     35  C   UNL     1      57.194  39.303  73.309  0.00  0.00    +0.000 C 
BRANCH  35  36
ATOM     36  C   UNL     1      57.120  39.052  74.811  0.00  0.00    +0.000 A 
ATOM     37  C   UNL     1      55.887  39.163  75.472  0.00  0.00    +0.000 A 
ATOM     38  C   UNL     1      58.249  38.674  75.558  0.00  0.00    +0.000 A 
ATOM     39  C   UNL     1      55.789  38.928  76.846  0.00  0.00    +0.000 A 
ATOM     40  C   UNL     1      58.148  38.440  76.931  0.00  0.00    +0.000 A 
ATOM     41  C   UNL     1      56.920  38.570  77.574  0.00  0.00    +0.000 A 
ENDBRANCH  35  36
BRANCH  35  43
ATOM     42  O   UNL     1      56.780  36.983  71.665  0.00  0.00    +0.000 OA
ATOM     43  N   UNL     1      58.200  38.420  72.735  0.00  0.00    +0.000 N 
ATOM     44  C   UNL     1      57.895  37.284  72.057  0.00  0.00    +0.000 C 
ATOM     45  H   UNL     1      59.141  38.483  73.100  0.00  0.00    +0.000 HD
BRANCH  44  46
ATOM     46  O   UNL     1      59.028  36.574  71.873  0.00  0.00    +0.000 OA
BRANCH  46  47
ATOM     47  C   UNL     1      59.255  35.339  72.600  0.00  0.00    +0.000 C 
ATOM     48  C   UNL     1      58.501  35.328  73.933  0.00  0.00    +0.000 C 
ATOM     49  C   UNL     1      58.671  34.242  71.696  0.00  0.00    +0.000 C 
ATOM     50  C   UNL     1      60.753  35.073  72.787  0.00  0.00    +0.000 C 
ENDBRANCH  46  47
ENDBRANCH  44  46
ENDBRANCH  35  43
ENDBRANCH  32  35
ENDBRANCH  31  32
ENDBRANCH  29  31
ENDBRANCH  18  29
BRANCH   7  51
ATOM     51  O   UNL     1      53.329  43.131  70.486  0.00  0.00    +0.000 OA
BRANCH  51  53
ATOM     52  O   UNL     1      53.948  43.178  68.577  0.00  0.00    +0.000 OA
ATOM     53  C   UNL     1      53.820  42.347  69.471  0.00  0.00    +0.000 C 
BRANCH  53  54
ATOM     54  C   UNL     1      53.892  40.434  69.529  0.00  0.00    +0.000 A 
ATOM     55  C   UNL     1      54.508  39.578  68.515  0.00  0.00    +0.000 A 
ATOM     56  C   UNL     1      53.489  39.581  70.603  0.00  0.00    +0.000 A 
ATOM     57  C   UNL     1      54.680  38.171  68.567  0.00  0.00    +0.000 A 
ATOM     58  C   UNL     1      53.653  38.167  70.674  0.00  0.00    +0.000 A 
ATOM     59  C   UNL     1      54.248  37.460  69.657  0.00  0.00    +0.000 A 
ENDBRANCH  53  54
ENDBRANCH  51  53
ENDBRANCH   7  51
BRANCH   4  60
ATOM     60  O   UNL     1      51.097  41.323  69.030  0.00  0.00    +0.000 OA
BRANCH  60  62
ATOM     61  O   UNL     1      49.751  39.562  68.724  0.00  0.00    +0.000 OA
ATOM     62  C   UNL     1      50.661  40.270  68.300  0.00  0.00    +0.000 C 
ATOM     63  C   UNL     1      51.380  39.917  67.036  0.00  0.00    +0.000 C 
ENDBRANCH  60  62
ENDBRANCH   4  60
TORSDOF 17
ENDMDL
MODEL 8
REMARK VINA RESULT:      -5.2     21.309     24.310
REMARK  Name = 
REMARK  25 active torsions:
REMARK  status: ('A' for Active; 'I' for Inactive)
REMARK    1  A    between atoms: O_2  and  C_17
REMARK    2  A    between atoms: O_2  and  C_36
REMARK    3  A    between atoms: O_3  and  C_20
REMARK    4  A    between atoms: O_3  and  C_37
REMARK    5  A    between atoms: O_4  and  C_21
REMARK    6  A    between atoms: O_5  and  C_22
REMARK    7  A    between atoms: O_7  and  C_30
REMARK    8  A    between atoms: O_8  and  C_31
REMARK    9  A    between atoms: O_8  and  C_39
REMARK   10  A    between atoms: O_12  and  C_41
REMARK   11  A    between atoms: O_13  and  C_51
REMARK   12  A    between atoms: O_13  and  C_55
REMARK   13  A    between atoms: N_15  and  C_44
REMARK   14  A    between atoms: C_18  and  C_29
REMARK   15  A    between atoms: C_24  and  C_33
REMARK   16  A    between atoms: C_24  and  C_34
REMARK   17  A    between atoms: C_32  and  C_35
REMARK   18  A    between atoms: C_36  and  C_38
REMARK   19  A    between atoms: C_37  and  C_40
REMARK   20  A    between atoms: C_39  and  C_41
REMARK   21  A    between atoms: C_41  and  C_44
REMARK   22  A    between atoms: C_44  and  C_48
REMARK   23  A    between atoms: C_55  and  C_56
REMARK   24  A    between atoms: C_55  and  C_57
REMARK   25  A    between atoms: C_55  and  C_58
REMARK                            x       y       z     vdW  Elec       q    Type
REMARK                         _______ _______ _______ _____ _____    ______ ____
ROOT
ATOM      1  O   UNL     1      51.139  16.261  74.625  0.00  0.00    +0.000 OA
ATOM      2  O   UNL     1      50.232  13.698  80.770  0.00  0.00    +0.000 OA
ATOM      3  C   UNL     1      50.956  17.020  77.978  0.00  0.00    +0.000 C 
ATOM      4  C   UNL     1      51.670  16.901  76.600  0.00  0.00    +0.000 C 
ATOM      5  C   UNL     1      51.139  15.341  78.844  0.00  0.00    +0.000 C 
ATOM      6  C   UNL     1      50.666  15.868  75.941  0.00  0.00    +0.000 C 
ATOM      7  C   UNL     1      51.350  18.627  78.837  0.00  0.00    +0.000 C 
ATOM      8  C   UNL     1      51.012  19.568  80.445  0.00  0.00    +0.000 C 
ATOM      9  C   UNL     1      50.398  14.333  77.871  0.00  0.00    +0.000 C 
ATOM     10  C   UNL     1      50.812  14.424  76.370  0.00  0.00    +0.000 C 
ATOM     11  C   UNL     1      50.295  18.964  81.953  0.00  0.00    +0.000 C 
ATOM     12  C   UNL     1      51.356  17.603  75.218  0.00  0.00    +0.000 C 
ATOM     13  C   UNL     1      50.615  14.875  80.591  0.00  0.00    +0.000 C 
ATOM     14  C   UNL     1      52.449  20.021  80.979  0.00  0.00    +0.000 C 
ATOM     15  C   UNL     1      51.057  17.662  82.487  0.00  0.00    +0.000 C 
ATOM     16  C   UNL     1      52.637  14.819  78.836  0.00  0.00    +0.000 C 
ATOM     17  C   UNL     1      50.589  15.969  82.167  0.00  0.00    +0.000 C 
ATOM     18  C   UNL     1      53.157  19.110  82.083  0.00  0.00    +0.000 C 
ATOM     19  C   UNL     1      52.379  17.926  82.761  0.00  0.00    +0.000 C 
ATOM     20  C   UNL     1      50.498  20.112  83.064  0.00  0.00    +0.000 C 
ATOM     21  C   UNL     1      48.741  18.913  82.093  0.00  0.00    +0.000 C 
ATOM     22  C   UNL     1      53.260  16.955  83.508  0.00  0.00    +0.000 C 
ENDROOT
BRANCH  17  23
ATOM     23  O   UNL     1      49.426  15.755  82.966  0.00  0.00    +0.000 OA
ATOM     24  H   UNL     1      49.233  16.624  83.367  0.00  0.00    +0.000 HD
ENDBRANCH  17  23
BRANCH   9  25
ATOM     25  O   UNL     1      48.994  14.592  77.929  0.00  0.00    +0.000 OA
ATOM     26  H   UNL     1      48.851  15.471  77.534  0.00  0.00    +0.000 HD
ENDBRANCH   9  25
BRANCH   8  27
ATOM     27  O   UNL     1      50.330  20.768  80.028  0.00  0.00    +0.000 OA
ATOM     28  H   UNL     1      50.528  21.482  80.658  0.00  0.00    +0.000 HD
ENDBRANCH   8  27
BRANCH  18  29
ATOM     29  O   UNL     1      54.352  18.535  81.478  0.00  0.00    +0.000 OA
BRANCH  29  31
ATOM     30  O   UNL     1      55.794  20.079  80.682  0.00  0.00    +0.000 OA
ATOM     31  C   UNL     1      55.500  19.254  81.540  0.00  0.00    +0.000 C 
BRANCH  31  32
ATOM     32  C   UNL     1      56.466  18.845  82.658  0.00  0.00    +0.000 C 
BRANCH  32  33
ATOM     33  O   UNL     1      56.988  19.922  83.445  0.00  0.00    +0.000 OA
ATOM     34  H   UNL     1      57.412  20.535  82.816  0.00  0.00    +0.000 HD
ENDBRANCH  32  33
BRANCH  32  35
ATOM     35  C   UNL     1      57.603  17.992  82.035  0.00  0.00    +0.000 C 
BRANCH  35  36
ATOM     36  C   UNL     1      58.927  18.745  81.957  0.00  0.00    +0.000 A 
ATOM     37  C   UNL     1      59.192  19.567  80.850  0.00  0.00    +0.000 A 
ATOM     38  C   UNL     1      59.885  18.673  82.982  0.00  0.00    +0.000 A 
ATOM     39  C   UNL     1      60.392  20.277  80.757  0.00  0.00    +0.000 A 
ATOM     40  C   UNL     1      61.084  19.383  82.887  0.00  0.00    +0.000 A 
ATOM     41  C   UNL     1      61.338  20.181  81.774  0.00  0.00    +0.000 A 
ENDBRANCH  35  36
BRANCH  35  43
ATOM     42  O   UNL     1      57.514  15.284  81.077  0.00  0.00    +0.000 OA
ATOM     43  N   UNL     1      57.250  17.524  80.702  0.00  0.00    +0.000 N 
ATOM     44  C   UNL     1      57.341  16.225  80.320  0.00  0.00    +0.000 C 
ATOM     45  H   UNL     1      57.226  18.208  79.957  0.00  0.00    +0.000 HD
BRANCH  44  46
ATOM     46  O   UNL     1      57.183  16.157  78.981  0.00  0.00    +0.000 OA
BRANCH  46  47
ATOM     47  C   UNL     1      58.266  15.704  78.128  0.00  0.00    +0.000 C 
ATOM     48  C   UNL     1      58.576  14.221  78.359  0.00  0.00    +0.000 C 
ATOM     49  C   UNL     1      57.734  15.878  76.698  0.00  0.00    +0.000 C 
ATOM     50  C   UNL     1      59.511  16.582  78.299  0.00  0.00    +0.000 C 
ENDBRANCH  46  47
ENDBRANCH  44  46
ENDBRANCH  35  43
ENDBRANCH  32  35
ENDBRANCH  31  32
ENDBRANCH  29  31
ENDBRANCH  18  29
BRANCH   7  51
ATOM     51  O   UNL     1      52.305  17.962  79.452  0.00  0.00    +0.000 OA
BRANCH  51  53
ATOM     52  O   UNL     1      54.204  17.759  78.833  0.00  0.00    +0.000 OA
ATOM     53  C   UNL     1      53.250  18.497  78.610  0.00  0.00    +0.000 C 
BRANCH  53  54
ATOM     54  C   UNL     1      53.041  20.157  77.677  0.00  0.00    +0.000 A 
ATOM     55  C   UNL     1      53.092  21.485  78.290  0.00  0.00    +0.000 A 
ATOM     56  C   UNL     1      52.942  20.355  76.266  0.00  0.00    +0.000 A 
ATOM     57  C   UNL     1      53.050  22.739  77.628  0.00  0.00    +0.000 A 
ATOM     58  C   UNL     1      52.898  21.605  75.583  0.00  0.00    +0.000 A 
ATOM     59  C   UNL     1      52.952  22.798  76.261  0.00  0.00    +0.000 A 
ENDBRANCH  53  54
ENDBRANCH  51  53
ENDBRANCH   7  51
BRANCH   4  60
ATOM     60  O   UNL     1      53.027  16.415  76.721  0.00  0.00    +0.000 OA
BRANCH  60  62
ATOM     61  O   UNL     1      54.474  17.518  75.418  0.00  0.00    +0.000 OA
ATOM     62  C   UNL     1      53.941  16.453  75.723  0.00  0.00    +0.000 C 
ATOM     63  C   UNL     1      54.199  15.212  74.929  0.00  0.00    +0.000 C 
ENDBRANCH  60  62
ENDBRANCH   4  60
TORSDOF 17
ENDMDL
MODEL 9
REMARK VINA RESULT:      -5.1     33.608     37.502
REMARK  Name = 
REMARK  25 active torsions:
REMARK  status: ('A' for Active; 'I' for Inactive)
REMARK    1  A    between atoms: O_2  and  C_17
REMARK    2  A    between atoms: O_2  and  C_36
REMARK    3  A    between atoms: O_3  and  C_20
REMARK    4  A    between atoms: O_3  and  C_37
REMARK    5  A    between atoms: O_4  and  C_21
REMARK    6  A    between atoms: O_5  and  C_22
REMARK    7  A    between atoms: O_7  and  C_30
REMARK    8  A    between atoms: O_8  and  C_31
REMARK    9  A    between atoms: O_8  and  C_39
REMARK   10  A    between atoms: O_12  and  C_41
REMARK   11  A    between atoms: O_13  and  C_51
REMARK   12  A    between atoms: O_13  and  C_55
REMARK   13  A    between atoms: N_15  and  C_44
REMARK   14  A    between atoms: C_18  and  C_29
REMARK   15  A    between atoms: C_24  and  C_33
REMARK   16  A    between atoms: C_24  and  C_34
REMARK   17  A    between atoms: C_32  and  C_35
REMARK   18  A    between atoms: C_36  and  C_38
REMARK   19  A    between atoms: C_37  and  C_40
REMARK   20  A    between atoms: C_39  and  C_41
REMARK   21  A    between atoms: C_41  and  C_44
REMARK   22  A    between atoms: C_44  and  C_48
REMARK   23  A    between atoms: C_55  and  C_56
REMARK   24  A    between atoms: C_55  and  C_57
REMARK   25  A    between atoms: C_55  and  C_58
REMARK                            x       y       z     vdW  Elec       q    Type
REMARK                         _______ _______ _______ _____ _____    ______ ____
ROOT
ATOM      1  O   UNL     1      27.339   4.278  86.009  0.00  0.00    +0.000 OA
ATOM      2  O   UNL     1      20.677   4.163  85.138  0.00  0.00    +0.000 OA
ATOM      3  C   UNL     1      24.704   5.749  84.351  0.00  0.00    +0.000 C 
ATOM      4  C   UNL     1      25.897   5.720  85.352  0.00  0.00    +0.000 C 
ATOM      5  C   UNL     1      23.171   5.156  85.299  0.00  0.00    +0.000 C 
ATOM      6  C   UNL     1      25.974   4.148  85.527  0.00  0.00    +0.000 C 
ATOM      7  C   UNL     1      24.693   7.300  83.318  0.00  0.00    +0.000 C 
ATOM      8  C   UNL     1      23.686   8.177  81.974  0.00  0.00    +0.000 C 
ATOM      9  C   UNL     1      23.547   3.680  85.739  0.00  0.00    +0.000 C 
ATOM     10  C   UNL     1      24.935   3.522  86.432  0.00  0.00    +0.000 C 
ATOM     11  C   UNL     1      22.047   7.809  81.401  0.00  0.00    +0.000 C 
ATOM     12  C   UNL     1      27.435   5.451  85.107  0.00  0.00    +0.000 C 
ATOM     13  C   UNL     1      21.389   5.091  84.696  0.00  0.00    +0.000 C 
ATOM     14  C   UNL     1      23.467   9.665  82.515  0.00  0.00    +0.000 C 
ATOM     15  C   UNL     1      20.999   7.747  82.610  0.00  0.00    +0.000 C 
ATOM     16  C   UNL     1      22.987   5.911  86.682  0.00  0.00    +0.000 C 
ATOM     17  C   UNL     1      20.491   6.274  83.481  0.00  0.00    +0.000 C 
ATOM     18  C   UNL     1      22.092   9.996  83.257  0.00  0.00    +0.000 C 
ATOM     19  C   UNL     1      20.921   8.949  83.273  0.00  0.00    +0.000 C 
ATOM     20  C   UNL     1      21.593   9.030  80.453  0.00  0.00    +0.000 C 
ATOM     21  C   UNL     1      21.848   6.711  80.309  0.00  0.00    +0.000 C 
ATOM     22  C   UNL     1      19.841   9.247  84.283  0.00  0.00    +0.000 C 
ENDROOT
BRANCH  17  23
ATOM     23  O   UNL     1      19.645   5.581  82.563  0.00  0.00    +0.000 OA
ATOM     24  H   UNL     1      19.488   4.710  82.974  0.00  0.00    +0.000 HD
ENDBRANCH  17  23
BRANCH   9  25
ATOM     25  O   UNL     1      23.569   2.850  84.577  0.00  0.00    +0.000 OA
ATOM     26  H   UNL     1      22.654   2.795  84.248  0.00  0.00    +0.000 HD
ENDBRANCH   9  25
BRANCH   8  27
ATOM     27  O   UNL     1      24.585   8.274  80.852  0.00  0.00    +0.000 OA
ATOM     28  H   UNL     1      25.116   9.085  80.938  0.00  0.00    +0.000 HD
ENDBRANCH   8  27
BRANCH  18  29
ATOM     29  O   UNL     1      22.404  10.298  84.647  0.00  0.00    +0.000 OA
BRANCH  29  31
ATOM     30  O   UNL     1      21.958  11.765  86.306  0.00  0.00    +0.000 OA
ATOM     31  C   UNL     1      22.096  11.536  85.109  0.00  0.00    +0.000 C 
BRANCH  31  32
ATOM     32  C   UNL     1      21.774  12.574  84.028  0.00  0.00    +0.000 C 
BRANCH  32  33
ATOM     33  O   UNL     1      22.739  13.621  83.873  0.00  0.00    +0.000 OA
ATOM     34  H   UNL     1      22.518  14.070  83.035  0.00  0.00    +0.000 HD
ENDBRANCH  32  33
BRANCH  32  35
ATOM     35  C   UNL     1      20.356  13.142  84.299  0.00  0.00    +0.000 C 
BRANCH  35  36
ATOM     36  C   UNL     1      19.355  12.767  83.212  0.00  0.00    +0.000 A 
ATOM     37  C   UNL     1      19.821  12.367  81.949  0.00  0.00    +0.000 A 
ATOM     38  C   UNL     1      17.969  12.772  83.444  0.00  0.00    +0.000 A 
ATOM     39  C   UNL     1      18.926  12.007  80.938  0.00  0.00    +0.000 A 
ATOM     40  C   UNL     1      17.077  12.413  82.431  0.00  0.00    +0.000 A 
ATOM     41  C   UNL     1      17.555  12.034  81.179  0.00  0.00    +0.000 A 
ENDBRANCH  35  36
BRANCH  35  43
ATOM     42  O   UNL     1      19.624  14.718  86.588  0.00  0.00    +0.000 OA
ATOM     43  N   UNL     1      20.379  14.592  84.434  0.00  0.00    +0.000 N 
ATOM     44  C   UNL     1      19.911  15.246  85.528  0.00  0.00    +0.000 C 
ATOM     45  H   UNL     1      20.463  15.140  83.588  0.00  0.00    +0.000 HD
BRANCH  44  46
ATOM     46  O   UNL     1      19.847  16.565  85.247  0.00  0.00    +0.000 OA
BRANCH  46  47
ATOM     47  C   UNL     1      18.566  17.229  85.095  0.00  0.00    +0.000 C 
ATOM     48  C   UNL     1      18.140  17.926  86.392  0.00  0.00    +0.000 C 
ATOM     49  C   UNL     1      18.807  18.299  84.020  0.00  0.00    +0.000 C 
ATOM     50  C   UNL     1      17.494  16.258  84.589  0.00  0.00    +0.000 C 
ENDBRANCH  46  47
ENDBRANCH  44  46
ENDBRANCH  35  43
ENDBRANCH  32  35
ENDBRANCH  31  32
ENDBRANCH  29  31
ENDBRANCH  18  29
BRANCH   7  51
ATOM     51  O   UNL     1      23.873   7.792  84.223  0.00  0.00    +0.000 OA
BRANCH  51  53
ATOM     52  O   UNL     1      25.756   8.401  83.888  0.00  0.00    +0.000 OA
ATOM     53  C   UNL     1      24.847   8.649  84.673  0.00  0.00    +0.000 C 
BRANCH  53  54
ATOM     54  C   UNL     1      24.736   9.635  86.311  0.00  0.00    +0.000 A 
ATOM     55  C   UNL     1      23.996   9.218  87.503  0.00  0.00    +0.000 A 
ATOM     56  C   UNL     1      25.446  10.825  86.660  0.00  0.00    +0.000 A 
ATOM     57  C   UNL     1      23.972   9.859  88.768  0.00  0.00    +0.000 A 
ATOM     58  C   UNL     1      25.435  11.484  87.924  0.00  0.00    +0.000 A 
ATOM     59  C   UNL     1      24.699  11.002  88.980  0.00  0.00    +0.000 A 
ENDBRANCH  53  54
ENDBRANCH  51  53
ENDBRANCH   7  51
BRANCH   4  60
ATOM     60  O   UNL     1      25.610   6.441  86.574  0.00  0.00    +0.000 OA
BRANCH  60  62
ATOM     61  O   UNL     1      26.473   5.926  88.572  0.00  0.00    +0.000 OA
ATOM     62  C   UNL     1      26.506   6.636  87.570  0.00  0.00    +0.000 C 
ATOM     63  C   UNL     1      27.449   7.793  87.481  0.00  0.00    +0.000 C 
ENDBRANCH  60  62
ENDBRANCH   4  60
TORSDOF 17
ENDMDL
