MODEL 1
REMARK VINA RESULT:      -7.0      0.000      0.000
REMARK  Name = 
REMARK  13 active torsions:
REMARK  status: ('A' for Active; 'I' for Inactive)
REMARK    1  A    between atoms: O_1  and  C_13
REMARK    2  A    between atoms: O_1  and  C_19
REMARK    3  A    between atoms: O_3  and  C_14
REMARK    4  A    between atoms: O_4  and  C_22
REMARK    5  A    between atoms: O_5  and  C_24
REMARK    6  A    between atoms: O_6  and  C_26
REMARK    7  A    between atoms: O_8  and  C_30
REMARK    8  A    between atoms: O_11  and  C_35
REMARK    9  A    between atoms: O_11  and  C_39
REMARK   10  A    between atoms: N_12  and  C_21
REMARK   11  A    between atoms: C_14  and  C_25
REMARK   12  A    between atoms: C_23  and  C_29
REMARK   13  A    between atoms: C_25  and  C_30
REMARK                            x       y       z     vdW  Elec       q    Type
REMARK                         _______ _______ _______ _____ _____    ______ ____
ROOT
ATOM      1  O   UNL     1      63.639  31.835  73.220  0.00  0.00    +0.000 OA
ATOM      2  O   UNL     1      58.663  32.590  71.507  0.00  0.00    +0.000 OA
ATOM      3  C   UNL     1      61.888  35.493  76.360  0.00  0.00    +0.000 C 
ATOM      4  C   UNL     1      59.747  36.848  76.422  0.00  0.00    +0.000 C 
ATOM      5  C   UNL     1      60.792  36.086  77.248  0.00  0.00    +0.000 C 
ATOM      6  C   UNL     1      59.084  35.919  75.395  0.00  0.00    +0.000 C 
ATOM      7  C   UNL     1      61.311  34.669  75.226  0.00  0.00    +0.000 A 
ATOM      8  C   UNL     1      60.005  34.898  74.751  0.00  0.00    +0.000 A 
ATOM      9  C   UNL     1      62.104  33.694  74.592  0.00  0.00    +0.000 A 
ATOM     10  C   UNL     1      59.522  34.129  73.678  0.00  0.00    +0.000 A 
ATOM     11  C   UNL     1      61.616  32.936  73.509  0.00  0.00    +0.000 A 
ATOM     12  C   UNL     1      60.321  33.155  73.055  0.00  0.00    +0.000 A 
ATOM     13  C   UNL     1      62.473  31.925  72.849  0.00  0.00    +0.000 C 
ATOM     14  C   UNL     1      59.795  32.367  71.925  0.00  0.00    +0.000 C 
ATOM     15  C   UNL     1      61.925  31.081  71.761  0.00  0.00    +0.000 A 
ATOM     16  C   UNL     1      60.624  31.314  71.311  0.00  0.00    +0.000 A 
ATOM     17  C   UNL     1      62.672  30.058  71.155  0.00  0.00    +0.000 A 
ATOM     18  C   UNL     1      60.076  30.543  70.273  0.00  0.00    +0.000 A 
ATOM     19  C   UNL     1      62.115  29.274  70.139  0.00  0.00    +0.000 A 
ATOM     20  C   UNL     1      60.822  29.524  69.690  0.00  0.00    +0.000 A 
ENDROOT
BRANCH   4  21
ATOM     21  O   UNL     1      60.349  37.965  75.756  0.00  0.00    +0.000 OA
ATOM     22  H   UNL     1      60.980  38.372  76.388  0.00  0.00    +0.000 HD
ENDBRANCH   4  21
BRANCH   9  23
ATOM     23  O   UNL     1      63.377  33.514  75.079  0.00  0.00    +0.000 OA
ATOM     24  H   UNL     1      63.888  34.346  74.944  0.00  0.00    +0.000 HD
ENDBRANCH   9  23
BRANCH  10  25
ATOM     25  O   UNL     1      58.232  34.376  73.275  0.00  0.00    +0.000 OA
ATOM     26  H   UNL     1      57.703  34.657  74.055  0.00  0.00    +0.000 HD
ENDBRANCH  10  25
BRANCH   4  28
ATOM     27  O   UNL     1      58.639  37.193  78.569  0.00  0.00    +0.000 OA
ATOM     28  C   UNL     1      58.658  37.410  77.351  0.00  0.00    +0.000 C 
BRANCH  28  29
ATOM     29  C   UNL     1      57.556  38.250  76.709  0.00  0.00    +0.000 C 
BRANCH  29  30
ATOM     30  O   UNL     1      57.927  39.622  76.637  0.00  0.00    +0.000 OA
ATOM     31  H   UNL     1      58.707  39.661  76.048  0.00  0.00    +0.000 HD
ENDBRANCH  29  30
ENDBRANCH  28  29
ENDBRANCH   4  28
BRANCH  17  32
ATOM     32  O   UNL     1      63.922  29.713  71.596  0.00  0.00    +0.000 OA
ATOM     33  C   UNL     1      64.660  29.063  70.559  0.00  0.00    +0.000 C 
ENDBRANCH  17  32
BRANCH   3  34
ATOM     34  O   UNL     1      62.617  36.569  75.746  0.00  0.00    +0.000 OA
BRANCH  34  36
ATOM     35  O   UNL     1      63.970  38.424  76.269  0.00  0.00    +0.000 OA
ATOM     36  C   UNL     1      63.659  37.070  76.588  0.00  0.00    +0.000 C 
ATOM     37  C   UNL     1      64.879  36.154  76.474  0.00  0.00    +0.000 C 
ATOM     38  C   UNL     1      65.543  36.293  75.102  0.00  0.00    +0.000 C 
ATOM     39  C   UNL     1      65.858  37.777  74.827  0.00  0.00    +0.000 C 
ATOM     40  C   UNL     1      64.563  38.598  74.976  0.00  0.00    +0.000 C 
ATOM     41  C   UNL     1      64.795  40.094  74.791  0.00  0.00    +0.000 C 
BRANCH  38  42
ATOM     42  N   UNL     1      66.772  35.482  75.032  0.00  0.00    +0.000 NA
ATOM     43  H   UNL     1      66.536  34.506  74.858  0.00  0.00    +0.000 HD
ATOM     44  H   UNL     1      67.197  35.507  75.965  0.00  0.00    +0.000 HD
ENDBRANCH  38  42
BRANCH  39  45
ATOM     45  O   UNL     1      66.869  38.204  75.759  0.00  0.00    +0.000 OA
ATOM     46  H   UNL     1      67.535  38.705  75.260  0.00  0.00    +0.000 HD
ENDBRANCH  39  45
ENDBRANCH  34  36
ENDBRANCH   3  34
TORSDOF 11
ENDMDL
MODEL 2
REMARK VINA RESULT:      -6.8      4.565      7.023
REMARK  Name = 
REMARK  13 active torsions:
REMARK  status: ('A' for Active; 'I' for Inactive)
REMARK    1  A    between atoms: O_1  and  C_13
REMARK    2  A    between atoms: O_1  and  C_19
REMARK    3  A    between atoms: O_3  and  C_14
REMARK    4  A    between atoms: O_4  and  C_22
REMARK    5  A    between atoms: O_5  and  C_24
REMARK    6  A    between atoms: O_6  and  C_26
REMARK    7  A    between atoms: O_8  and  C_30
REMARK    8  A    between atoms: O_11  and  C_35
REMARK    9  A    between atoms: O_11  and  C_39
REMARK   10  A    between atoms: N_12  and  C_21
REMARK   11  A    between atoms: C_14  and  C_25
REMARK   12  A    between atoms: C_23  and  C_29
REMARK   13  A    between atoms: C_25  and  C_30
REMARK                            x       y       z     vdW  Elec       q    Type
REMARK                         _______ _______ _______ _____ _____    ______ ____
ROOT
ATOM      1  O   UNL     1      58.809  34.222  68.642  0.00  0.00    +0.000 OA
ATOM      2  O   UNL     1      60.005  31.999  73.322  0.00  0.00    +0.000 OA
ATOM      3  C   UNL     1      57.636  37.917  72.001  0.00  0.00    +0.000 C 
ATOM      4  C   UNL     1      57.559  38.000  74.533  0.00  0.00    +0.000 C 
ATOM      5  C   UNL     1      57.952  38.744  73.249  0.00  0.00    +0.000 C 
ATOM      6  C   UNL     1      58.310  36.665  74.638  0.00  0.00    +0.000 C 
ATOM      7  C   UNL     1      58.225  36.523  72.083  0.00  0.00    +0.000 A 
ATOM      8  C   UNL     1      58.506  35.924  73.327  0.00  0.00    +0.000 A 
ATOM      9  C   UNL     1      58.448  35.783  70.907  0.00  0.00    +0.000 A 
ATOM     10  C   UNL     1      59.025  34.617  73.356  0.00  0.00    +0.000 A 
ATOM     11  C   UNL     1      58.957  34.470  70.946  0.00  0.00    +0.000 A 
ATOM     12  C   UNL     1      59.247  33.890  72.175  0.00  0.00    +0.000 A 
ATOM     13  C   UNL     1      59.170  33.706  69.696  0.00  0.00    +0.000 C 
ATOM     14  C   UNL     1      59.784  32.517  72.231  0.00  0.00    +0.000 C 
ATOM     15  C   UNL     1      59.777  32.355  69.743  0.00  0.00    +0.000 A 
ATOM     16  C   UNL     1      60.060  31.781  70.985  0.00  0.00    +0.000 A 
ATOM     17  C   UNL     1      60.069  31.621  68.582  0.00  0.00    +0.000 A 
ATOM     18  C   UNL     1      60.622  30.498  71.069  0.00  0.00    +0.000 A 
ATOM     19  C   UNL     1      60.654  30.352  68.668  0.00  0.00    +0.000 A 
ATOM     20  C   UNL     1      60.920  29.786  69.911  0.00  0.00    +0.000 A 
ENDROOT
BRANCH   4  21
ATOM     21  O   UNL     1      56.145  37.772  74.570  0.00  0.00    +0.000 OA
ATOM     22  H   UNL     1      55.779  38.093  73.719  0.00  0.00    +0.000 HD
ENDBRANCH   4  21
BRANCH   9  23
ATOM     23  O   UNL     1      58.147  36.401  69.716  0.00  0.00    +0.000 OA
ATOM     24  H   UNL     1      57.262  36.830  69.798  0.00  0.00    +0.000 HD
ENDBRANCH   9  23
BRANCH  10  25
ATOM     25  O   UNL     1      59.306  34.094  74.595  0.00  0.00    +0.000 OA
ATOM     26  H   UNL     1      60.088  33.501  74.521  0.00  0.00    +0.000 HD
ENDBRANCH  10  25
BRANCH   4  28
ATOM     27  O   UNL     1      59.074  39.142  76.067  0.00  0.00    +0.000 OA
ATOM     28  C   UNL     1      57.910  38.859  75.760  0.00  0.00    +0.000 C 
BRANCH  28  29
ATOM     29  C   UNL     1      56.752  39.348  76.625  0.00  0.00    +0.000 C 
BRANCH  29  30
ATOM     30  O   UNL     1      55.997  40.354  75.958  0.00  0.00    +0.000 OA
ATOM     31  H   UNL     1      56.120  40.194  75.000  0.00  0.00    +0.000 HD
ENDBRANCH  29  30
ENDBRANCH  28  29
ENDBRANCH   4  28
BRANCH  17  32
ATOM     32  O   UNL     1      59.899  32.147  67.329  0.00  0.00    +0.000 OA
ATOM     33  C   UNL     1      61.085  31.982  66.549  0.00  0.00    +0.000 C 
ENDBRANCH  17  32
BRANCH   3  34
ATOM     34  O   UNL     1      56.211  37.747  71.908  0.00  0.00    +0.000 OA
BRANCH  34  36
ATOM     35  O   UNL     1      54.132  38.815  71.618  0.00  0.00    +0.000 OA
ATOM     36  C   UNL     1      55.547  38.946  71.499  0.00  0.00    +0.000 C 
ATOM     37  C   UNL     1      55.977  39.296  70.072  0.00  0.00    +0.000 C 
ATOM     38  C   UNL     1      55.397  38.300  69.065  0.00  0.00    +0.000 C 
ATOM     39  C   UNL     1      53.867  38.215  69.244  0.00  0.00    +0.000 C 
ATOM     40  C   UNL     1      53.556  37.866  70.712  0.00  0.00    +0.000 C 
ATOM     41  C   UNL     1      52.059  37.830  70.999  0.00  0.00    +0.000 C 
BRANCH  38  42
ATOM     42  N   UNL     1      55.734  38.697  67.686  0.00  0.00    +0.000 NA
ATOM     43  H   UNL     1      56.302  37.976  67.245  0.00  0.00    +0.000 HD
ATOM     44  H   UNL     1      56.333  39.527  67.754  0.00  0.00    +0.000 HD
ENDBRANCH  38  42
BRANCH  39  45
ATOM     45  O   UNL     1      53.298  39.482  68.867  0.00  0.00    +0.000 OA
ATOM     46  H   UNL     1      52.822  39.351  68.030  0.00  0.00    +0.000 HD
ENDBRANCH  39  45
ENDBRANCH  34  36
ENDBRANCH   3  34
TORSDOF 11
ENDMDL
MODEL 3
REMARK VINA RESULT:      -6.7      5.781      9.689
REMARK  Name = 
REMARK  13 active torsions:
REMARK  status: ('A' for Active; 'I' for Inactive)
REMARK    1  A    between atoms: O_1  and  C_13
REMARK    2  A    between atoms: O_1  and  C_19
REMARK    3  A    between atoms: O_3  and  C_14
REMARK    4  A    between atoms: O_4  and  C_22
REMARK    5  A    between atoms: O_5  and  C_24
REMARK    6  A    between atoms: O_6  and  C_26
REMARK    7  A    between atoms: O_8  and  C_30
REMARK    8  A    between atoms: O_11  and  C_35
REMARK    9  A    between atoms: O_11  and  C_39
REMARK   10  A    between atoms: N_12  and  C_21
REMARK   11  A    between atoms: C_14  and  C_25
REMARK   12  A    between atoms: C_23  and  C_29
REMARK   13  A    between atoms: C_25  and  C_30
REMARK                            x       y       z     vdW  Elec       q    Type
REMARK                         _______ _______ _______ _____ _____    ______ ____
ROOT
ATOM      1  O   UNL     1      55.998  38.012  77.713  0.00  0.00    +0.000 OA
ATOM      2  O   UNL     1      60.058  35.327  75.574  0.00  0.00    +0.000 OA
ATOM      3  C   UNL     1      55.445  38.903  72.692  0.00  0.00    +0.000 C 
ATOM      4  C   UNL     1      56.865  38.355  70.666  0.00  0.00    +0.000 C 
ATOM      5  C   UNL     1      55.443  38.426  71.238  0.00  0.00    +0.000 C 
ATOM      6  C   UNL     1      57.733  37.390  71.487  0.00  0.00    +0.000 C 
ATOM      7  C   UNL     1      56.391  38.089  73.552  0.00  0.00    +0.000 A 
ATOM      8  C   UNL     1      57.487  37.409  72.985  0.00  0.00    +0.000 A 
ATOM      9  C   UNL     1      56.215  38.048  74.948  0.00  0.00    +0.000 A 
ATOM     10  C   UNL     1      58.355  36.689  73.825  0.00  0.00    +0.000 A 
ATOM     11  C   UNL     1      57.096  37.334  75.783  0.00  0.00    +0.000 A 
ATOM     12  C   UNL     1      58.166  36.653  75.216  0.00  0.00    +0.000 A 
ATOM     13  C   UNL     1      56.898  37.318  77.250  0.00  0.00    +0.000 C 
ATOM     14  C   UNL     1      59.096  35.898  76.078  0.00  0.00    +0.000 C 
ATOM     15  C   UNL     1      57.786  36.503  78.112  0.00  0.00    +0.000 A 
ATOM     16  C   UNL     1      58.860  35.826  77.531  0.00  0.00    +0.000 A 
ATOM     17  C   UNL     1      57.593  36.393  79.498  0.00  0.00    +0.000 A 
ATOM     18  C   UNL     1      59.731  35.055  78.318  0.00  0.00    +0.000 A 
ATOM     19  C   UNL     1      58.447  35.603  80.278  0.00  0.00    +0.000 A 
ATOM     20  C   UNL     1      59.522  34.943  79.689  0.00  0.00    +0.000 A 
ENDROOT
BRANCH   4  21
ATOM     21  O   UNL     1      57.465  39.656  70.643  0.00  0.00    +0.000 OA
ATOM     22  H   UNL     1      57.038  40.182  71.352  0.00  0.00    +0.000 HD
ENDBRANCH   4  21
BRANCH   9  23
ATOM     23  O   UNL     1      55.140  38.737  75.459  0.00  0.00    +0.000 OA
ATOM     24  H   UNL     1      54.360  38.134  75.481  0.00  0.00    +0.000 HD
ENDBRANCH   9  23
BRANCH  10  25
ATOM     25  O   UNL     1      59.391  36.024  73.215  0.00  0.00    +0.000 OA
ATOM     26  H   UNL     1      59.919  36.668  72.690  0.00  0.00    +0.000 HD
ENDBRANCH  10  25
BRANCH   4  28
ATOM     27  O   UNL     1      57.597  37.003  68.771  0.00  0.00    +0.000 OA
ATOM     28  C   UNL     1      56.816  37.855  69.212  0.00  0.00    +0.000 C 
BRANCH  28  29
ATOM     29  C   UNL     1      55.761  38.471  68.296  0.00  0.00    +0.000 C 
BRANCH  29  30
ATOM     30  O   UNL     1      56.019  39.851  68.065  0.00  0.00    +0.000 OA
ATOM     31  H   UNL     1      55.647  40.329  68.835  0.00  0.00    +0.000 HD
ENDBRANCH  29  30
ENDBRANCH  28  29
ENDBRANCH   4  28
BRANCH  17  32
ATOM     32  O   UNL     1      56.517  36.957  80.129  0.00  0.00    +0.000 OA
ATOM     33  C   UNL     1      56.477  36.568  81.504  0.00  0.00    +0.000 C 
ENDBRANCH  17  32
BRANCH   3  34
ATOM     34  O   UNL     1      55.928  40.257  72.733  0.00  0.00    +0.000 OA
BRANCH  34  36
ATOM     35  O   UNL     1      53.816  41.090  72.108  0.00  0.00    +0.000 OA
ATOM     36  C   UNL     1      54.891  41.194  73.038  0.00  0.00    +0.000 C 
ATOM     37  C   UNL     1      55.486  42.604  73.078  0.00  0.00    +0.000 C 
ATOM     38  C   UNL     1      55.880  43.073  71.676  0.00  0.00    +0.000 C 
ATOM     39  C   UNL     1      54.671  42.942  70.728  0.00  0.00    +0.000 C 
ATOM     40  C   UNL     1      54.156  41.490  70.775  0.00  0.00    +0.000 C 
ATOM     41  C   UNL     1      52.912  41.283  69.918  0.00  0.00    +0.000 C 
BRANCH  38  42
ATOM     42  N   UNL     1      56.362  44.466  71.709  0.00  0.00    +0.000 NA
ATOM     43  H   UNL     1      56.228  44.859  72.638  0.00  0.00    +0.000 HD
ATOM     44  H   UNL     1      55.754  45.005  71.083  0.00  0.00    +0.000 HD
ENDBRANCH  38  42
BRANCH  39  45
ATOM     45  O   UNL     1      53.662  43.878  71.151  0.00  0.00    +0.000 OA
ATOM     46  H   UNL     1      52.811  43.408  71.155  0.00  0.00    +0.000 HD
ENDBRANCH  39  45
ENDBRANCH  34  36
ENDBRANCH   3  34
TORSDOF 11
ENDMDL
MODEL 4
REMARK VINA RESULT:      -6.6     22.919     25.127
REMARK  Name = 
REMARK  13 active torsions:
REMARK  status: ('A' for Active; 'I' for Inactive)
REMARK    1  A    between atoms: O_1  and  C_13
REMARK    2  A    between atoms: O_1  and  C_19
REMARK    3  A    between atoms: O_3  and  C_14
REMARK    4  A    between atoms: O_4  and  C_22
REMARK    5  A    between atoms: O_5  and  C_24
REMARK    6  A    between atoms: O_6  and  C_26
REMARK    7  A    between atoms: O_8  and  C_30
REMARK    8  A    between atoms: O_11  and  C_35
REMARK    9  A    between atoms: O_11  and  C_39
REMARK   10  A    between atoms: N_12  and  C_21
REMARK   11  A    between atoms: C_14  and  C_25
REMARK   12  A    between atoms: C_23  and  C_29
REMARK   13  A    between atoms: C_25  and  C_30
REMARK                            x       y       z     vdW  Elec       q    Type
REMARK                         _______ _______ _______ _____ _____    ______ ____
ROOT
ATOM      1  O   UNL     1      41.367  24.429  78.994  0.00  0.00    +0.000 OA
ATOM      2  O   UNL     1      37.209  21.929  81.168  0.00  0.00    +0.000 OA
ATOM      3  C   UNL     1      42.935  23.561  83.800  0.00  0.00    +0.000 C 
ATOM      4  C   UNL     1      41.784  22.643  85.861  0.00  0.00    +0.000 C 
ATOM      5  C   UNL     1      43.068  22.652  85.022  0.00  0.00    +0.000 C 
ATOM      6  C   UNL     1      40.593  22.152  85.025  0.00  0.00    +0.000 C 
ATOM      7  C   UNL     1      41.698  23.237  82.986  0.00  0.00    +0.000 A 
ATOM      8  C   UNL     1      40.584  22.607  83.576  0.00  0.00    +0.000 A 
ATOM      9  C   UNL     1      41.626  23.616  81.632  0.00  0.00    +0.000 A 
ATOM     10  C   UNL     1      39.446  22.351  82.791  0.00  0.00    +0.000 A 
ATOM     11  C   UNL     1      40.478  23.366  80.856  0.00  0.00    +0.000 A 
ATOM     12  C   UNL     1      39.388  22.730  81.439  0.00  0.00    +0.000 A 
ATOM     13  C   UNL     1      40.421  23.786  79.438  0.00  0.00    +0.000 C 
ATOM     14  C   UNL     1      38.180  22.459  80.637  0.00  0.00    +0.000 C 
ATOM     15  C   UNL     1      39.238  23.451  78.609  0.00  0.00    +0.000 A 
ATOM     16  C   UNL     1      38.148  22.816  79.208  0.00  0.00    +0.000 A 
ATOM     17  C   UNL     1      39.168  23.760  77.241  0.00  0.00    +0.000 A 
ATOM     18  C   UNL     1      37.005  22.496  78.458  0.00  0.00    +0.000 A 
ATOM     19  C   UNL     1      38.038  23.416  76.489  0.00  0.00    +0.000 A 
ATOM     20  C   UNL     1      36.953  22.795  77.100  0.00  0.00    +0.000 A 
ENDROOT
BRANCH   4  21
ATOM     21  O   UNL     1      41.512  23.950  86.382  0.00  0.00    +0.000 OA
ATOM     22  H   UNL     1      41.492  24.565  85.619  0.00  0.00    +0.000 HD
ENDBRANCH   4  21
BRANCH   9  23
ATOM     23  O   UNL     1      42.730  24.240  81.102  0.00  0.00    +0.000 OA
ATOM     24  H   UNL     1      42.575  24.393  80.140  0.00  0.00    +0.000 HD
ENDBRANCH   9  23
BRANCH  10  25
ATOM     25  O   UNL     1      38.401  21.711  83.411  0.00  0.00    +0.000 OA
ATOM     26  H   UNL     1      37.570  22.206  83.228  0.00  0.00    +0.000 HD
ENDBRANCH  10  25
BRANCH   4  28
ATOM     27  O   UNL     1      42.295  20.520  86.951  0.00  0.00    +0.000 OA
ATOM     28  C   UNL     1      41.956  21.703  87.067  0.00  0.00    +0.000 C 
BRANCH  28  29
ATOM     29  C   UNL     1      41.669  22.283  88.450  0.00  0.00    +0.000 C 
BRANCH  29  30
ATOM     30  O   UNL     1      40.288  22.589  88.607  0.00  0.00    +0.000 OA
ATOM     31  H   UNL     1      40.112  23.353  88.020  0.00  0.00    +0.000 HD
ENDBRANCH  29  30
ENDBRANCH  28  29
ENDBRANCH   4  28
BRANCH  17  32
ATOM     32  O   UNL     1      40.226  24.305  76.564  0.00  0.00    +0.000 OA
ATOM     33  C   UNL     1      39.839  24.675  75.239  0.00  0.00    +0.000 C 
ENDBRANCH  17  32
BRANCH   3  34
ATOM     34  O   UNL     1      42.778  24.918  84.248  0.00  0.00    +0.000 OA
BRANCH  34  36
ATOM     35  O   UNL     1      44.735  25.778  85.235  0.00  0.00    +0.000 OA
ATOM     36  C   UNL     1      43.958  25.699  84.043  0.00  0.00    +0.000 C 
ATOM     37  C   UNL     1      43.561  27.081  83.519  0.00  0.00    +0.000 C 
ATOM     38  C   UNL     1      42.872  27.904  84.610  0.00  0.00    +0.000 C 
ATOM     39  C   UNL     1      43.768  27.954  85.864  0.00  0.00    +0.000 C 
ATOM     40  C   UNL     1      44.108  26.514  86.293  0.00  0.00    +0.000 C 
ATOM     41  C   UNL     1      45.053  26.467  87.489  0.00  0.00    +0.000 C 
BRANCH  38  42
ATOM     42  N   UNL     1      42.578  29.266  84.130  0.00  0.00    +0.000 NA
ATOM     43  H   UNL     1      41.585  29.465  84.230  0.00  0.00    +0.000 HD
ATOM     44  H   UNL     1      42.768  29.272  83.122  0.00  0.00    +0.000 HD
ENDBRANCH  38  42
BRANCH  39  45
ATOM     45  O   UNL     1      44.953  28.705  85.541  0.00  0.00    +0.000 OA
ATOM     46  H   UNL     1      44.840  29.600  85.903  0.00  0.00    +0.000 HD
ENDBRANCH  39  45
ENDBRANCH  34  36
ENDBRANCH   3  34
TORSDOF 11
ENDMDL
MODEL 5
REMARK VINA RESULT:      -6.4      1.607      1.978
REMARK  Name = 
REMARK  13 active torsions:
REMARK  status: ('A' for Active; 'I' for Inactive)
REMARK    1  A    between atoms: O_1  and  C_13
REMARK    2  A    between atoms: O_1  and  C_19
REMARK    3  A    between atoms: O_3  and  C_14
REMARK    4  A    between atoms: O_4  and  C_22
REMARK    5  A    between atoms: O_5  and  C_24
REMARK    6  A    between atoms: O_6  and  C_26
REMARK    7  A    between atoms: O_8  and  C_30
REMARK    8  A    between atoms: O_11  and  C_35
REMARK    9  A    between atoms: O_11  and  C_39
REMARK   10  A    between atoms: N_12  and  C_21
REMARK   11  A    between atoms: C_14  and  C_25
REMARK   12  A    between atoms: C_23  and  C_29
REMARK   13  A    between atoms: C_25  and  C_30
REMARK                            x       y       z     vdW  Elec       q    Type
REMARK                         _______ _______ _______ _____ _____    ______ ____
ROOT
ATOM      1  O   UNL     1      62.789  32.057  74.009  0.00  0.00    +0.000 OA
ATOM      2  O   UNL     1      58.352  33.388  71.400  0.00  0.00    +0.000 OA
ATOM      3  C   UNL     1      60.794  35.755  76.951  0.00  0.00    +0.000 C 
ATOM      4  C   UNL     1      58.822  37.321  76.670  0.00  0.00    +0.000 C 
ATOM      5  C   UNL     1      59.603  36.424  77.639  0.00  0.00    +0.000 C 
ATOM      6  C   UNL     1      58.294  36.505  75.481  0.00  0.00    +0.000 C 
ATOM      7  C   UNL     1      60.382  35.038  75.680  0.00  0.00    +0.000 A 
ATOM      8  C   UNL     1      59.226  35.420  74.972  0.00  0.00    +0.000 A 
ATOM      9  C   UNL     1      61.191  34.011  75.158  0.00  0.00    +0.000 A 
ATOM     10  C   UNL     1      58.898  34.746  73.782  0.00  0.00    +0.000 A 
ATOM     11  C   UNL     1      60.862  33.350  73.959  0.00  0.00    +0.000 A 
ATOM     12  C   UNL     1      59.711  33.719  73.273  0.00  0.00    +0.000 A 
ATOM     13  C   UNL     1      61.735  32.282  73.423  0.00  0.00    +0.000 C 
ATOM     14  C   UNL     1      59.352  33.033  72.018  0.00  0.00    +0.000 C 
ATOM     15  C   UNL     1      61.340  31.541  72.201  0.00  0.00    +0.000 A 
ATOM     16  C   UNL     1      60.184  31.924  71.519  0.00  0.00    +0.000 A 
ATOM     17  C   UNL     1      62.094  30.470  71.695  0.00  0.00    +0.000 A 
ATOM     18  C   UNL     1      59.786  31.255  70.350  0.00  0.00    +0.000 A 
ATOM     19  C   UNL     1      61.682  29.786  70.545  0.00  0.00    +0.000 A 
ATOM     20  C   UNL     1      60.535  30.186  69.867  0.00  0.00    +0.000 A 
ENDROOT
BRANCH   4  21
ATOM     21  O   UNL     1      59.647  38.394  76.201  0.00  0.00    +0.000 OA
ATOM     22  H   UNL     1      60.145  38.057  75.426  0.00  0.00    +0.000 HD
ENDBRANCH   4  21
BRANCH   9  23
ATOM     23  O   UNL     1      62.317  33.682  75.874  0.00  0.00    +0.000 OA
ATOM     24  H   UNL     1      62.927  33.175  75.288  0.00  0.00    +0.000 HD
ENDBRANCH   9  23
BRANCH  10  25
ATOM     25  O   UNL     1      57.745  35.141  73.149  0.00  0.00    +0.000 OA
ATOM     26  H   UNL     1      57.970  35.814  72.467  0.00  0.00    +0.000 HD
ENDBRANCH  10  25
BRANCH   4  28
ATOM     27  O   UNL     1      57.329  39.152  77.282  0.00  0.00    +0.000 OA
ATOM     28  C   UNL     1      57.625  37.957  77.398  0.00  0.00    +0.000 C 
BRANCH  28  29
ATOM     29  C   UNL     1      56.802  37.052  78.312  0.00  0.00    +0.000 C 
BRANCH  29  30
ATOM     30  O   UNL     1      55.536  36.751  77.736  0.00  0.00    +0.000 OA
ATOM     31  H   UNL     1      54.883  36.827  78.462  0.00  0.00    +0.000 HD
ENDBRANCH  29  30
ENDBRANCH  28  29
ENDBRANCH   4  28
BRANCH  17  32
ATOM     32  O   UNL     1      63.192  29.981  72.352  0.00  0.00    +0.000 OA
ATOM     33  C   UNL     1      64.275  29.777  71.441  0.00  0.00    +0.000 C 
ENDBRANCH  17  32
BRANCH   3  34
ATOM     34  O   UNL     1      61.729  36.772  76.555  0.00  0.00    +0.000 OA
BRANCH  34  36
ATOM     35  O   UNL     1      63.858  36.274  75.679  0.00  0.00    +0.000 OA
ATOM     36  C   UNL     1      62.469  36.405  75.387  0.00  0.00    +0.000 C 
ATOM     37  C   UNL     1      62.205  37.432  74.283  0.00  0.00    +0.000 C 
ATOM     38  C   UNL     1      62.860  38.775  74.615  0.00  0.00    +0.000 C 
ATOM     39  C   UNL     1      64.358  38.561  74.911  0.00  0.00    +0.000 C 
ATOM     40  C   UNL     1      64.500  37.508  76.027  0.00  0.00    +0.000 C 
ATOM     41  C   UNL     1      65.956  37.178  76.338  0.00  0.00    +0.000 C 
BRANCH  38  42
ATOM     42  N   UNL     1      62.684  39.729  73.505  0.00  0.00    +0.000 NA
ATOM     43  H   UNL     1      62.984  39.305  72.630  0.00  0.00    +0.000 HD
ATOM     44  H   UNL     1      63.328  40.508  73.679  0.00  0.00    +0.000 HD
ENDBRANCH  38  42
BRANCH  39  45
ATOM     45  O   UNL     1      65.002  38.137  73.696  0.00  0.00    +0.000 OA
ATOM     46  H   UNL     1      65.582  37.389  73.918  0.00  0.00    +0.000 HD
ENDBRANCH  39  45
ENDBRANCH  34  36
ENDBRANCH   3  34
TORSDOF 11
ENDMDL
MODEL 6
REMARK VINA RESULT:      -6.1      5.944      9.713
REMARK  Name = 
REMARK  13 active torsions:
REMARK  status: ('A' for Active; 'I' for Inactive)
REMARK    1  A    between atoms: O_1  and  C_13
REMARK    2  A    between atoms: O_1  and  C_19
REMARK    3  A    between atoms: O_3  and  C_14
REMARK    4  A    between atoms: O_4  and  C_22
REMARK    5  A    between atoms: O_5  and  C_24
REMARK    6  A    between atoms: O_6  and  C_26
REMARK    7  A    between atoms: O_8  and  C_30
REMARK    8  A    between atoms: O_11  and  C_35
REMARK    9  A    between atoms: O_11  and  C_39
REMARK   10  A    between atoms: N_12  and  C_21
REMARK   11  A    between atoms: C_14  and  C_25
REMARK   12  A    between atoms: C_23  and  C_29
REMARK   13  A    between atoms: C_25  and  C_30
REMARK                            x       y       z     vdW  Elec       q    Type
REMARK                         _______ _______ _______ _____ _____    ______ ____
ROOT
ATOM      1  O   UNL     1      56.707  38.598  76.241  0.00  0.00    +0.000 OA
ATOM      2  O   UNL     1      60.079  35.656  73.370  0.00  0.00    +0.000 OA
ATOM      3  C   UNL     1      55.054  39.317  71.439  0.00  0.00    +0.000 C 
ATOM      4  C   UNL     1      55.955  38.628  69.173  0.00  0.00    +0.000 C 
ATOM      5  C   UNL     1      54.704  38.785  70.048  0.00  0.00    +0.000 C 
ATOM      6  C   UNL     1      56.954  37.659  69.821  0.00  0.00    +0.000 C 
ATOM      7  C   UNL     1      56.143  38.496  72.101  0.00  0.00    +0.000 A 
ATOM      8  C   UNL     1      57.057  37.747  71.333  0.00  0.00    +0.000 A 
ATOM      9  C   UNL     1      56.288  38.517  73.500  0.00  0.00    +0.000 A 
ATOM     10  C   UNL     1      58.069  37.023  71.988  0.00  0.00    +0.000 A 
ATOM     11  C   UNL     1      57.312  37.798  74.148  0.00  0.00    +0.000 A 
ATOM     12  C   UNL     1      58.201  37.048  73.387  0.00  0.00    +0.000 A 
ATOM     13  C   UNL     1      57.453  37.847  75.620  0.00  0.00    +0.000 C 
ATOM     14  C   UNL     1      59.276  36.288  74.051  0.00  0.00    +0.000 C 
ATOM     15  C   UNL     1      58.486  37.028  76.297  0.00  0.00    +0.000 A 
ATOM     16  C   UNL     1      59.376  36.282  75.521  0.00  0.00    +0.000 A 
ATOM     17  C   UNL     1      58.611  36.981  77.695  0.00  0.00    +0.000 A 
ATOM     18  C   UNL     1      60.376  35.505  76.127  0.00  0.00    +0.000 A 
ATOM     19  C   UNL     1      59.592  36.184  78.297  0.00  0.00    +0.000 A 
ATOM     20  C   UNL     1      60.482  35.456  77.513  0.00  0.00    +0.000 A 
ENDROOT
BRANCH   4  21
ATOM     21  O   UNL     1      56.578  39.900  68.952  0.00  0.00    +0.000 OA
ATOM     22  H   UNL     1      56.808  39.947  68.000  0.00  0.00    +0.000 HD
ENDBRANCH   4  21
BRANCH   9  23
ATOM     23  O   UNL     1      55.383  39.272  74.208  0.00  0.00    +0.000 OA
ATOM     24  H   UNL     1      54.510  39.230  73.750  0.00  0.00    +0.000 HD
ENDBRANCH   9  23
BRANCH  10  25
ATOM     25  O   UNL     1      58.914  36.289  71.192  0.00  0.00    +0.000 OA
ATOM     26  H   UNL     1      59.468  36.906  70.662  0.00  0.00    +0.000 HD
ENDBRANCH  10  25
BRANCH   4  28
ATOM     27  O   UNL     1      56.268  38.210  66.789  0.00  0.00    +0.000 OA
ATOM     28  C   UNL     1      55.559  38.075  67.793  0.00  0.00    +0.000 C 
BRANCH  28  29
ATOM     29  C   UNL     1      54.219  37.351  67.689  0.00  0.00    +0.000 C 
BRANCH  29  30
ATOM     30  O   UNL     1      54.350  35.971  68.007  0.00  0.00    +0.000 OA
ATOM     31  H   UNL     1      54.577  35.519  67.168  0.00  0.00    +0.000 HD
ENDBRANCH  29  30
ENDBRANCH  28  29
ENDBRANCH   4  28
BRANCH  17  32
ATOM     32  O   UNL     1      57.726  37.616  78.525  0.00  0.00    +0.000 OA
ATOM     33  C   UNL     1      57.057  36.672  79.363  0.00  0.00    +0.000 C 
ENDBRANCH  17  32
BRANCH   3  34
ATOM     34  O   UNL     1      55.580  40.648  71.305  0.00  0.00    +0.000 OA
BRANCH  34  36
ATOM     35  O   UNL     1      54.927  42.355  69.820  0.00  0.00    +0.000 OA
ATOM     36  C   UNL     1      54.566  41.602  70.975  0.00  0.00    +0.000 C 
ATOM     37  C   UNL     1      54.303  42.495  72.189  0.00  0.00    +0.000 C 
ATOM     38  C   UNL     1      55.487  43.430  72.449  0.00  0.00    +0.000 C 
ATOM     39  C   UNL     1      55.817  44.217  71.164  0.00  0.00    +0.000 C 
ATOM     40  C   UNL     1      56.054  43.219  70.015  0.00  0.00    +0.000 C 
ATOM     41  C   UNL     1      56.317  43.913  68.683  0.00  0.00    +0.000 C 
BRANCH  38  42
ATOM     42  N   UNL     1      55.189  44.353  73.558  0.00  0.00    +0.000 NA
ATOM     43  H   UNL     1      56.034  44.535  74.097  0.00  0.00    +0.000 HD
ATOM     44  H   UNL     1      54.551  43.860  74.192  0.00  0.00    +0.000 HD
ENDBRANCH  38  42
BRANCH  39  45
ATOM     45  O   UNL     1      54.716  45.101  70.882  0.00  0.00    +0.000 OA
ATOM     46  H   UNL     1      54.727  45.286  69.928  0.00  0.00    +0.000 HD
ENDBRANCH  39  45
ENDBRANCH  34  36
ENDBRANCH   3  34
TORSDOF 11
ENDMDL
MODEL 7
REMARK VINA RESULT:      -6.1     18.808     21.293
REMARK  Name = 
REMARK  13 active torsions:
REMARK  status: ('A' for Active; 'I' for Inactive)
REMARK    1  A    between atoms: O_1  and  C_13
REMARK    2  A    between atoms: O_1  and  C_19
REMARK    3  A    between atoms: O_3  and  C_14
REMARK    4  A    between atoms: O_4  and  C_22
REMARK    5  A    between atoms: O_5  and  C_24
REMARK    6  A    between atoms: O_6  and  C_26
REMARK    7  A    between atoms: O_8  and  C_30
REMARK    8  A    between atoms: O_11  and  C_35
REMARK    9  A    between atoms: O_11  and  C_39
REMARK   10  A    between atoms: N_12  and  C_21
REMARK   11  A    between atoms: C_14  and  C_25
REMARK   12  A    between atoms: C_23  and  C_29
REMARK   13  A    between atoms: C_25  and  C_30
REMARK                            x       y       z     vdW  Elec       q    Type
REMARK                         _______ _______ _______ _____ _____    ______ ____
ROOT
ATOM      1  O   UNL     1      46.227  22.787  82.986  0.00  0.00    +0.000 OA
ATOM      2  O   UNL     1      48.406  26.454  86.159  0.00  0.00    +0.000 OA
ATOM      3  C   UNL     1      50.485  20.470  84.663  0.00  0.00    +0.000 C 
ATOM      4  C   UNL     1      52.456  21.254  86.049  0.00  0.00    +0.000 C 
ATOM      5  C   UNL     1      51.465  20.113  85.782  0.00  0.00    +0.000 C 
ATOM      6  C   UNL     1      51.713  22.536  86.451  0.00  0.00    +0.000 C 
ATOM      7  C   UNL     1      49.804  21.801  84.910  0.00  0.00    +0.000 A 
ATOM      8  C   UNL     1      50.404  22.784  85.722  0.00  0.00    +0.000 A 
ATOM      9  C   UNL     1      48.580  22.094  84.280  0.00  0.00    +0.000 A 
ATOM     10  C   UNL     1      49.750  24.016  85.901  0.00  0.00    +0.000 A 
ATOM     11  C   UNL     1      47.938  23.335  84.456  0.00  0.00    +0.000 A 
ATOM     12  C   UNL     1      48.527  24.296  85.270  0.00  0.00    +0.000 A 
ATOM     13  C   UNL     1      46.658  23.626  83.771  0.00  0.00    +0.000 C 
ATOM     14  C   UNL     1      47.864  25.599  85.466  0.00  0.00    +0.000 C 
ATOM     15  C   UNL     1      45.953  24.906  84.022  0.00  0.00    +0.000 A 
ATOM     16  C   UNL     1      46.557  25.864  84.839  0.00  0.00    +0.000 A 
ATOM     17  C   UNL     1      44.701  25.196  83.457  0.00  0.00    +0.000 A 
ATOM     18  C   UNL     1      45.925  27.092  85.088  0.00  0.00    +0.000 A 
ATOM     19  C   UNL     1      44.061  26.412  83.728  0.00  0.00    +0.000 A 
ATOM     20  C   UNL     1      44.678  27.364  84.534  0.00  0.00    +0.000 A 
ENDROOT
BRANCH   4  21
ATOM     21  O   UNL     1      53.266  21.498  84.892  0.00  0.00    +0.000 OA
ATOM     22  H   UNL     1      52.762  22.106  84.311  0.00  0.00    +0.000 HD
ENDBRANCH   4  21
BRANCH   9  23
ATOM     23  O   UNL     1      48.039  21.111  83.486  0.00  0.00    +0.000 OA
ATOM     24  H   UNL     1      48.731  20.432  83.309  0.00  0.00    +0.000 HD
ENDBRANCH   9  23
BRANCH  10  25
ATOM     25  O   UNL     1      50.367  24.927  86.725  0.00  0.00    +0.000 OA
ATOM     26  H   UNL     1      49.874  25.778  86.685  0.00  0.00    +0.000 HD
ENDBRANCH  10  25
BRANCH   4  28
ATOM     27  O   UNL     1      53.006  20.482  88.297  0.00  0.00    +0.000 OA
ATOM     28  C   UNL     1      53.408  20.860  87.191  0.00  0.00    +0.000 C 
BRANCH  28  29
ATOM     29  C   UNL     1      54.907  20.970  86.921  0.00  0.00    +0.000 C 
BRANCH  29  30
ATOM     30  O   UNL     1      55.309  22.329  86.788  0.00  0.00    +0.000 OA
ATOM     31  H   UNL     1      56.136  22.316  86.264  0.00  0.00    +0.000 HD
ENDBRANCH  29  30
ENDBRANCH  28  29
ENDBRANCH   4  28
BRANCH  17  32
ATOM     32  O   UNL     1      44.008  24.278  82.715  0.00  0.00    +0.000 OA
ATOM     33  C   UNL     1      42.703  24.072  83.259  0.00  0.00    +0.000 C 
ENDBRANCH  17  32
BRANCH   3  34
ATOM     34  O   UNL     1      51.219  20.615  83.435  0.00  0.00    +0.000 OA
BRANCH  34  36
ATOM     35  O   UNL     1      52.666  19.360  82.065  0.00  0.00    +0.000 OA
ATOM     36  C   UNL     1      51.432  19.362  82.778  0.00  0.00    +0.000 C 
ATOM     37  C   UNL     1      50.238  19.063  81.869  0.00  0.00    +0.000 C 
ATOM     38  C   UNL     1      50.216  20.008  80.664  0.00  0.00    +0.000 C 
ATOM     39  C   UNL     1      51.575  19.949  79.937  0.00  0.00    +0.000 C 
ATOM     40  C   UNL     1      52.696  20.258  80.948  0.00  0.00    +0.000 C 
ATOM     41  C   UNL     1      54.086  20.152  80.330  0.00  0.00    +0.000 C 
BRANCH  38  42
ATOM     42  N   UNL     1      49.121  19.653  79.743  0.00  0.00    +0.000 NA
ATOM     43  H   UNL     1      49.052  20.346  79.001  0.00  0.00    +0.000 HD
ATOM     44  H   UNL     1      48.249  19.722  80.278  0.00  0.00    +0.000 HD
ENDBRANCH  38  42
BRANCH  39  45
ATOM     45  O   UNL     1      51.724  18.637  79.363  0.00  0.00    +0.000 OA
ATOM     46  H   UNL     1      51.068  18.554  78.650  0.00  0.00    +0.000 HD
ENDBRANCH  39  45
ENDBRANCH  34  36
ENDBRANCH   3  34
TORSDOF 11
ENDMDL
MODEL 8
REMARK VINA RESULT:      -6.0     45.705     48.452
REMARK  Name = 
REMARK  13 active torsions:
REMARK  status: ('A' for Active; 'I' for Inactive)
REMARK    1  A    between atoms: O_1  and  C_13
REMARK    2  A    between atoms: O_1  and  C_19
REMARK    3  A    between atoms: O_3  and  C_14
REMARK    4  A    between atoms: O_4  and  C_22
REMARK    5  A    between atoms: O_5  and  C_24
REMARK    6  A    between atoms: O_6  and  C_26
REMARK    7  A    between atoms: O_8  and  C_30
REMARK    8  A    between atoms: O_11  and  C_35
REMARK    9  A    between atoms: O_11  and  C_39
REMARK   10  A    between atoms: N_12  and  C_21
REMARK   11  A    between atoms: C_14  and  C_25
REMARK   12  A    between atoms: C_23  and  C_29
REMARK   13  A    between atoms: C_25  and  C_30
REMARK                            x       y       z     vdW  Elec       q    Type
REMARK                         _______ _______ _______ _____ _____    ______ ____
ROOT
ATOM      1  O   UNL     1      19.035  15.328  87.163  0.00  0.00    +0.000 OA
ATOM      2  O   UNL     1      16.627  19.507  84.926  0.00  0.00    +0.000 OA
ATOM      3  C   UNL     1      18.309  18.495  91.133  0.00  0.00    +0.000 C 
ATOM      4  C   UNL     1      17.461  20.875  91.321  0.00  0.00    +0.000 C 
ATOM      5  C   UNL     1      17.437  19.467  91.929  0.00  0.00    +0.000 C 
ATOM      6  C   UNL     1      16.952  20.849  89.872  0.00  0.00    +0.000 C 
ATOM      7  C   UNL     1      17.966  18.509  89.656  0.00  0.00    +0.000 A 
ATOM      8  C   UNL     1      17.361  19.633  89.061  0.00  0.00    +0.000 A 
ATOM      9  C   UNL     1      18.303  17.409  88.845  0.00  0.00    +0.000 A 
ATOM     10  C   UNL     1      17.087  19.614  87.682  0.00  0.00    +0.000 A 
ATOM     11  C   UNL     1      18.035  17.402  87.462  0.00  0.00    +0.000 A 
ATOM     12  C   UNL     1      17.424  18.508  86.883  0.00  0.00    +0.000 A 
ATOM     13  C   UNL     1      18.411  16.239  86.627  0.00  0.00    +0.000 C 
ATOM     14  C   UNL     1      17.135  18.513  85.437  0.00  0.00    +0.000 C 
ATOM     15  C   UNL     1      18.057  16.210  85.188  0.00  0.00    +0.000 A 
ATOM     16  C   UNL     1      17.447  17.329  84.617  0.00  0.00    +0.000 A 
ATOM     17  C   UNL     1      18.323  15.100  84.371  0.00  0.00    +0.000 A 
ATOM     18  C   UNL     1      17.110  17.344  83.254  0.00  0.00    +0.000 A 
ATOM     19  C   UNL     1      17.963  15.106  83.018  0.00  0.00    +0.000 A 
ATOM     20  C   UNL     1      17.367  16.232  82.457  0.00  0.00    +0.000 A 
ENDROOT
BRANCH   4  21
ATOM     21  O   UNL     1      18.785  21.421  91.365  0.00  0.00    +0.000 OA
ATOM     22  H   UNL     1      18.883  22.003  90.582  0.00  0.00    +0.000 HD
ENDBRANCH   4  21
BRANCH   9  23
ATOM     23  O   UNL     1      18.904  16.339  89.466  0.00  0.00    +0.000 OA
ATOM     24  H   UNL     1      19.875  16.385  89.303  0.00  0.00    +0.000 HD
ENDBRANCH   9  23
BRANCH  10  25
ATOM     25  O   UNL     1      16.472  20.726  87.160  0.00  0.00    +0.000 OA
ATOM     26  H   UNL     1      16.502  20.675  86.177  0.00  0.00    +0.000 HD
ENDBRANCH  10  25
BRANCH   4  28
ATOM     27  O   UNL     1      16.776  22.080  93.329  0.00  0.00    +0.000 OA
ATOM     28  C   UNL     1      16.559  21.813  92.141  0.00  0.00    +0.000 C 
BRANCH  28  29
ATOM     29  C   UNL     1      15.342  22.407  91.436  0.00  0.00    +0.000 C 
BRANCH  29  30
ATOM     30  O   UNL     1      14.160  21.676  91.741  0.00  0.00    +0.000 OA
ATOM     31  H   UNL     1      13.963  21.861  92.682  0.00  0.00    +0.000 HD
ENDBRANCH  29  30
ENDBRANCH  28  29
ENDBRANCH   4  28
BRANCH  17  32
ATOM     32  O   UNL     1      18.841  13.936  84.873  0.00  0.00    +0.000 OA
ATOM     33  C   UNL     1      20.034  13.573  84.174  0.00  0.00    +0.000 C 
ENDBRANCH  17  32
BRANCH   3  34
ATOM     34  O   UNL     1      19.680  18.916  91.232  0.00  0.00    +0.000 OA
BRANCH  34  36
ATOM     35  O   UNL     1      21.034  19.671  93.004  0.00  0.00    +0.000 OA
ATOM     36  C   UNL     1      20.259  18.587  92.497  0.00  0.00    +0.000 C 
ATOM     37  C   UNL     1      21.083  17.305  92.353  0.00  0.00    +0.000 C 
ATOM     38  C   UNL     1      22.347  17.556  91.526  0.00  0.00    +0.000 C 
ATOM     39  C   UNL     1      23.138  18.731  92.135  0.00  0.00    +0.000 C 
ATOM     40  C   UNL     1      22.210  19.957  92.237  0.00  0.00    +0.000 C 
ATOM     41  C   UNL     1      22.891  21.152  92.896  0.00  0.00    +0.000 C 
BRANCH  38  42
ATOM     42  N   UNL     1      23.184  16.343  91.473  0.00  0.00    +0.000 NA
ATOM     43  H   UNL     1      24.168  16.595  91.542  0.00  0.00    +0.000 HD
ATOM     44  H   UNL     1      23.060  15.938  90.538  0.00  0.00    +0.000 HD
ENDBRANCH  38  42
BRANCH  39  45
ATOM     45  O   UNL     1      23.627  18.326  93.426  0.00  0.00    +0.000 OA
ATOM     46  H   UNL     1      23.335  18.992  94.072  0.00  0.00    +0.000 HD
ENDBRANCH  39  45
ENDBRANCH  34  36
ENDBRANCH   3  34
TORSDOF 11
ENDMDL
MODEL 9
REMARK VINA RESULT:      -5.9     23.748     26.642
REMARK  Name = 
REMARK  13 active torsions:
REMARK  status: ('A' for Active; 'I' for Inactive)
REMARK    1  A    between atoms: O_1  and  C_13
REMARK    2  A    between atoms: O_1  and  C_19
REMARK    3  A    between atoms: O_3  and  C_14
REMARK    4  A    between atoms: O_4  and  C_22
REMARK    5  A    between atoms: O_5  and  C_24
REMARK    6  A    between atoms: O_6  and  C_26
REMARK    7  A    between atoms: O_8  and  C_30
REMARK    8  A    between atoms: O_11  and  C_35
REMARK    9  A    between atoms: O_11  and  C_39
REMARK   10  A    between atoms: N_12  and  C_21
REMARK   11  A    between atoms: C_14  and  C_25
REMARK   12  A    between atoms: C_23  and  C_29
REMARK   13  A    between atoms: C_25  and  C_30
REMARK                            x       y       z     vdW  Elec       q    Type
REMARK                         _______ _______ _______ _____ _____    ______ ____
ROOT
ATOM      1  O   UNL     1      43.990  24.052  82.386  0.00  0.00    +0.000 OA
ATOM      2  O   UNL     1      40.929  26.415  86.035  0.00  0.00    +0.000 OA
ATOM      3  C   UNL     1      39.371  22.003  81.510  0.00  0.00    +0.000 C 
ATOM      4  C   UNL     1      37.147  22.157  82.715  0.00  0.00    +0.000 C 
ATOM      5  C   UNL     1      37.855  22.133  81.354  0.00  0.00    +0.000 C 
ATOM      6  C   UNL     1      37.646  23.334  83.565  0.00  0.00    +0.000 C 
ATOM      7  C   UNL     1      39.933  23.048  82.452  0.00  0.00    +0.000 A 
ATOM      8  C   UNL     1      39.127  23.644  83.442  0.00  0.00    +0.000 A 
ATOM      9  C   UNL     1      41.295  23.397  82.385  0.00  0.00    +0.000 A 
ATOM     10  C   UNL     1      39.698  24.588  84.314  0.00  0.00    +0.000 A 
ATOM     11  C   UNL     1      41.862  24.335  83.269  0.00  0.00    +0.000 A 
ATOM     12  C   UNL     1      41.058  24.932  84.233  0.00  0.00    +0.000 A 
ATOM     13  C   UNL     1      43.300  24.675  83.188  0.00  0.00    +0.000 C 
ATOM     14  C   UNL     1      41.637  25.918  85.165  0.00  0.00    +0.000 C 
ATOM     15  C   UNL     1      43.870  25.718  84.074  0.00  0.00    +0.000 A 
ATOM     16  C   UNL     1      43.053  26.307  85.041  0.00  0.00    +0.000 A 
ATOM     17  C   UNL     1      45.209  26.131  83.983  0.00  0.00    +0.000 A 
ATOM     18  C   UNL     1      43.561  27.289  85.906  0.00  0.00    +0.000 A 
ATOM     19  C   UNL     1      45.707  27.128  84.830  0.00  0.00    +0.000 A 
ATOM     20  C   UNL     1      44.887  27.699  85.798  0.00  0.00    +0.000 A 
ENDROOT
BRANCH   4  21
ATOM     21  O   UNL     1      37.358  20.923  83.414  0.00  0.00    +0.000 OA
ATOM     22  H   UNL     1      38.110  21.065  84.027  0.00  0.00    +0.000 HD
ENDBRANCH   4  21
BRANCH   9  23
ATOM     23  O   UNL     1      42.048  22.780  81.413  0.00  0.00    +0.000 OA
ATOM     24  H   UNL     1      42.103  23.377  80.630  0.00  0.00    +0.000 HD
ENDBRANCH   9  23
BRANCH  10  25
ATOM     25  O   UNL     1      38.859  25.158  85.240  0.00  0.00    +0.000 OA
ATOM     26  H   UNL     1      38.133  24.525  85.444  0.00  0.00    +0.000 HD
ENDBRANCH  10  25
BRANCH   4  28
ATOM     27  O   UNL     1      34.990  21.610  81.715  0.00  0.00    +0.000 OA
ATOM     28  C   UNL     1      35.630  22.306  82.511  0.00  0.00    +0.000 C 
BRANCH  28  29
ATOM     29  C   UNL     1      34.918  23.383  83.327  0.00  0.00    +0.000 C 
BRANCH  29  30
ATOM     30  O   UNL     1      34.382  22.849  84.532  0.00  0.00    +0.000 OA
ATOM     31  H   UNL     1      33.448  23.139  84.565  0.00  0.00    +0.000 HD
ENDBRANCH  29  30
ENDBRANCH  28  29
ENDBRANCH   4  28
BRANCH  17  32
ATOM     32  O   UNL     1      46.049  25.663  83.009  0.00  0.00    +0.000 OA
ATOM     33  C   UNL     1      47.256  25.158  83.584  0.00  0.00    +0.000 C 
ENDBRANCH  17  32
BRANCH   3  34
ATOM     34  O   UNL     1      39.666  20.726  82.101  0.00  0.00    +0.000 OA
BRANCH  34  36
ATOM     35  O   UNL     1      39.661  18.386  81.836  0.00  0.00    +0.000 OA
ATOM     36  C   UNL     1      39.413  19.641  81.205  0.00  0.00    +0.000 C 
ATOM     37  C   UNL     1      40.253  19.828  79.940  0.00  0.00    +0.000 C 
ATOM     38  C   UNL     1      41.739  19.605  80.231  0.00  0.00    +0.000 C 
ATOM     39  C   UNL     1      41.935  18.231  80.903  0.00  0.00    +0.000 C 
ATOM     40  C   UNL     1      41.039  18.155  82.154  0.00  0.00    +0.000 C 
ATOM     41  C   UNL     1      41.114  16.799  82.846  0.00  0.00    +0.000 C 
BRANCH  38  42
ATOM     42  N   UNL     1      42.532  19.691  78.991  0.00  0.00    +0.000 NA
ATOM     43  H   UNL     1      43.358  19.101  79.064  0.00  0.00    +0.000 HD
ATOM     44  H   UNL     1      42.877  20.655  78.925  0.00  0.00    +0.000 HD
ENDBRANCH  38  42
BRANCH  39  45
ATOM     45  O   UNL     1      41.598  17.209  79.946  0.00  0.00    +0.000 OA
ATOM     46  H   UNL     1      42.301  17.193  79.276  0.00  0.00    +0.000 HD
ENDBRANCH  39  45
ENDBRANCH  34  36
ENDBRANCH   3  34
TORSDOF 11
ENDMDL
