MODEL 1
REMARK VINA RESULT:      -6.4      0.000      0.000
REMARK  Name = Dronabinol.pdbqt.pdb
REMARK  3 active torsions:
REMARK  status: ('A' for Active; 'I' for Inactive)
REMARK    1  A    between atoms: C_13  and  O_18
REMARK    2  A    between atoms: C_16  and  C_20
REMARK    3  A    between atoms: C_21  and  C_22
REMARK                            x       y       z     vdW  Elec       q    Type
REMARK                         _______ _______ _______ _____ _____    ______ ____
ROOT
ATOM      1  O   UNL     1      58.701  35.811  79.249  0.00  0.00    +0.000 OA
ATOM      2  C   UNL     1      56.753  36.891  78.191  0.00  0.00    +0.000 A 
ATOM      3  C   UNL     1      57.619  37.185  77.024  0.00  0.00    +0.000 A 
ATOM      4  C   UNL     1      57.257  35.888  79.194  0.00  0.00    +0.000 C 
ATOM      5  C   UNL     1      55.437  37.460  78.062  0.00  0.00    +0.000 A 
ATOM      6  C   UNL     1      58.960  36.610  76.942  0.00  0.00    +0.000 A 
ATOM      7  C   UNL     1      54.969  38.320  76.873  0.00  0.00    +0.000 A 
ATOM      8  C   UNL     1      56.967  38.019  76.037  0.00  0.00    +0.000 A 
ATOM      9  C   UNL     1      55.836  38.626  75.771  0.00  0.00    +0.000 A 
ATOM     10  C   UNL     1      59.421  35.943  78.087  0.00  0.00    +0.000 A 
ATOM     11  C   UNL     1      56.796  36.309  80.616  0.00  0.00    +0.000 C 
ATOM     12  C   UNL     1      56.699  34.477  78.842  0.00  0.00    +0.000 C 
ATOM     13  C   UNL     1      59.809  36.692  75.831  0.00  0.00    +0.000 A 
ATOM     14  C   UNL     1      60.709  35.407  78.126  0.00  0.00    +0.000 A 
ATOM     15  C   UNL     1      55.828  39.993  75.163  0.00  0.00    +0.000 C 
ATOM     16  C   UNL     1      61.539  35.498  77.014  0.00  0.00    +0.000 A 
ATOM     17  C   UNL     1      61.091  36.138  75.864  0.00  0.00    +0.000 A 
ENDROOT
BRANCH  13  18
ATOM     18  O   UNL     1      59.396  37.311  74.686  0.00  0.00    +0.000 OA
ATOM     19  H   UNL     1      59.169  38.238  74.885  0.00  0.00    +0.000 HD
ENDBRANCH  13  18
BRANCH  16  20
ATOM     20  C   UNL     1      62.842  34.926  77.050  0.00  0.00    +0.000 C 
ATOM     21  C   UNL     1      64.250  34.322  77.094  0.00  0.00    +0.000 C 
BRANCH  21  22
ATOM     22  C   UNL     1      65.660  33.726  77.146  0.00  0.00    +0.000 C 
ATOM     23  C   UNL     1      67.071  33.131  77.202  0.00  0.00    +0.000 C 
ATOM     24  C   UNL     1      68.481  32.535  77.261  0.00  0.00    +0.000 C 
ENDBRANCH  21  22
ENDBRANCH  16  20
TORSDOF 3
ENDMDL
MODEL 2
REMARK VINA RESULT:      -6.0      4.888      7.155
REMARK  Name = Dronabinol.pdbqt.pdb
REMARK  3 active torsions:
REMARK  status: ('A' for Active; 'I' for Inactive)
REMARK    1  A    between atoms: C_13  and  O_18
REMARK    2  A    between atoms: C_16  and  C_20
REMARK    3  A    between atoms: C_21  and  C_22
REMARK                            x       y       z     vdW  Elec       q    Type
REMARK                         _______ _______ _______ _____ _____    ______ ____
ROOT
ATOM      1  O   UNL     1      55.729  38.020  73.040  0.00  0.00    +0.000 OA
ATOM      2  C   UNL     1      55.377  40.318  72.221  0.00  0.00    +0.000 A 
ATOM      3  C   UNL     1      55.379  40.764  73.636  0.00  0.00    +0.000 A 
ATOM      4  C   UNL     1      55.889  38.933  71.929  0.00  0.00    +0.000 C 
ATOM      5  C   UNL     1      55.087  41.388  71.303  0.00  0.00    +0.000 A 
ATOM      6  C   UNL     1      55.744  39.830  74.698  0.00  0.00    +0.000 A 
ATOM      7  C   UNL     1      54.767  42.835  71.721  0.00  0.00    +0.000 A 
ATOM      8  C   UNL     1      55.041  42.163  73.783  0.00  0.00    +0.000 A 
ATOM      9  C   UNL     1      54.736  43.238  73.097  0.00  0.00    +0.000 A 
ATOM     10  C   UNL     1      55.901  38.488  74.320  0.00  0.00    +0.000 A 
ATOM     11  C   UNL     1      55.076  38.323  70.754  0.00  0.00    +0.000 C 
ATOM     12  C   UNL     1      57.400  39.004  71.561  0.00  0.00    +0.000 C 
ATOM     13  C   UNL     1      55.926  40.168  76.045  0.00  0.00    +0.000 A 
ATOM     14  C   UNL     1      56.196  37.511  75.272  0.00  0.00    +0.000 A 
ATOM     15  C   UNL     1      53.678  44.178  73.584  0.00  0.00    +0.000 C 
ATOM     16  C   UNL     1      56.372  37.865  76.605  0.00  0.00    +0.000 A 
ATOM     17  C   UNL     1      56.240  39.193  76.995  0.00  0.00    +0.000 A 
ENDROOT
BRANCH  13  18
ATOM     18  O   UNL     1      55.806  41.465  76.458  0.00  0.00    +0.000 OA
ATOM     19  H   UNL     1      54.896  41.772  76.294  0.00  0.00    +0.000 HD
ENDBRANCH  13  18
BRANCH  16  20
ATOM     20  C   UNL     1      56.699  36.869  77.569  0.00  0.00    +0.000 C 
ATOM     21  C   UNL     1      57.063  35.803  78.608  0.00  0.00    +0.000 C 
BRANCH  21  22
ATOM     22  C   UNL     1      57.434  34.744  79.650  0.00  0.00    +0.000 C 
ATOM     23  C   UNL     1      57.809  33.682  80.689  0.00  0.00    +0.000 C 
ATOM     24  C   UNL     1      58.186  32.620  81.727  0.00  0.00    +0.000 C 
ENDBRANCH  21  22
ENDBRANCH  16  20
TORSDOF 3
ENDMDL
MODEL 3
REMARK VINA RESULT:      -5.7      1.735      2.181
REMARK  Name = Dronabinol.pdbqt.pdb
REMARK  3 active torsions:
REMARK  status: ('A' for Active; 'I' for Inactive)
REMARK    1  A    between atoms: C_13  and  O_18
REMARK    2  A    between atoms: C_16  and  C_20
REMARK    3  A    between atoms: C_21  and  C_22
REMARK                            x       y       z     vdW  Elec       q    Type
REMARK                         _______ _______ _______ _____ _____    ______ ____
ROOT
ATOM      1  O   UNL     1      58.941  36.599  77.603  0.00  0.00    +0.000 OA
ATOM      2  C   UNL     1      57.370  37.307  75.840  0.00  0.00    +0.000 A 
ATOM      3  C   UNL     1      58.444  37.040  74.852  0.00  0.00    +0.000 A 
ATOM      4  C   UNL     1      57.552  36.757  77.229  0.00  0.00    +0.000 C 
ATOM      5  C   UNL     1      56.192  37.874  75.238  0.00  0.00    +0.000 A 
ATOM      6  C   UNL     1      59.679  36.381  75.272  0.00  0.00    +0.000 A 
ATOM      7  C   UNL     1      56.054  38.217  73.742  0.00  0.00    +0.000 A 
ATOM      8  C   UNL     1      58.090  37.454  73.512  0.00  0.00    +0.000 A 
ATOM      9  C   UNL     1      57.119  37.986  72.809  0.00  0.00    +0.000 A 
ATOM     10  C   UNL     1      59.847  36.197  76.653  0.00  0.00    +0.000 A 
ATOM     11  C   UNL     1      56.941  37.748  78.257  0.00  0.00    +0.000 C 
ATOM     12  C   UNL     1      56.851  35.370  77.334  0.00  0.00    +0.000 C 
ATOM     13  C   UNL     1      60.696  35.944  74.413  0.00  0.00    +0.000 A 
ATOM     14  C   UNL     1      61.017  35.626  77.156  0.00  0.00    +0.000 A 
ATOM     15  C   UNL     1      57.414  38.990  71.740  0.00  0.00    +0.000 C 
ATOM     16  C   UNL     1      62.016  35.199  76.288  0.00  0.00    +0.000 A 
ATOM     17  C   UNL     1      61.857  35.354  74.917  0.00  0.00    +0.000 A 
ENDROOT
BRANCH  13  18
ATOM     18  O   UNL     1      60.567  36.080  73.060  0.00  0.00    +0.000 OA
ATOM     19  H   UNL     1      59.797  36.645  72.865  0.00  0.00    +0.000 HD
ENDBRANCH  13  18
BRANCH  16  20
ATOM     20  C   UNL     1      63.196  34.593  76.805  0.00  0.00    +0.000 C 
ATOM     21  C   UNL     1      64.462  33.928  77.359  0.00  0.00    +0.000 C 
BRANCH  21  22
ATOM     22  C   UNL     1      65.723  33.254  77.907  0.00  0.00    +0.000 C 
ATOM     23  C   UNL     1      66.982  32.577  78.459  0.00  0.00    +0.000 C 
ATOM     24  C   UNL     1      68.240  31.898  79.010  0.00  0.00    +0.000 C 
ENDBRANCH  21  22
ENDBRANCH  16  20
TORSDOF 3
ENDMDL
MODEL 4
REMARK VINA RESULT:      -5.5     45.110     48.764
REMARK  Name = Dronabinol.pdbqt.pdb
REMARK  3 active torsions:
REMARK  status: ('A' for Active; 'I' for Inactive)
REMARK    1  A    between atoms: C_13  and  O_18
REMARK    2  A    between atoms: C_16  and  C_20
REMARK    3  A    between atoms: C_21  and  C_22
REMARK                            x       y       z     vdW  Elec       q    Type
REMARK                         _______ _______ _______ _____ _____    ______ ____
ROOT
ATOM      1  O   UNL     1      24.939   5.441  85.867  0.00  0.00    +0.000 OA
ATOM      2  C   UNL     1      25.557   7.419  87.201  0.00  0.00    +0.000 A 
ATOM      3  C   UNL     1      24.142   7.855  87.109  0.00  0.00    +0.000 A 
ATOM      4  C   UNL     1      25.871   5.996  86.825  0.00  0.00    +0.000 C 
ATOM      5  C   UNL     1      26.392   8.385  87.865  0.00  0.00    +0.000 A 
ATOM      6  C   UNL     1      23.134   6.960  86.547  0.00  0.00    +0.000 A 
ATOM      7  C   UNL     1      25.905   9.748  88.391  0.00  0.00    +0.000 A 
ATOM      8  C   UNL     1      23.924   9.175  87.662  0.00  0.00    +0.000 A 
ATOM      9  C   UNL     1      24.539  10.168  88.257  0.00  0.00    +0.000 A 
ATOM     10  C   UNL     1      23.611   5.782  85.951  0.00  0.00    +0.000 A 
ATOM     11  C   UNL     1      27.266   5.941  86.145  0.00  0.00    +0.000 C 
ATOM     12  C   UNL     1      25.856   5.106  88.102  0.00  0.00    +0.000 C 
ATOM     13  C   UNL     1      21.753   7.196  86.542  0.00  0.00    +0.000 A 
ATOM     14  C   UNL     1      22.731   4.889  85.338  0.00  0.00    +0.000 A 
ATOM     15  C   UNL     1      24.218  11.586  87.903  0.00  0.00    +0.000 C 
ATOM     16  C   UNL     1      21.363   5.141  85.343  0.00  0.00    +0.000 A 
ATOM     17  C   UNL     1      20.871   6.292  85.946  0.00  0.00    +0.000 A 
ENDROOT
BRANCH  13  18
ATOM     18  O   UNL     1      21.239   8.317  87.129  0.00  0.00    +0.000 OA
ATOM     19  H   UNL     1      21.372   9.080  86.538  0.00  0.00    +0.000 HD
ENDBRANCH  13  18
BRANCH  16  20
ATOM     20  C   UNL     1      20.467   4.213  84.740  0.00  0.00    +0.000 C 
ATOM     21  C   UNL     1      19.507   3.205  84.098  0.00  0.00    +0.000 C 
BRANCH  21  22
ATOM     22  C   UNL     1      18.551   2.190  83.465  0.00  0.00    +0.000 C 
ATOM     23  C   UNL     1      17.593   1.173  82.836  0.00  0.00    +0.000 C 
ATOM     24  C   UNL     1      16.632   0.158  82.209  0.00  0.00    +0.000 C 
ENDBRANCH  21  22
ENDBRANCH  16  20
TORSDOF 3
ENDMDL
MODEL 5
REMARK VINA RESULT:      -5.5     19.872     24.183
REMARK  Name = Dronabinol.pdbqt.pdb
REMARK  3 active torsions:
REMARK  status: ('A' for Active; 'I' for Inactive)
REMARK    1  A    between atoms: C_13  and  O_18
REMARK    2  A    between atoms: C_16  and  C_20
REMARK    3  A    between atoms: C_21  and  C_22
REMARK                            x       y       z     vdW  Elec       q    Type
REMARK                         _______ _______ _______ _____ _____    ______ ____
ROOT
ATOM      1  O   UNL     1      41.435  25.736  85.856  0.00  0.00    +0.000 OA
ATOM      2  C   UNL     1      43.782  25.897  85.119  0.00  0.00    +0.000 A 
ATOM      3  C   UNL     1      43.479  24.855  84.108  0.00  0.00    +0.000 A 
ATOM      4  C   UNL     1      42.617  26.569  85.794  0.00  0.00    +0.000 C 
ATOM      5  C   UNL     1      45.173  26.266  85.134  0.00  0.00    +0.000 A 
ATOM      6  C   UNL     1      42.100  24.424  83.890  0.00  0.00    +0.000 A 
ATOM      7  C   UNL     1      46.256  25.632  84.239  0.00  0.00    +0.000 A 
ATOM      8  C   UNL     1      44.655  24.404  83.395  0.00  0.00    +0.000 A 
ATOM      9  C   UNL     1      45.948  24.597  83.294  0.00  0.00    +0.000 A 
ATOM     10  C   UNL     1      41.147  24.907  84.799  0.00  0.00    +0.000 A 
ATOM     11  C   UNL     1      42.993  26.888  87.267  0.00  0.00    +0.000 C 
ATOM     12  C   UNL     1      42.261  27.879  85.032  0.00  0.00    +0.000 C 
ATOM     13  C   UNL     1      41.672  23.563  82.871  0.00  0.00    +0.000 A 
ATOM     14  C   UNL     1      39.812  24.510  84.707  0.00  0.00    +0.000 A 
ATOM     15  C   UNL     1      46.879  23.440  83.113  0.00  0.00    +0.000 C 
ATOM     16  C   UNL     1      39.405  23.655  83.689  0.00  0.00    +0.000 A 
ATOM     17  C   UNL     1      40.332  23.182  82.768  0.00  0.00    +0.000 A 
ENDROOT
BRANCH  13  18
ATOM     18  O   UNL     1      42.559  23.085  81.948  0.00  0.00    +0.000 OA
ATOM     19  H   UNL     1      43.392  23.585  82.015  0.00  0.00    +0.000 HD
ENDBRANCH  13  18
BRANCH  16  20
ATOM     20  C   UNL     1      38.038  23.273  83.584  0.00  0.00    +0.000 C 
ATOM     21  C   UNL     1      36.566  22.856  83.483  0.00  0.00    +0.000 C 
BRANCH  21  22
ATOM     22  C   UNL     1      35.096  22.437  83.393  0.00  0.00    +0.000 C 
ATOM     23  C   UNL     1      33.626  22.014  83.302  0.00  0.00    +0.000 C 
ATOM     24  C   UNL     1      32.157  21.588  83.214  0.00  0.00    +0.000 C 
ENDBRANCH  21  22
ENDBRANCH  16  20
TORSDOF 3
ENDMDL
MODEL 6
REMARK VINA RESULT:      -5.4     42.342     45.237
REMARK  Name = Dronabinol.pdbqt.pdb
REMARK  3 active torsions:
REMARK  status: ('A' for Active; 'I' for Inactive)
REMARK    1  A    between atoms: C_13  and  O_18
REMARK    2  A    between atoms: C_16  and  C_20
REMARK    3  A    between atoms: C_21  and  C_22
REMARK                            x       y       z     vdW  Elec       q    Type
REMARK                         _______ _______ _______ _____ _____    ______ ____
ROOT
ATOM      1  O   UNL     1      19.923  20.499  90.584  0.00  0.00    +0.000 OA
ATOM      2  C   UNL     1      18.509  19.056  89.172  0.00  0.00    +0.000 A 
ATOM      3  C   UNL     1      19.283  17.896  89.678  0.00  0.00    +0.000 A 
ATOM      4  C   UNL     1      18.650  20.359  89.910  0.00  0.00    +0.000 C 
ATOM      5  C   UNL     1      17.551  18.685  88.163  0.00  0.00    +0.000 A 
ATOM      6  C   UNL     1      20.238  18.071  90.770  0.00  0.00    +0.000 A 
ATOM      7  C   UNL     1      17.362  17.256  87.621  0.00  0.00    +0.000 A 
ATOM      8  C   UNL     1      18.940  16.658  89.012  0.00  0.00    +0.000 A 
ATOM      9  C   UNL     1      18.148  16.153  88.096  0.00  0.00    +0.000 A 
ATOM     10  C   UNL     1      20.498  19.394  91.162  0.00  0.00    +0.000 A 
ATOM     11  C   UNL     1      18.571  21.534  88.897  0.00  0.00    +0.000 C 
ATOM     12  C   UNL     1      17.514  20.482  90.968  0.00  0.00    +0.000 C 
ATOM     13  C   UNL     1      20.914  17.037  91.429  0.00  0.00    +0.000 A 
ATOM     14  C   UNL     1      21.435  19.668  92.159  0.00  0.00    +0.000 A 
ATOM     15  C   UNL     1      18.652  15.119  87.140  0.00  0.00    +0.000 C 
ATOM     16  C   UNL     1      22.096  18.627  92.802  0.00  0.00    +0.000 A 
ATOM     17  C   UNL     1      21.836  17.311  92.441  0.00  0.00    +0.000 A 
ENDROOT
BRANCH  13  18
ATOM     18  O   UNL     1      20.677  15.732  91.099  0.00  0.00    +0.000 OA
ATOM     19  H   UNL     1      21.512  15.315  90.819  0.00  0.00    +0.000 HD
ENDBRANCH  13  18
BRANCH  16  20
ATOM     20  C   UNL     1      23.032  18.911  93.837  0.00  0.00    +0.000 C 
ATOM     21  C   UNL     1      24.045  19.225  94.944  0.00  0.00    +0.000 C 
BRANCH  21  22
ATOM     22  C   UNL     1      25.061  19.547  96.043  0.00  0.00    +0.000 C 
ATOM     23  C   UNL     1      26.079  19.873  97.141  0.00  0.00    +0.000 C 
ATOM     24  C   UNL     1      27.096  20.202  98.239  0.00  0.00    +0.000 C 
ENDBRANCH  21  22
ENDBRANCH  16  20
TORSDOF 3
ENDMDL
MODEL 7
REMARK VINA RESULT:      -5.4      4.464      7.619
REMARK  Name = Dronabinol.pdbqt.pdb
REMARK  3 active torsions:
REMARK  status: ('A' for Active; 'I' for Inactive)
REMARK    1  A    between atoms: C_13  and  O_18
REMARK    2  A    between atoms: C_16  and  C_20
REMARK    3  A    between atoms: C_21  and  C_22
REMARK                            x       y       z     vdW  Elec       q    Type
REMARK                         _______ _______ _______ _____ _____    ______ ____
ROOT
ATOM      1  O   UNL     1      54.610  38.009  72.071  0.00  0.00    +0.000 OA
ATOM      2  C   UNL     1      54.889  39.766  70.365  0.00  0.00    +0.000 A 
ATOM      3  C   UNL     1      55.981  40.325  71.199  0.00  0.00    +0.000 A 
ATOM      4  C   UNL     1      54.416  38.373  70.684  0.00  0.00    +0.000 C 
ATOM      5  C   UNL     1      54.600  40.579  69.213  0.00  0.00    +0.000 A 
ATOM      6  C   UNL     1      56.469  39.586  72.360  0.00  0.00    +0.000 A 
ATOM      7  C   UNL     1      55.302  41.909  68.883  0.00  0.00    +0.000 A 
ATOM      8  C   UNL     1      56.480  41.588  70.697  0.00  0.00    +0.000 A 
ATOM      9  C   UNL     1      56.330  42.453  69.723  0.00  0.00    +0.000 A 
ATOM     10  C   UNL     1      55.735  38.447  72.725  0.00  0.00    +0.000 A 
ATOM     11  C   UNL     1      52.887  38.280  70.427  0.00  0.00    +0.000 C 
ATOM     12  C   UNL     1      55.177  37.349  69.791  0.00  0.00    +0.000 C 
ATOM     13  C   UNL     1      57.585  39.935  73.132  0.00  0.00    +0.000 A 
ATOM     14  C   UNL     1      56.090  37.705  73.853  0.00  0.00    +0.000 A 
ATOM     15  C   UNL     1      56.381  43.924  69.996  0.00  0.00    +0.000 C 
ATOM     16  C   UNL     1      57.201  38.067  74.607  0.00  0.00    +0.000 A 
ATOM     17  C   UNL     1      57.952  39.180  74.248  0.00  0.00    +0.000 A 
ENDROOT
BRANCH  13  18
ATOM     18  O   UNL     1      58.345  41.021  72.802  0.00  0.00    +0.000 OA
ATOM     19  H   UNL     1      58.399  41.621  73.568  0.00  0.00    +0.000 HD
ENDBRANCH  13  18
BRANCH  16  20
ATOM     20  C   UNL     1      57.575  37.291  75.741  0.00  0.00    +0.000 C 
ATOM     21  C   UNL     1      57.967  36.460  76.968  0.00  0.00    +0.000 C 
BRANCH  21  22
ATOM     22  C   UNL     1      58.348  35.633  78.199  0.00  0.00    +0.000 C 
ATOM     23  C   UNL     1      58.734  34.807  79.430  0.00  0.00    +0.000 C 
ATOM     24  C   UNL     1      59.120  33.984  80.664  0.00  0.00    +0.000 C 
ENDBRANCH  21  22
ENDBRANCH  16  20
TORSDOF 3
ENDMDL
MODEL 8
REMARK VINA RESULT:      -5.4     16.760     19.983
REMARK  Name = Dronabinol.pdbqt.pdb
REMARK  3 active torsions:
REMARK  status: ('A' for Active; 'I' for Inactive)
REMARK    1  A    between atoms: C_13  and  O_18
REMARK    2  A    between atoms: C_16  and  C_20
REMARK    3  A    between atoms: C_21  and  C_22
REMARK                            x       y       z     vdW  Elec       q    Type
REMARK                         _______ _______ _______ _____ _____    ______ ____
ROOT
ATOM      1  O   UNL     1      50.334  18.053  78.204  0.00  0.00    +0.000 OA
ATOM      2  C   UNL     1      51.713  19.310  76.594  0.00  0.00    +0.000 A 
ATOM      3  C   UNL     1      52.018  20.267  77.685  0.00  0.00    +0.000 A 
ATOM      4  C   UNL     1      51.100  17.990  76.978  0.00  0.00    +0.000 C 
ATOM      5  C   UNL     1      52.269  19.716  75.330  0.00  0.00    +0.000 A 
ATOM      6  C   UNL     1      51.609  19.970  79.056  0.00  0.00    +0.000 A 
ATOM      7  C   UNL     1      53.060  21.018  75.100  0.00  0.00    +0.000 A 
ATOM      8  C   UNL     1      52.764  21.420  77.229  0.00  0.00    +0.000 A 
ATOM      9  C   UNL     1      53.312  21.950  76.162  0.00  0.00    +0.000 A 
ATOM     10  C   UNL     1      50.777  18.854  79.228  0.00  0.00    +0.000 A 
ATOM     11  C   UNL     1      50.104  17.546  75.873  0.00  0.00    +0.000 C 
ATOM     12  C   UNL     1      52.225  16.927  77.151  0.00  0.00    +0.000 C 
ATOM     13  C   UNL     1      51.966  20.716  80.187  0.00  0.00    +0.000 A 
ATOM     14  C   UNL     1      50.289  18.520  80.493  0.00  0.00    +0.000 A 
ATOM     15  C   UNL     1      53.222  23.422  75.910  0.00  0.00    +0.000 C 
ATOM     16  C   UNL     1      50.653  19.272  81.604  0.00  0.00    +0.000 A 
ATOM     17  C   UNL     1      51.493  20.369  81.455  0.00  0.00    +0.000 A 
ENDROOT
BRANCH  13  18
ATOM     18  O   UNL     1      52.793  21.797  80.073  0.00  0.00    +0.000 OA
ATOM     19  H   UNL     1      53.470  21.759  80.772  0.00  0.00    +0.000 HD
ENDBRANCH  13  18
BRANCH  16  20
ATOM     20  C   UNL     1      50.174  18.912  82.895  0.00  0.00    +0.000 C 
ATOM     21  C   UNL     1      49.646  18.526  84.282  0.00  0.00    +0.000 C 
BRANCH  21  22
ATOM     22  C   UNL     1      49.108  18.138  85.662  0.00  0.00    +0.000 C 
ATOM     23  C   UNL     1      48.575  17.749  87.045  0.00  0.00    +0.000 C 
ATOM     24  C   UNL     1      48.044  17.362  88.429  0.00  0.00    +0.000 C 
ENDBRANCH  21  22
ENDBRANCH  16  20
TORSDOF 3
ENDMDL
MODEL 9
REMARK VINA RESULT:      -5.3     60.829     64.486
REMARK  Name = Dronabinol.pdbqt.pdb
REMARK  3 active torsions:
REMARK  status: ('A' for Active; 'I' for Inactive)
REMARK    1  A    between atoms: C_13  and  O_18
REMARK    2  A    between atoms: C_16  and  C_20
REMARK    3  A    between atoms: C_21  and  C_22
REMARK                            x       y       z     vdW  Elec       q    Type
REMARK                         _______ _______ _______ _____ _____    ______ ____
ROOT
ATOM      1  O   UNL     1       1.580  14.129  96.070  0.00  0.00    +0.000 OA
ATOM      2  C   UNL     1       3.564  15.592  96.065  0.00  0.00    +0.000 A 
ATOM      3  C   UNL     1       4.386  14.385  96.329  0.00  0.00    +0.000 A 
ATOM      4  C   UNL     1       2.145  15.379  95.610  0.00  0.00    +0.000 C 
ATOM      5  C   UNL     1       4.341  16.804  96.074  0.00  0.00    +0.000 A 
ATOM      6  C   UNL     1       3.780  13.057  96.268  0.00  0.00    +0.000 A 
ATOM      7  C   UNL     1       5.852  16.872  96.365  0.00  0.00    +0.000 A 
ATOM      8  C   UNL     1       5.776  14.697  96.584  0.00  0.00    +0.000 A 
ATOM      9  C   UNL     1       6.622  15.697  96.655  0.00  0.00    +0.000 A 
ATOM     10  C   UNL     1       2.383  13.017  96.137  0.00  0.00    +0.000 A 
ATOM     11  C   UNL     1       1.245  16.499  96.200  0.00  0.00    +0.000 C 
ATOM     12  C   UNL     1       2.090  15.405  94.054  0.00  0.00    +0.000 C 
ATOM     13  C   UNL     1       4.476  11.845  96.350  0.00  0.00    +0.000 A 
ATOM     14  C   UNL     1       1.706  11.797  96.124  0.00  0.00    +0.000 A 
ATOM     15  C   UNL     1       7.675  15.729  97.718  0.00  0.00    +0.000 C 
ATOM     16  C   UNL     1       2.414  10.603  96.208  0.00  0.00    +0.000 A 
ATOM     17  C   UNL     1       3.799  10.624  96.318  0.00  0.00    +0.000 A 
ENDROOT
BRANCH  13  18
ATOM     18  O   UNL     1       5.838  11.833  96.456  0.00  0.00    +0.000 OA
ATOM     19  H   UNL     1       6.142  12.695  96.793  0.00  0.00    +0.000 HD
ENDBRANCH  13  18
BRANCH  16  20
ATOM     20  C   UNL     1       1.721   9.360  96.168  0.00  0.00    +0.000 C 
ATOM     21  C   UNL     1       0.970   8.025  96.112  0.00  0.00    +0.000 C 
BRANCH  21  22
ATOM     22  C   UNL     1       0.219   6.692  96.046  0.00  0.00    +0.000 C 
ATOM     23  C   UNL     1      -0.531   5.358  95.976  0.00  0.00    +0.000 C 
ATOM     24  C   UNL     1      -1.279   4.022  95.904  0.00  0.00    +0.000 C 
ENDBRANCH  21  22
ENDBRANCH  16  20
TORSDOF 3
ENDMDL
