MODEL 1
REMARK VINA RESULT:      -6.3      0.000      0.000
REMARK  Name = Ellipticine.pdbqt.pdb
REMARK  0 active torsions:
REMARK  status: ('A' for Active; 'I' for Inactive)
REMARK                            x       y       z     vdW  Elec       q    Type
REMARK                         _______ _______ _______ _____ _____    ______ ____
ROOT
ATOM      1  N   UNL     1      11.789   3.868  99.836  0.00  0.00    +0.000 N 
ATOM      2  N   UNL     1      14.273   9.628  98.463  0.00  0.00    +0.000 NA
ATOM      3  C   UNL     1      13.051   4.900  98.300  0.00  0.00    +0.000 A 
ATOM      4  C   UNL     1      12.346   5.083  99.494  0.00  0.00    +0.000 A 
ATOM      5  C   UNL     1      13.721   6.016  97.736  0.00  0.00    +0.000 A 
ATOM      6  C   UNL     1      12.893   3.517  97.937  0.00  0.00    +0.000 A 
ATOM      7  C   UNL     1      12.273   6.318 100.156  0.00  0.00    +0.000 A 
ATOM      8  C   UNL     1      12.938   7.424  99.595  0.00  0.00    +0.000 A 
ATOM      9  C   UNL     1      13.658   7.269  98.390  0.00  0.00    +0.000 A 
ATOM     10  C   UNL     1      12.105   2.907  98.911  0.00  0.00    +0.000 A 
ATOM     11  C   UNL     1      14.493   5.855  96.445  0.00  0.00    +0.000 C 
ATOM     12  C   UNL     1      13.352   2.728  96.863  0.00  0.00    +0.000 A 
ATOM     13  C   UNL     1      11.483   6.402 101.441  0.00  0.00    +0.000 C 
ATOM     14  C   UNL     1      11.750   1.555  98.872  0.00  0.00    +0.000 A 
ATOM     15  C   UNL     1      12.909   8.689 100.201  0.00  0.00    +0.000 A 
ATOM     16  C   UNL     1      14.293   8.405  97.890  0.00  0.00    +0.000 A 
ATOM     17  C   UNL     1      13.009   1.375  96.804  0.00  0.00    +0.000 A 
ATOM     18  C   UNL     1      12.222   0.802  97.795  0.00  0.00    +0.000 A 
ATOM     19  C   UNL     1      13.579   9.744  99.609  0.00  0.00    +0.000 A 
ATOM     20  H   UNL     1      11.222   3.718 100.664  0.00  0.00    +0.000 HD
ENDROOT
TORSDOF 0
ENDMDL
MODEL 2
REMARK VINA RESULT:      -6.0     44.076     46.502
REMARK  Name = Ellipticine.pdbqt.pdb
REMARK  0 active torsions:
REMARK  status: ('A' for Active; 'I' for Inactive)
REMARK                            x       y       z     vdW  Elec       q    Type
REMARK                         _______ _______ _______ _____ _____    ______ ____
ROOT
ATOM      1  N   UNL     1      51.113  17.685  76.944  0.00  0.00    +0.000 N 
ATOM      2  N   UNL     1      53.690  23.566  76.880  0.00  0.00    +0.000 NA
ATOM      3  C   UNL     1      51.679  19.354  78.326  0.00  0.00    +0.000 A 
ATOM      4  C   UNL     1      51.661  18.950  76.988  0.00  0.00    +0.000 A 
ATOM      5  C   UNL     1      52.202  20.636  78.635  0.00  0.00    +0.000 A 
ATOM      6  C   UNL     1      51.116  18.272  79.090  0.00  0.00    +0.000 A 
ATOM      7  C   UNL     1      52.136  19.754  75.940  0.00  0.00    +0.000 A 
ATOM      8  C   UNL     1      52.655  21.026  76.250  0.00  0.00    +0.000 A 
ATOM      9  C   UNL     1      52.686  21.461  77.592  0.00  0.00    +0.000 A 
ATOM     10  C   UNL     1      50.776  17.255  78.202  0.00  0.00    +0.000 A 
ATOM     11  C   UNL     1      52.237  21.106  80.073  0.00  0.00    +0.000 C 
ATOM     12  C   UNL     1      50.865  18.070  80.462  0.00  0.00    +0.000 A 
ATOM     13  C   UNL     1      52.068  19.216  74.530  0.00  0.00    +0.000 C 
ATOM     14  C   UNL     1      50.200  16.046  78.607  0.00  0.00    +0.000 A 
ATOM     15  C   UNL     1      53.148  21.884  75.255  0.00  0.00    +0.000 A 
ATOM     16  C   UNL     1      53.212  22.730  77.828  0.00  0.00    +0.000 A 
ATOM     17  C   UNL     1      50.290  16.870  80.889  0.00  0.00    +0.000 A 
ATOM     18  C   UNL     1      49.965  15.877  79.973  0.00  0.00    +0.000 A 
ATOM     19  C   UNL     1      53.647  23.123  75.611  0.00  0.00    +0.000 A 
ATOM     20  H   UNL     1      50.982  17.153  76.091  0.00  0.00    +0.000 HD
ENDROOT
TORSDOF 0
ENDMDL
MODEL 3
REMARK VINA RESULT:      -5.9      1.447      5.568
REMARK  Name = Ellipticine.pdbqt.pdb
REMARK  0 active torsions:
REMARK  status: ('A' for Active; 'I' for Inactive)
REMARK                            x       y       z     vdW  Elec       q    Type
REMARK                         _______ _______ _______ _____ _____    ______ ____
ROOT
ATOM      1  N   UNL     1      12.746   6.506 100.794  0.00  0.00    +0.000 N 
ATOM      2  N   UNL     1      12.947   1.593  96.664  0.00  0.00    +0.000 NA
ATOM      3  C   UNL     1      13.430   5.998  98.722  0.00  0.00    +0.000 A 
ATOM      4  C   UNL     1      12.815   5.486  99.869  0.00  0.00    +0.000 A 
ATOM      5  C   UNL     1      13.619   5.132  97.615  0.00  0.00    +0.000 A 
ATOM      6  C   UNL     1      13.730   7.379  98.999  0.00  0.00    +0.000 A 
ATOM      7  C   UNL     1      12.378   4.156  99.971  0.00  0.00    +0.000 A 
ATOM      8  C   UNL     1      12.566   3.298  98.870  0.00  0.00    +0.000 A 
ATOM      9  C   UNL     1      13.184   3.789  97.700  0.00  0.00    +0.000 A 
ATOM     10  C   UNL     1      13.292   7.659 100.291  0.00  0.00    +0.000 A 
ATOM     11  C   UNL     1      14.281   5.654  96.358  0.00  0.00    +0.000 C 
ATOM     12  C   UNL     1      14.336   8.415  98.261  0.00  0.00    +0.000 A 
ATOM     13  C   UNL     1      11.725   3.708 101.258  0.00  0.00    +0.000 C 
ATOM     14  C   UNL     1      13.427   8.917 100.888  0.00  0.00    +0.000 A 
ATOM     15  C   UNL     1      12.154   1.957  98.900  0.00  0.00    +0.000 A 
ATOM     16  C   UNL     1      13.339   2.886  96.648  0.00  0.00    +0.000 A 
ATOM     17  C   UNL     1      14.480   9.679  98.838  0.00  0.00    +0.000 A 
ATOM     18  C   UNL     1      14.031   9.922 100.131  0.00  0.00    +0.000 A 
ATOM     19  C   UNL     1      12.362   1.156  97.793  0.00  0.00    +0.000 A 
ATOM     20  H   UNL     1      12.343   6.407 101.719  0.00  0.00    +0.000 HD
ENDROOT
TORSDOF 0
ENDMDL
MODEL 4
REMARK VINA RESULT:      -5.8     44.045     46.748
REMARK  Name = Ellipticine.pdbqt.pdb
REMARK  0 active torsions:
REMARK  status: ('A' for Active; 'I' for Inactive)
REMARK                            x       y       z     vdW  Elec       q    Type
REMARK                         _______ _______ _______ _____ _____    ______ ____
ROOT
ATOM      1  N   UNL     1      52.488  19.889  75.201  0.00  0.00    +0.000 N 
ATOM      2  N   UNL     1      49.659  15.724  79.186  0.00  0.00    +0.000 NA
ATOM      3  C   UNL     1      51.830  19.689  77.333  0.00  0.00    +0.000 A 
ATOM      4  C   UNL     1      51.885  19.033  76.099  0.00  0.00    +0.000 A 
ATOM      5  C   UNL     1      51.248  19.008  78.432  0.00  0.00    +0.000 A 
ATOM      6  C   UNL     1      52.429  20.983  77.137  0.00  0.00    +0.000 A 
ATOM      7  C   UNL     1      51.390  17.734  75.902  0.00  0.00    +0.000 A 
ATOM      8  C   UNL     1      50.812  17.061  76.995  0.00  0.00    +0.000 A 
ATOM      9  C   UNL     1      50.743  17.698  78.252  0.00  0.00    +0.000 A 
ATOM     10  C   UNL     1      52.825  21.072  75.805  0.00  0.00    +0.000 A 
ATOM     11  C   UNL     1      51.172  19.688  79.782  0.00  0.00    +0.000 C 
ATOM     12  C   UNL     1      52.669  22.088  77.979  0.00  0.00    +0.000 A 
ATOM     13  C   UNL     1      51.501  17.121  74.526  0.00  0.00    +0.000 C 
ATOM     14  C   UNL     1      53.447  22.204  75.266  0.00  0.00    +0.000 A 
ATOM     15  C   UNL     1      50.297  15.761  76.872  0.00  0.00    +0.000 A 
ATOM     16  C   UNL     1      50.159  16.974  79.291  0.00  0.00    +0.000 A 
ATOM     17  C   UNL     1      53.289  23.227  77.461  0.00  0.00    +0.000 A 
ATOM     18  C   UNL     1      53.670  23.280  76.126  0.00  0.00    +0.000 A 
ATOM     19  C   UNL     1      49.739  15.143  77.976  0.00  0.00    +0.000 A 
ATOM     20  H   UNL     1      52.654  19.662  74.226  0.00  0.00    +0.000 HD
ENDROOT
TORSDOF 0
ENDMDL
MODEL 5
REMARK VINA RESULT:      -5.7     40.201     42.233
REMARK  Name = Ellipticine.pdbqt.pdb
REMARK  0 active torsions:
REMARK  status: ('A' for Active; 'I' for Inactive)
REMARK                            x       y       z     vdW  Elec       q    Type
REMARK                         _______ _______ _______ _____ _____    ______ ____
ROOT
ATOM      1  N   UNL     1      47.011  26.454  85.035  0.00  0.00    +0.000 N 
ATOM      2  N   UNL     1      50.884  21.339  85.277  0.00  0.00    +0.000 NA
ATOM      3  C   UNL     1      47.119  24.318  84.372  0.00  0.00    +0.000 A 
ATOM      4  C   UNL     1      47.804  25.326  85.057  0.00  0.00    +0.000 A 
ATOM      5  C   UNL     1      47.734  23.045  84.256  0.00  0.00    +0.000 A 
ATOM      6  C   UNL     1      45.873  24.891  83.934  0.00  0.00    +0.000 A 
ATOM      7  C   UNL     1      49.069  25.134  85.634  0.00  0.00    +0.000 A 
ATOM      8  C   UNL     1      49.678  23.870  85.517  0.00  0.00    +0.000 A 
ATOM      9  C   UNL     1      49.009  22.833  84.830  0.00  0.00    +0.000 A 
ATOM     10  C   UNL     1      45.840  26.216  84.363  0.00  0.00    +0.000 A 
ATOM     11  C   UNL     1      47.021  21.931  83.520  0.00  0.00    +0.000 C 
ATOM     12  C   UNL     1      44.770  24.398  83.210  0.00  0.00    +0.000 A 
ATOM     13  C   UNL     1      49.718  26.294  86.352  0.00  0.00    +0.000 C 
ATOM     14  C   UNL     1      44.766  27.076  84.108  0.00  0.00    +0.000 A 
ATOM     15  C   UNL     1      50.941  23.605  86.067  0.00  0.00    +0.000 A 
ATOM     16  C   UNL     1      49.669  21.607  84.752  0.00  0.00    +0.000 A 
ATOM     17  C   UNL     1      43.687  25.239  82.944  0.00  0.00    +0.000 A 
ATOM     18  C   UNL     1      43.689  26.556  83.388  0.00  0.00    +0.000 A 
ATOM     19  C   UNL     1      51.495  22.346  85.925  0.00  0.00    +0.000 A 
ATOM     20  H   UNL     1      47.269  27.337  85.463  0.00  0.00    +0.000 HD
ENDROOT
TORSDOF 0
ENDMDL
MODEL 6
REMARK VINA RESULT:      -5.7     57.435     60.066
REMARK  Name = Ellipticine.pdbqt.pdb
REMARK  0 active torsions:
REMARK  status: ('A' for Active; 'I' for Inactive)
REMARK                            x       y       z     vdW  Elec       q    Type
REMARK                         _______ _______ _______ _____ _____    ______ ____
ROOT
ATOM      1  N   UNL     1      57.487  35.996  74.355  0.00  0.00    +0.000 N 
ATOM      2  N   UNL     1      63.429  34.167  75.962  0.00  0.00    +0.000 NA
ATOM      3  C   UNL     1      58.835  35.821  76.135  0.00  0.00    +0.000 A 
ATOM      4  C   UNL     1      58.752  35.617  74.755  0.00  0.00    +0.000 A 
ATOM      5  C   UNL     1      60.052  35.502  76.791  0.00  0.00    +0.000 A 
ATOM      6  C   UNL     1      57.559  36.342  76.551  0.00  0.00    +0.000 A 
ATOM      7  C   UNL     1      59.817  35.111  73.992  0.00  0.00    +0.000 A 
ATOM      8  C   UNL     1      61.023  34.795  74.645  0.00  0.00    +0.000 A 
ATOM      9  C   UNL     1      61.135  34.991  76.039  0.00  0.00    +0.000 A 
ATOM     10  C   UNL     1      56.749  36.437  75.422  0.00  0.00    +0.000 A 
ATOM     11  C   UNL     1      60.176  35.710  78.285  0.00  0.00    +0.000 C 
ATOM     12  C   UNL     1      57.023  36.741  77.792  0.00  0.00    +0.000 A 
ATOM     13  C   UNL     1      59.617  34.931  72.506  0.00  0.00    +0.000 C 
ATOM     14  C   UNL     1      55.433  36.910  75.463  0.00  0.00    +0.000 A 
ATOM     15  C   UNL     1      62.129  34.287  73.948  0.00  0.00    +0.000 A 
ATOM     16  C   UNL     1      62.358  34.658  76.622  0.00  0.00    +0.000 A 
ATOM     17  C   UNL     1      55.710  37.216  77.855  0.00  0.00    +0.000 A 
ATOM     18  C   UNL     1      54.932  37.297  76.707  0.00  0.00    +0.000 A 
ATOM     19  C   UNL     1      63.291  33.992  74.636  0.00  0.00    +0.000 A 
ATOM     20  H   UNL     1      57.158  35.950  73.397  0.00  0.00    +0.000 HD
ENDROOT
TORSDOF 0
ENDMDL
MODEL 7
REMARK VINA RESULT:      -5.3     43.663     45.673
REMARK  Name = Ellipticine.pdbqt.pdb
REMARK  0 active torsions:
REMARK  status: ('A' for Active; 'I' for Inactive)
REMARK                            x       y       z     vdW  Elec       q    Type
REMARK                         _______ _______ _______ _____ _____    ______ ____
ROOT
ATOM      1  N   UNL     1      51.228  17.591  74.978  0.00  0.00    +0.000 N 
ATOM      2  N   UNL     1      52.081  21.197  80.222  0.00  0.00    +0.000 NA
ATOM      3  C   UNL     1      50.698  17.655  77.154  0.00  0.00    +0.000 A 
ATOM      4  C   UNL     1      51.380  18.328  76.134  0.00  0.00    +0.000 A 
ATOM      5  C   UNL     1      50.706  18.219  78.455  0.00  0.00    +0.000 A 
ATOM      6  C   UNL     1      50.127  16.476  76.558  0.00  0.00    +0.000 A 
ATOM      7  C   UNL     1      52.069  19.533  76.342  0.00  0.00    +0.000 A 
ATOM      8  C   UNL     1      52.075  20.090  77.635  0.00  0.00    +0.000 A 
ATOM      9  C   UNL     1      51.396  19.434  78.683  0.00  0.00    +0.000 A 
ATOM     10  C   UNL     1      50.475  16.469  75.209  0.00  0.00    +0.000 A 
ATOM     11  C   UNL     1      49.979  17.518  79.582  0.00  0.00    +0.000 C 
ATOM     12  C   UNL     1      49.342  15.413  77.049  0.00  0.00    +0.000 A 
ATOM     13  C   UNL     1      52.771  20.173  75.169  0.00  0.00    +0.000 C 
ATOM     14  C   UNL     1      50.083  15.459  74.323  0.00  0.00    +0.000 A 
ATOM     15  C   UNL     1      52.743  21.292  77.917  0.00  0.00    +0.000 A 
ATOM     16  C   UNL     1      51.442  20.041  79.938  0.00  0.00    +0.000 A 
ATOM     17  C   UNL     1      48.940  14.395  76.182  0.00  0.00    +0.000 A 
ATOM     18  C   UNL     1      49.307  14.421  74.842  0.00  0.00    +0.000 A 
ATOM     19  C   UNL     1      52.719  21.798  79.203  0.00  0.00    +0.000 A 
ATOM     20  H   UNL     1      51.624  17.854  74.082  0.00  0.00    +0.000 HD
ENDROOT
TORSDOF 0
ENDMDL
MODEL 8
REMARK VINA RESULT:      -5.3     38.090     40.927
REMARK  Name = Ellipticine.pdbqt.pdb
REMARK  0 active torsions:
REMARK  status: ('A' for Active; 'I' for Inactive)
REMARK                            x       y       z     vdW  Elec       q    Type
REMARK                         _______ _______ _______ _____ _____    ______ ____
ROOT
ATOM      1  N   UNL     1      47.378  22.427  84.634  0.00  0.00    +0.000 N 
ATOM      2  N   UNL     1      41.971  25.347  82.773  0.00  0.00    +0.000 NA
ATOM      3  C   UNL     1      46.490  24.471  84.410  0.00  0.00    +0.000 A 
ATOM      4  C   UNL     1      46.241  23.105  84.246  0.00  0.00    +0.000 A 
ATOM      5  C   UNL     1      45.461  25.388  84.074  0.00  0.00    +0.000 A 
ATOM      6  C   UNL     1      47.833  24.587  84.915  0.00  0.00    +0.000 A 
ATOM      7  C   UNL     1      45.022  22.603  83.766  0.00  0.00    +0.000 A 
ATOM      8  C   UNL     1      44.002  23.515  83.434  0.00  0.00    +0.000 A 
ATOM      9  C   UNL     1      44.225  24.900  83.589  0.00  0.00    +0.000 A 
ATOM     10  C   UNL     1      48.353  23.301  85.042  0.00  0.00    +0.000 A 
ATOM     11  C   UNL     1      45.696  26.874  84.239  0.00  0.00    +0.000 C 
ATOM     12  C   UNL     1      48.652  25.675  85.277  0.00  0.00    +0.000 A 
ATOM     13  C   UNL     1      44.861  21.107  83.628  0.00  0.00    +0.000 C 
ATOM     14  C   UNL     1      49.646  23.041  85.509  0.00  0.00    +0.000 A 
ATOM     15  C   UNL     1      42.757  23.086  82.948  0.00  0.00    +0.000 A 
ATOM     16  C   UNL     1      43.173  25.747  83.242  0.00  0.00    +0.000 A 
ATOM     17  C   UNL     1      49.946  25.438  85.746  0.00  0.00    +0.000 A 
ATOM     18  C   UNL     1      50.431  24.141  85.859  0.00  0.00    +0.000 A 
ATOM     19  C   UNL     1      41.789  24.022  82.636  0.00  0.00    +0.000 A 
ATOM     20  H   UNL     1      47.470  21.418  84.615  0.00  0.00    +0.000 HD
ENDROOT
TORSDOF 0
ENDMDL
MODEL 9
REMARK VINA RESULT:      -5.3     37.344     39.948
REMARK  Name = Ellipticine.pdbqt.pdb
REMARK  0 active torsions:
REMARK  status: ('A' for Active; 'I' for Inactive)
REMARK                            x       y       z     vdW  Elec       q    Type
REMARK                         _______ _______ _______ _____ _____    ______ ____
ROOT
ATOM      1  N   UNL     1      43.950  22.063  83.940  0.00  0.00    +0.000 N 
ATOM      2  N   UNL     1      44.338  28.471  84.079  0.00  0.00    +0.000 NA
ATOM      3  C   UNL     1      45.440  23.724  83.740  0.00  0.00    +0.000 A 
ATOM      4  C   UNL     1      44.090  23.435  83.961  0.00  0.00    +0.000 A 
ATOM      5  C   UNL     1      45.844  25.084  83.714  0.00  0.00    +0.000 A 
ATOM      6  C   UNL     1      46.111  22.459  83.585  0.00  0.00    +0.000 A 
ATOM      7  C   UNL     1      43.119  24.430  84.158  0.00  0.00    +0.000 A 
ATOM      8  C   UNL     1      43.522  25.779  84.132  0.00  0.00    +0.000 A 
ATOM      9  C   UNL     1      44.879  26.099  83.911  0.00  0.00    +0.000 A 
ATOM     10  C   UNL     1      45.157  21.453  83.715  0.00  0.00    +0.000 A 
ATOM     11  C   UNL     1      47.297  25.432  83.478  0.00  0.00    +0.000 C 
ATOM     12  C   UNL     1      47.448  22.083  83.345  0.00  0.00    +0.000 A 
ATOM     13  C   UNL     1      41.688  24.005  84.388  0.00  0.00    +0.000 C 
ATOM     14  C   UNL     1      45.464  20.091  83.619  0.00  0.00    +0.000 A 
ATOM     15  C   UNL     1      42.607  26.826  84.322  0.00  0.00    +0.000 A 
ATOM     16  C   UNL     1      45.208  27.454  83.899  0.00  0.00    +0.000 A 
ATOM     17  C   UNL     1      47.776  20.729  83.246  0.00  0.00    +0.000 A 
ATOM     18  C   UNL     1      46.797  19.753  83.381  0.00  0.00    +0.000 A 
ATOM     19  C   UNL     1      43.053  28.134  84.288  0.00  0.00    +0.000 A 
ATOM     20  H   UNL     1      43.069  21.581  84.075  0.00  0.00    +0.000 HD
ENDROOT
TORSDOF 0
ENDMDL
