MODEL 1
REMARK VINA RESULT:      -5.8      0.000      0.000
REMARK  Name = Enterolactone.pdbqt.pdb
REMARK  2 active torsions:
REMARK  status: ('A' for Active; 'I' for Inactive)
REMARK    1  A    between atoms: C_10  and  O_14
REMARK    2  A    between atoms: C_19  and  O_23
REMARK                            x       y       z     vdW  Elec       q    Type
REMARK                         _______ _______ _______ _____ _____    ______ ____
ROOT
ATOM      1  O   UNL     1      21.149   4.322  86.121  0.00  0.00    +0.000 OA
ATOM      2  O   UNL     1      23.068   4.421  87.441  0.00  0.00    +0.000 OA
ATOM      3  C   UNL     1      20.908   6.626  85.618  0.00  0.00    +0.000 C 
ATOM      4  C   UNL     1      22.074   6.430  86.446  0.00  0.00    +0.000 C 
ATOM      5  C   UNL     1      20.493   5.298  85.513  0.00  0.00    +0.000 C 
ATOM      6  C   UNL     1      22.207   4.953  86.766  0.00  0.00    +0.000 C 
ATOM      7  C   UNL     1      20.662   7.727  84.776  0.00  0.00    +0.000 C 
ATOM      8  C   UNL     1      20.425   8.853  83.935  0.00  0.00    +0.000 C 
ATOM      9  C   UNL     1      21.500   9.518  83.349  0.00  0.00    +0.000 C 
ATOM     10  C   UNL     1      21.256  10.622  82.539  0.00  0.00    +0.000 C 
ATOM     11  C   UNL     1      19.959  11.067  82.308  0.00  0.00    +0.000 C 
ATOM     12  C   UNL     1      18.888  10.398  82.896  0.00  0.00    +0.000 C 
ATOM     13  C   UNL     1      19.121   9.291  83.710  0.00  0.00    +0.000 C 
ATOM     14  C   UNL     1      22.993   7.432  86.829  0.00  0.00    +0.000 C 
ATOM     15  C   UNL     1      23.919   8.448  87.206  0.00  0.00    +0.000 C 
ATOM     16  C   UNL     1      23.457   9.720  87.531  0.00  0.00    +0.000 C 
ATOM     17  C   UNL     1      24.372  10.706  87.888  0.00  0.00    +0.000 C 
ATOM     18  C   UNL     1      25.736  10.437  87.922  0.00  0.00    +0.000 C 
ATOM     19  C   UNL     1      26.192   9.161  87.597  0.00  0.00    +0.000 C 
ATOM     20  C   UNL     1      25.284   8.166  87.238  0.00  0.00    +0.000 C 
ENDROOT
BRANCH  10  21
ATOM     21  O   UNL     1      22.287  11.296  81.950  0.00  0.00    +0.000 OA
ATOM     22  H   UNL     1      21.996  11.604  81.074  0.00  0.00    +0.000 HD
ENDBRANCH  10  21
BRANCH  17  23
ATOM     23  O   UNL     1      23.953  11.964  88.210  0.00  0.00    +0.000 OA
ATOM     24  H   UNL     1      24.716  12.468  88.543  0.00  0.00    +0.000 HD
ENDBRANCH  17  23
TORSDOF 2
ENDMDL
MODEL 2
REMARK VINA RESULT:      -5.5     27.310     30.323
REMARK  Name = Enterolactone.pdbqt.pdb
REMARK  2 active torsions:
REMARK  status: ('A' for Active; 'I' for Inactive)
REMARK    1  A    between atoms: C_10  and  O_14
REMARK    2  A    between atoms: C_19  and  O_23
REMARK                            x       y       z     vdW  Elec       q    Type
REMARK                         _______ _______ _______ _____ _____    ______ ____
ROOT
ATOM      1  O   UNL     1      51.891  22.857  86.631  0.00  0.00    +0.000 OA
ATOM      2  O   UNL     1      50.511  24.733  86.740  0.00  0.00    +0.000 OA
ATOM      3  C   UNL     1      50.564  21.483  85.228  0.00  0.00    +0.000 C 
ATOM      4  C   UNL     1      49.898  22.746  85.439  0.00  0.00    +0.000 C 
ATOM      5  C   UNL     1      51.715  21.718  85.981  0.00  0.00    +0.000 C 
ATOM      6  C   UNL     1      50.756  23.608  86.346  0.00  0.00    +0.000 C 
ATOM      7  C   UNL     1      50.339  20.593  84.161  0.00  0.00    +0.000 C 
ATOM      8  C   UNL     1      50.092  19.700  83.078  0.00  0.00    +0.000 C 
ATOM      9  C   UNL     1      49.698  20.204  81.841  0.00  0.00    +0.000 C 
ATOM     10  C   UNL     1      49.450  19.321  80.794  0.00  0.00    +0.000 C 
ATOM     11  C   UNL     1      49.590  17.948  80.969  0.00  0.00    +0.000 C 
ATOM     12  C   UNL     1      49.985  17.450  82.208  0.00  0.00    +0.000 C 
ATOM     13  C   UNL     1      50.236  18.326  83.263  0.00  0.00    +0.000 C 
ATOM     14  C   UNL     1      48.688  23.154  84.835  0.00  0.00    +0.000 C 
ATOM     15  C   UNL     1      47.469  23.559  84.217  0.00  0.00    +0.000 C 
ATOM     16  C   UNL     1      46.442  22.637  84.040  0.00  0.00    +0.000 C 
ATOM     17  C   UNL     1      45.261  23.043  83.426  0.00  0.00    +0.000 C 
ATOM     18  C   UNL     1      45.097  24.353  82.988  0.00  0.00    +0.000 C 
ATOM     19  C   UNL     1      46.129  25.271  83.169  0.00  0.00    +0.000 C 
ATOM     20  C   UNL     1      47.316  24.876  83.783  0.00  0.00    +0.000 C 
ENDROOT
BRANCH  10  21
ATOM     21  O   UNL     1      49.062  19.782  79.570  0.00  0.00    +0.000 OA
ATOM     22  H   UNL     1      49.014  20.753  79.605  0.00  0.00    +0.000 HD
ENDBRANCH  10  21
BRANCH  17  23
ATOM     23  O   UNL     1      44.235  22.164  83.236  0.00  0.00    +0.000 OA
ATOM     24  H   UNL     1      43.728  22.098  84.064  0.00  0.00    +0.000 HD
ENDBRANCH  17  23
TORSDOF 2
ENDMDL
MODEL 3
REMARK VINA RESULT:      -5.5     11.358     13.623
REMARK  Name = Enterolactone.pdbqt.pdb
REMARK  2 active torsions:
REMARK  status: ('A' for Active; 'I' for Inactive)
REMARK    1  A    between atoms: C_10  and  O_14
REMARK    2  A    between atoms: C_19  and  O_23
REMARK                            x       y       z     vdW  Elec       q    Type
REMARK                         _______ _______ _______ _____ _____    ______ ____
ROOT
ATOM      1  O   UNL     1      20.728  16.115  90.405  0.00  0.00    +0.000 OA
ATOM      2  O   UNL     1      22.694  15.871  91.635  0.00  0.00    +0.000 OA
ATOM      3  C   UNL     1      19.713  17.864  91.642  0.00  0.00    +0.000 C 
ATOM      4  C   UNL     1      20.990  17.534  92.227  0.00  0.00    +0.000 C 
ATOM      5  C   UNL     1      19.720  16.954  90.584  0.00  0.00    +0.000 C 
ATOM      6  C   UNL     1      21.620  16.407  91.430  0.00  0.00    +0.000 C 
ATOM      7  C   UNL     1      19.017  19.078  91.794  0.00  0.00    +0.000 C 
ATOM      8  C   UNL     1      18.322  20.310  91.967  0.00  0.00    +0.000 C 
ATOM      9  C   UNL     1      19.040  21.489  92.155  0.00  0.00    +0.000 C 
ATOM     10  C   UNL     1      18.350  22.684  92.333  0.00  0.00    +0.000 C 
ATOM     11  C   UNL     1      16.959  22.714  92.325  0.00  0.00    +0.000 C 
ATOM     12  C   UNL     1      16.247  21.533  92.136  0.00  0.00    +0.000 C 
ATOM     13  C   UNL     1      16.929  20.330  91.957  0.00  0.00    +0.000 C 
ATOM     14  C   UNL     1      21.599  18.203  93.312  0.00  0.00    +0.000 C 
ATOM     15  C   UNL     1      22.209  18.887  94.404  0.00  0.00    +0.000 C 
ATOM     16  C   UNL     1      21.428  19.327  95.469  0.00  0.00    +0.000 C 
ATOM     17  C   UNL     1      22.035  20.003  96.523  0.00  0.00    +0.000 C 
ATOM     18  C   UNL     1      23.404  20.244  96.525  0.00  0.00    +0.000 C 
ATOM     19  C   UNL     1      24.180  19.800  95.457  0.00  0.00    +0.000 C 
ATOM     20  C   UNL     1      23.584  19.122  94.395  0.00  0.00    +0.000 C 
ENDROOT
BRANCH  10  21
ATOM     21  O   UNL     1      19.022  23.857  92.520  0.00  0.00    +0.000 OA
ATOM     22  H   UNL     1      18.545  24.566  92.054  0.00  0.00    +0.000 HD
ENDBRANCH  10  21
BRANCH  17  23
ATOM     23  O   UNL     1      21.298  20.449  97.581  0.00  0.00    +0.000 OA
ATOM     24  H   UNL     1      20.646  21.094  97.254  0.00  0.00    +0.000 HD
ENDBRANCH  17  23
TORSDOF 2
ENDMDL
MODEL 4
REMARK VINA RESULT:      -5.4     30.620     33.193
REMARK  Name = Enterolactone.pdbqt.pdb
REMARK  2 active torsions:
REMARK  status: ('A' for Active; 'I' for Inactive)
REMARK    1  A    between atoms: C_10  and  O_14
REMARK    2  A    between atoms: C_19  and  O_23
REMARK                            x       y       z     vdW  Elec       q    Type
REMARK                         _______ _______ _______ _____ _____    ______ ____
ROOT
ATOM      1  O   UNL     1      47.829  27.955  68.770  0.00  0.00    +0.000 OA
ATOM      2  O   UNL     1      47.717  30.230  69.267  0.00  0.00    +0.000 OA
ATOM      3  C   UNL     1      46.033  27.179  70.108  0.00  0.00    +0.000 C 
ATOM      4  C   UNL     1      46.158  28.610  70.247  0.00  0.00    +0.000 C 
ATOM      5  C   UNL     1      47.073  26.959  69.204  0.00  0.00    +0.000 C 
ATOM      6  C   UNL     1      47.317  29.088  69.393  0.00  0.00    +0.000 C 
ATOM      7  C   UNL     1      44.881  26.415  70.375  0.00  0.00    +0.000 C 
ATOM      8  C   UNL     1      43.708  25.657  70.658  0.00  0.00    +0.000 C 
ATOM      9  C   UNL     1      42.452  26.231  70.475  0.00  0.00    +0.000 C 
ATOM     10  C   UNL     1      41.314  25.483  70.765  0.00  0.00    +0.000 C 
ATOM     11  C   UNL     1      41.417  24.177  71.233  0.00  0.00    +0.000 C 
ATOM     12  C   UNL     1      42.676  23.609  71.413  0.00  0.00    +0.000 C 
ATOM     13  C   UNL     1      43.822  24.349  71.126  0.00  0.00    +0.000 C 
ATOM     14  C   UNL     1      45.294  29.447  70.988  0.00  0.00    +0.000 C 
ATOM     15  C   UNL     1      44.414  30.285  71.733  0.00  0.00    +0.000 C 
ATOM     16  C   UNL     1      43.910  29.847  72.955  0.00  0.00    +0.000 C 
ATOM     17  C   UNL     1      43.043  30.671  73.667  0.00  0.00    +0.000 C 
ATOM     18  C   UNL     1      42.676  31.919  73.175  0.00  0.00    +0.000 C 
ATOM     19  C   UNL     1      43.185  32.351  71.953  0.00  0.00    +0.000 C 
ATOM     20  C   UNL     1      44.054  31.534  71.230  0.00  0.00    +0.000 C 
ENDROOT
BRANCH  10  21
ATOM     21  O   UNL     1      40.069  26.015  70.597  0.00  0.00    +0.000 OA
ATOM     22  H   UNL     1      40.119  26.715  69.922  0.00  0.00    +0.000 HD
ENDBRANCH  10  21
BRANCH  17  23
ATOM     23  O   UNL     1      42.530  30.272  74.866  0.00  0.00    +0.000 OA
ATOM     24  H   UNL     1      43.093  29.562  75.223  0.00  0.00    +0.000 HD
ENDBRANCH  17  23
TORSDOF 2
ENDMDL
MODEL 5
REMARK VINA RESULT:      -5.4      0.861      5.629
REMARK  Name = Enterolactone.pdbqt.pdb
REMARK  2 active torsions:
REMARK  status: ('A' for Active; 'I' for Inactive)
REMARK    1  A    between atoms: C_10  and  O_14
REMARK    2  A    between atoms: C_19  and  O_23
REMARK                            x       y       z     vdW  Elec       q    Type
REMARK                         _______ _______ _______ _____ _____    ______ ____
ROOT
ATOM      1  O   UNL     1      22.692   3.978  86.748  0.00  0.00    +0.000 OA
ATOM      2  O   UNL     1      20.770   4.224  85.452  0.00  0.00    +0.000 OA
ATOM      3  C   UNL     1      23.611   6.148  86.492  0.00  0.00    +0.000 C 
ATOM      4  C   UNL     1      22.369   6.058  85.762  0.00  0.00    +0.000 C 
ATOM      5  C   UNL     1      23.645   4.856  87.018  0.00  0.00    +0.000 C 
ATOM      6  C   UNL     1      21.801   4.661  85.928  0.00  0.00    +0.000 C 
ATOM      7  C   UNL     1      24.227   7.331  86.942  0.00  0.00    +0.000 C 
ATOM      8  C   UNL     1      24.841   8.539  87.382  0.00  0.00    +0.000 C 
ATOM      9  C   UNL     1      24.050   9.635  87.718  0.00  0.00    +0.000 C 
ATOM     10  C   UNL     1      24.663  10.813  88.136  0.00  0.00    +0.000 C 
ATOM     11  C   UNL     1      26.048  10.907  88.222  0.00  0.00    +0.000 C 
ATOM     12  C   UNL     1      26.833   9.808  87.884  0.00  0.00    +0.000 C 
ATOM     13  C   UNL     1      26.230   8.623  87.464  0.00  0.00    +0.000 C 
ATOM     14  C   UNL     1      21.737   7.117  85.073  0.00  0.00    +0.000 C 
ATOM     15  C   UNL     1      21.103   8.192  84.386  0.00  0.00    +0.000 C 
ATOM     16  C   UNL     1      21.872   9.110  83.676  0.00  0.00    +0.000 C 
ATOM     17  C   UNL     1      21.242  10.162  83.018  0.00  0.00    +0.000 C 
ATOM     18  C   UNL     1      19.859  10.306  83.061  0.00  0.00    +0.000 C 
ATOM     19  C   UNL     1      19.095   9.384  83.773  0.00  0.00    +0.000 C 
ATOM     20  C   UNL     1      19.716   8.327  84.436  0.00  0.00    +0.000 C 
ENDROOT
BRANCH  10  21
ATOM     21  O   UNL     1      23.917  11.905  88.472  0.00  0.00    +0.000 OA
ATOM     22  H   UNL     1      24.492  12.544  88.929  0.00  0.00    +0.000 HD
ENDBRANCH  10  21
BRANCH  17  23
ATOM     23  O   UNL     1      21.966  11.079  82.314  0.00  0.00    +0.000 OA
ATOM     24  H   UNL     1      21.529  11.226  81.456  0.00  0.00    +0.000 HD
ENDBRANCH  17  23
TORSDOF 2
ENDMDL
MODEL 6
REMARK VINA RESULT:      -5.4     10.144     12.363
REMARK  Name = Enterolactone.pdbqt.pdb
REMARK  2 active torsions:
REMARK  status: ('A' for Active; 'I' for Inactive)
REMARK    1  A    between atoms: C_10  and  O_14
REMARK    2  A    between atoms: C_19  and  O_23
REMARK                            x       y       z     vdW  Elec       q    Type
REMARK                         _______ _______ _______ _____ _____    ______ ____
ROOT
ATOM      1  O   UNL     1      22.738  16.436  91.962  0.00  0.00    +0.000 OA
ATOM      2  O   UNL     1      22.897  18.308  93.342  0.00  0.00    +0.000 OA
ATOM      3  C   UNL     1      20.595  16.826  91.028  0.00  0.00    +0.000 C 
ATOM      4  C   UNL     1      20.928  17.894  91.940  0.00  0.00    +0.000 C 
ATOM      5  C   UNL     1      21.760  16.069  91.149  0.00  0.00    +0.000 C 
ATOM      6  C   UNL     1      22.297  17.623  92.535  0.00  0.00    +0.000 C 
ATOM      7  C   UNL     1      19.652  16.887  89.985  0.00  0.00    +0.000 C 
ATOM      8  C   UNL     1      18.688  16.965  88.938  0.00  0.00    +0.000 C 
ATOM      9  C   UNL     1      18.458  18.180  88.298  0.00  0.00    +0.000 C 
ATOM     10  C   UNL     1      17.506  18.245  87.284  0.00  0.00    +0.000 C 
ATOM     11  C   UNL     1      16.787  17.116  86.906  0.00  0.00    +0.000 C 
ATOM     12  C   UNL     1      17.022  15.904  87.550  0.00  0.00    +0.000 C 
ATOM     13  C   UNL     1      17.973  15.828  88.566  0.00  0.00    +0.000 C 
ATOM     14  C   UNL     1      20.151  19.049  92.179  0.00  0.00    +0.000 C 
ATOM     15  C   UNL     1      19.363  20.214  92.410  0.00  0.00    +0.000 C 
ATOM     16  C   UNL     1      17.976  20.112  92.468  0.00  0.00    +0.000 C 
ATOM     17  C   UNL     1      17.218  21.259  92.684  0.00  0.00    +0.000 C 
ATOM     18  C   UNL     1      17.826  22.499  92.841  0.00  0.00    +0.000 C 
ATOM     19  C   UNL     1      19.215  22.595  92.783  0.00  0.00    +0.000 C 
ATOM     20  C   UNL     1      19.985  21.453  92.567  0.00  0.00    +0.000 C 
ENDROOT
BRANCH  10  21
ATOM     21  O   UNL     1      17.256  19.420  86.637  0.00  0.00    +0.000 OA
ATOM     22  H   UNL     1      17.370  19.278  85.681  0.00  0.00    +0.000 HD
ENDBRANCH  10  21
BRANCH  17  23
ATOM     23  O   UNL     1      15.856  21.194  92.745  0.00  0.00    +0.000 OA
ATOM     24  H   UNL     1      15.575  21.434  93.646  0.00  0.00    +0.000 HD
ENDBRANCH  17  23
TORSDOF 2
ENDMDL
MODEL 7
REMARK VINA RESULT:      -5.4     21.522     23.657
REMARK  Name = Enterolactone.pdbqt.pdb
REMARK  2 active torsions:
REMARK  status: ('A' for Active; 'I' for Inactive)
REMARK    1  A    between atoms: C_10  and  O_14
REMARK    2  A    between atoms: C_19  and  O_23
REMARK                            x       y       z     vdW  Elec       q    Type
REMARK                         _______ _______ _______ _____ _____    ______ ____
ROOT
ATOM      1  O   UNL     1       0.288  11.219  95.933  0.00  0.00    +0.000 OA
ATOM      2  O   UNL     1      -1.455  12.061  94.633  0.00  0.00    +0.000 OA
ATOM      3  C   UNL     1       1.979  12.782  95.371  0.00  0.00    +0.000 C 
ATOM      4  C   UNL     1       0.761  13.114  94.672  0.00  0.00    +0.000 C 
ATOM      5  C   UNL     1       1.527  11.662  96.070  0.00  0.00    +0.000 C 
ATOM      6  C   UNL     1      -0.306  12.098  95.035  0.00  0.00    +0.000 C 
ATOM      7  C   UNL     1       3.044  13.660  95.647  0.00  0.00    +0.000 C 
ATOM      8  C   UNL     1       4.117  14.560  95.909  0.00  0.00    +0.000 C 
ATOM      9  C   UNL     1       3.854  15.915  96.097  0.00  0.00    +0.000 C 
ATOM     10  C   UNL     1       4.912  16.785  96.343  0.00  0.00    +0.000 C 
ATOM     11  C   UNL     1       6.221  16.320  96.402  0.00  0.00    +0.000 C 
ATOM     12  C   UNL     1       6.478  14.965  96.213  0.00  0.00    +0.000 C 
ATOM     13  C   UNL     1       5.426  14.084  95.967  0.00  0.00    +0.000 C 
ATOM     14  C   UNL     1       0.562  14.245  93.849  0.00  0.00    +0.000 C 
ATOM     15  C   UNL     1       0.368  15.391  93.025  0.00  0.00    +0.000 C 
ATOM     16  C   UNL     1       1.392  15.823  92.187  0.00  0.00    +0.000 C 
ATOM     17  C   UNL     1       1.193  16.951  91.396  0.00  0.00    +0.000 C 
ATOM     18  C   UNL     1      -0.010  17.647  91.432  0.00  0.00    +0.000 C 
ATOM     19  C   UNL     1      -1.031  17.208  92.271  0.00  0.00    +0.000 C 
ATOM     20  C   UNL     1      -0.844  16.080  93.069  0.00  0.00    +0.000 C 
ENDROOT
BRANCH  10  21
ATOM     21  O   UNL     1       4.688  18.118  96.531  0.00  0.00    +0.000 OA
ATOM     22  H   UNL     1       3.753  18.306  96.338  0.00  0.00    +0.000 HD
ENDBRANCH  10  21
BRANCH  17  23
ATOM     23  O   UNL     1       2.177  17.402  90.565  0.00  0.00    +0.000 OA
ATOM     24  H   UNL     1       3.037  17.110  90.917  0.00  0.00    +0.000 HD
ENDBRANCH  17  23
TORSDOF 2
ENDMDL
MODEL 8
REMARK VINA RESULT:      -5.3     23.106     25.831
REMARK  Name = Enterolactone.pdbqt.pdb
REMARK  2 active torsions:
REMARK  status: ('A' for Active; 'I' for Inactive)
REMARK    1  A    between atoms: C_10  and  O_14
REMARK    2  A    between atoms: C_19  and  O_23
REMARK                            x       y       z     vdW  Elec       q    Type
REMARK                         _______ _______ _______ _____ _____    ______ ____
ROOT
ATOM      1  O   UNL     1      41.410  22.036  87.229  0.00  0.00    +0.000 OA
ATOM      2  O   UNL     1      43.037  23.446  88.122  0.00  0.00    +0.000 OA
ATOM      3  C   UNL     1      41.019  23.150  85.174  0.00  0.00    +0.000 C 
ATOM      4  C   UNL     1      42.030  23.856  85.923  0.00  0.00    +0.000 C 
ATOM      5  C   UNL     1      40.774  22.110  86.070  0.00  0.00    +0.000 C 
ATOM      6  C   UNL     1      42.260  23.135  87.238  0.00  0.00    +0.000 C 
ATOM      7  C   UNL     1      40.813  23.222  83.783  0.00  0.00    +0.000 C 
ATOM      8  C   UNL     1      40.614  23.314  82.375  0.00  0.00    +0.000 C 
ATOM      9  C   UNL     1      41.700  23.553  81.536  0.00  0.00    +0.000 C 
ATOM     10  C   UNL     1      41.490  23.650  80.164  0.00  0.00    +0.000 C 
ATOM     11  C   UNL     1      40.216  23.513  79.624  0.00  0.00    +0.000 C 
ATOM     12  C   UNL     1      39.134  23.275  80.468  0.00  0.00    +0.000 C 
ATOM     13  C   UNL     1      39.333  23.175  81.844  0.00  0.00    +0.000 C 
ATOM     14  C   UNL     1      42.754  24.984  85.476  0.00  0.00    +0.000 C 
ATOM     15  C   UNL     1      43.483  26.119  85.015  0.00  0.00    +0.000 C 
ATOM     16  C   UNL     1      42.837  27.101  84.270  0.00  0.00    +0.000 C 
ATOM     17  C   UNL     1      43.564  28.198  83.817  0.00  0.00    +0.000 C 
ATOM     18  C   UNL     1      44.919  28.324  84.098  0.00  0.00    +0.000 C 
ATOM     19  C   UNL     1      45.559  27.338  84.845  0.00  0.00    +0.000 C 
ATOM     20  C   UNL     1      44.842  26.234  85.304  0.00  0.00    +0.000 C 
ENDROOT
BRANCH  10  21
ATOM     21  O   UNL     1      42.532  23.884  79.314  0.00  0.00    +0.000 OA
ATOM     22  H   UNL     1      43.333  24.047  79.843  0.00  0.00    +0.000 HD
ENDBRANCH  10  21
BRANCH  17  23
ATOM     23  O   UNL     1      42.962  29.178  83.082  0.00  0.00    +0.000 OA
ATOM     24  H   UNL     1      43.141  29.012  82.139  0.00  0.00    +0.000 HD
ENDBRANCH  17  23
TORSDOF 2
ENDMDL
MODEL 9
REMARK VINA RESULT:      -5.1     27.765     30.028
REMARK  Name = Enterolactone.pdbqt.pdb
REMARK  2 active torsions:
REMARK  status: ('A' for Active; 'I' for Inactive)
REMARK    1  A    between atoms: C_10  and  O_14
REMARK    2  A    between atoms: C_19  and  O_23
REMARK                            x       y       z     vdW  Elec       q    Type
REMARK                         _______ _______ _______ _____ _____    ______ ____
ROOT
ATOM      1  O   UNL     1      49.119  21.577  83.788  0.00  0.00    +0.000 OA
ATOM      2  O   UNL     1      50.690  22.106  85.428  0.00  0.00    +0.000 OA
ATOM      3  C   UNL     1      47.397  23.085  84.402  0.00  0.00    +0.000 C 
ATOM      4  C   UNL     1      48.518  23.238  85.298  0.00  0.00    +0.000 C 
ATOM      5  C   UNL     1      47.916  22.088  83.576  0.00  0.00    +0.000 C 
ATOM      6  C   UNL     1      49.605  22.260  84.897  0.00  0.00    +0.000 C 
ATOM      7  C   UNL     1      46.392  24.040  84.156  0.00  0.00    +0.000 C 
ATOM      8  C   UNL     1      45.379  25.016  83.925  0.00  0.00    +0.000 C 
ATOM      9  C   UNL     1      45.689  26.371  84.018  0.00  0.00    +0.000 C 
ATOM     10  C   UNL     1      44.689  27.313  83.801  0.00  0.00    +0.000 C 
ATOM     11  C   UNL     1      43.390  26.920  83.494  0.00  0.00    +0.000 C 
ATOM     12  C   UNL     1      43.087  25.564  83.403  0.00  0.00    +0.000 C 
ATOM     13  C   UNL     1      44.082  24.611  83.618  0.00  0.00    +0.000 C 
ATOM     14  C   UNL     1      48.626  24.199  86.329  0.00  0.00    +0.000 C 
ATOM     15  C   UNL     1      48.730  25.174  87.363  0.00  0.00    +0.000 C 
ATOM     16  C   UNL     1      47.612  25.494  88.128  0.00  0.00    +0.000 C 
ATOM     17  C   UNL     1      47.725  26.456  89.127  0.00  0.00    +0.000 C 
ATOM     18  C   UNL     1      48.934  27.098  89.369  0.00  0.00    +0.000 C 
ATOM     19  C   UNL     1      50.050  26.772  88.601  0.00  0.00    +0.000 C 
ATOM     20  C   UNL     1      49.949  25.810  87.597  0.00  0.00    +0.000 C 
ENDROOT
BRANCH  10  21
ATOM     21  O   UNL     1      44.959  28.648  83.884  0.00  0.00    +0.000 OA
ATOM     22  H   UNL     1      44.299  29.062  84.467  0.00  0.00    +0.000 HD
ENDBRANCH  10  21
BRANCH  17  23
ATOM     23  O   UNL     1      46.648  26.795  89.894  0.00  0.00    +0.000 OA
ATOM     24  H   UNL     1      46.853  26.587  90.823  0.00  0.00    +0.000 HD
ENDBRANCH  17  23
TORSDOF 2
ENDMDL
