MODEL 1
REMARK VINA RESULT:      -7.4      0.000      0.000
REMARK  Name = Estradiol.pdbqt.pdb
REMARK  2 active torsions:
REMARK  status: ('A' for Active; 'I' for Inactive)
REMARK    1  A    between atoms: C_5  and  O_19
REMARK    2  A    between atoms: C_18  and  O_21
REMARK                            x       y       z     vdW  Elec       q    Type
REMARK                         _______ _______ _______ _____ _____    ______ ____
ROOT
ATOM      1  C   UNL     1      57.525  35.720  80.534  0.00  0.00    +0.000 C 
ATOM      2  C   UNL     1      56.722  35.200  79.244  0.00  0.00    +0.000 C 
ATOM      3  C   UNL     1      56.892  35.832  77.926  0.00  0.00    +0.000 A 
ATOM      4  C   UNL     1      57.962  36.831  77.542  0.00  0.00    +0.000 A 
ATOM      5  C   UNL     1      57.993  34.406  81.195  0.00  0.00    +0.000 C 
ATOM      6  C   UNL     1      58.617  36.550  80.022  0.00  0.00    +0.000 C 
ATOM      7  C   UNL     1      56.643  33.774  79.350  0.00  0.00    +0.000 C 
ATOM      8  C   UNL     1      58.825  37.104  78.633  0.00  0.00    +0.000 C 
ATOM      9  C   UNL     1      57.447  33.279  80.526  0.00  0.00    +0.000 C 
ATOM     10  C   UNL     1      56.056  35.518  76.824  0.00  0.00    +0.000 A 
ATOM     11  C   UNL     1      56.541  36.479  81.461  0.00  0.00    +0.000 C 
ATOM     12  C   UNL     1      58.094  37.447  76.179  0.00  0.00    +0.000 A 
ATOM     13  C   UNL     1      56.200  36.129  75.452  0.00  0.00    +0.000 A 
ATOM     14  C   UNL     1      57.200  37.090  75.124  0.00  0.00    +0.000 A 
ATOM     15  C   UNL     1      59.090  38.386  75.912  0.00  0.00    +0.000 A 
ATOM     16  C   UNL     1      57.299  37.655  73.860  0.00  0.00    +0.000 A 
ATOM     17  C   UNL     1      59.196  38.958  74.644  0.00  0.00    +0.000 A 
ATOM     18  C   UNL     1      58.304  38.589  73.635  0.00  0.00    +0.000 A 
ENDROOT
BRANCH   5  19
ATOM     19  O   UNL     1      59.124  34.324  81.978  0.00  0.00    +0.000 OA
ATOM     20  H   UNL     1      59.777  33.706  81.605  0.00  0.00    +0.000 HD
ENDBRANCH   5  19
BRANCH  18  21
ATOM     21  O   UNL     1      58.397  39.148  72.392  0.00  0.00    +0.000 OA
ATOM     22  H   UNL     1      58.780  38.488  71.787  0.00  0.00    +0.000 HD
ENDBRANCH  18  21
TORSDOF 2
ENDMDL
MODEL 2
REMARK VINA RESULT:      -7.3      1.424      6.439
REMARK  Name = Estradiol.pdbqt.pdb
REMARK  2 active torsions:
REMARK  status: ('A' for Active; 'I' for Inactive)
REMARK    1  A    between atoms: C_5  and  O_19
REMARK    2  A    between atoms: C_18  and  O_21
REMARK                            x       y       z     vdW  Elec       q    Type
REMARK                         _______ _______ _______ _____ _____    ______ ____
ROOT
ATOM      1  C   UNL     1      58.228  37.496  74.394  0.00  0.00    +0.000 C 
ATOM      2  C   UNL     1      56.864  36.954  75.045  0.00  0.00    +0.000 C 
ATOM      3  C   UNL     1      56.865  36.173  76.292  0.00  0.00    +0.000 A 
ATOM      4  C   UNL     1      58.035  35.988  77.234  0.00  0.00    +0.000 A 
ATOM      5  C   UNL     1      57.864  38.943  73.999  0.00  0.00    +0.000 C 
ATOM      6  C   UNL     1      59.242  37.404  75.445  0.00  0.00    +0.000 C 
ATOM      7  C   UNL     1      55.871  37.964  74.832  0.00  0.00    +0.000 C 
ATOM      8  C   UNL     1      59.182  36.679  76.768  0.00  0.00    +0.000 C 
ATOM      9  C   UNL     1      56.484  39.198  74.221  0.00  0.00    +0.000 C 
ATOM     10  C   UNL     1      55.700  35.524  76.778  0.00  0.00    +0.000 A 
ATOM     11  C   UNL     1      58.550  36.650  73.134  0.00  0.00    +0.000 C 
ATOM     12  C   UNL     1      57.984  35.181  78.498  0.00  0.00    +0.000 A 
ATOM     13  C   UNL     1      55.649  34.725  78.056  0.00  0.00    +0.000 A 
ATOM     14  C   UNL     1      56.775  34.542  78.911  0.00  0.00    +0.000 A 
ATOM     15  C   UNL     1      59.117  35.031  79.298  0.00  0.00    +0.000 A 
ATOM     16  C   UNL     1      56.709  33.784  80.072  0.00  0.00    +0.000 A 
ATOM     17  C   UNL     1      59.058  34.270  80.466  0.00  0.00    +0.000 A 
ATOM     18  C   UNL     1      57.861  33.656  80.840  0.00  0.00    +0.000 A 
ENDROOT
BRANCH   5  19
ATOM     19  O   UNL     1      58.798  39.953  73.915  0.00  0.00    +0.000 OA
ATOM     20  H   UNL     1      59.657  39.624  73.597  0.00  0.00    +0.000 HD
ENDBRANCH   5  19
BRANCH  18  21
ATOM     21  O   UNL     1      57.796  32.906  81.979  0.00  0.00    +0.000 OA
ATOM     22  H   UNL     1      56.954  33.101  82.428  0.00  0.00    +0.000 HD
ENDBRANCH  18  21
TORSDOF 2
ENDMDL
MODEL 3
REMARK VINA RESULT:      -6.8      1.600      6.537
REMARK  Name = Estradiol.pdbqt.pdb
REMARK  2 active torsions:
REMARK  status: ('A' for Active; 'I' for Inactive)
REMARK    1  A    between atoms: C_5  and  O_19
REMARK    2  A    between atoms: C_18  and  O_21
REMARK                            x       y       z     vdW  Elec       q    Type
REMARK                         _______ _______ _______ _____ _____    ______ ____
ROOT
ATOM      1  C   UNL     1      57.802  37.872  75.207  0.00  0.00    +0.000 C 
ATOM      2  C   UNL     1      58.711  36.683  75.789  0.00  0.00    +0.000 C 
ATOM      3  C   UNL     1      58.643  36.285  77.203  0.00  0.00    +0.000 A 
ATOM      4  C   UNL     1      57.597  36.719  78.208  0.00  0.00    +0.000 A 
ATOM      5  C   UNL     1      57.295  37.289  73.871  0.00  0.00    +0.000 C 
ATOM      6  C   UNL     1      56.747  38.094  76.197  0.00  0.00    +0.000 C 
ATOM      7  C   UNL     1      58.796  35.684  74.766  0.00  0.00    +0.000 C 
ATOM      8  C   UNL     1      56.647  37.588  77.615  0.00  0.00    +0.000 C 
ATOM      9  C   UNL     1      57.905  36.034  73.601  0.00  0.00    +0.000 C 
ATOM     10  C   UNL     1      59.568  35.376  77.778  0.00  0.00    +0.000 A 
ATOM     11  C   UNL     1      58.700  39.111  74.956  0.00  0.00    +0.000 C 
ATOM     12  C   UNL     1      57.570  36.281  79.643  0.00  0.00    +0.000 A 
ATOM     13  C   UNL     1      59.530  34.928  79.218  0.00  0.00    +0.000 A 
ATOM     14  C   UNL     1      58.550  35.375  80.152  0.00  0.00    +0.000 A 
ATOM     15  C   UNL     1      56.590  36.753  80.517  0.00  0.00    +0.000 A 
ATOM     16  C   UNL     1      58.548  34.965  81.478  0.00  0.00    +0.000 A 
ATOM     17  C   UNL     1      56.581  36.345  81.851  0.00  0.00    +0.000 A 
ATOM     18  C   UNL     1      57.556  35.460  82.317  0.00  0.00    +0.000 A 
ENDROOT
BRANCH   5  19
ATOM     19  O   UNL     1      56.106  37.672  73.290  0.00  0.00    +0.000 OA
ATOM     20  H   UNL     1      55.514  38.104  73.932  0.00  0.00    +0.000 HD
ENDBRANCH   5  19
BRANCH  18  21
ATOM     21  O   UNL     1      57.557  35.060  83.622  0.00  0.00    +0.000 OA
ATOM     22  H   UNL     1      58.112  35.677  84.132  0.00  0.00    +0.000 HD
ENDBRANCH  18  21
TORSDOF 2
ENDMDL
MODEL 4
REMARK VINA RESULT:      -6.4     16.167     18.658
REMARK  Name = Estradiol.pdbqt.pdb
REMARK  2 active torsions:
REMARK  status: ('A' for Active; 'I' for Inactive)
REMARK    1  A    between atoms: C_5  and  O_19
REMARK    2  A    between atoms: C_18  and  O_21
REMARK                            x       y       z     vdW  Elec       q    Type
REMARK                         _______ _______ _______ _____ _____    ______ ____
ROOT
ATOM      1  C   UNL     1      51.592  16.332  75.586  0.00  0.00    +0.000 C 
ATOM      2  C   UNL     1      51.414  17.124  76.972  0.00  0.00    +0.000 C 
ATOM      3  C   UNL     1      51.844  18.523  77.119  0.00  0.00    +0.000 A 
ATOM      4  C   UNL     1      52.254  19.457  76.001  0.00  0.00    +0.000 A 
ATOM      5  C   UNL     1      50.240  15.604  75.435  0.00  0.00    +0.000 C 
ATOM      6  C   UNL     1      51.835  17.354  74.566  0.00  0.00    +0.000 C 
ATOM      7  C   UNL     1      50.173  16.691  77.542  0.00  0.00    +0.000 C 
ATOM      8  C   UNL     1      52.174  18.815  74.740  0.00  0.00    +0.000 C 
ATOM      9  C   UNL     1      49.434  15.785  76.591  0.00  0.00    +0.000 C 
ATOM     10  C   UNL     1      51.874  19.176  78.378  0.00  0.00    +0.000 A 
ATOM     11  C   UNL     1      52.749  15.311  75.740  0.00  0.00    +0.000 C 
ATOM     12  C   UNL     1      52.683  20.882  76.204  0.00  0.00    +0.000 A 
ATOM     13  C   UNL     1      52.294  20.611  78.577  0.00  0.00    +0.000 A 
ATOM     14  C   UNL     1      52.703  21.462  77.509  0.00  0.00    +0.000 A 
ATOM     15  C   UNL     1      53.078  21.671  75.124  0.00  0.00    +0.000 A 
ATOM     16  C   UNL     1      53.105  22.774  77.719  0.00  0.00    +0.000 A 
ATOM     17  C   UNL     1      53.483  22.990  75.327  0.00  0.00    +0.000 A 
ATOM     18  C   UNL     1      53.494  23.526  76.616  0.00  0.00    +0.000 A 
ENDROOT
BRANCH   5  19
ATOM     19  O   UNL     1      49.710  15.258  74.211  0.00  0.00    +0.000 OA
ATOM     20  H   UNL     1      50.201  14.524  73.799  0.00  0.00    +0.000 HD
ENDBRANCH   5  19
BRANCH  18  21
ATOM     21  O   UNL     1      53.894  24.815  76.824  0.00  0.00    +0.000 OA
ATOM     22  H   UNL     1      53.965  25.258  75.960  0.00  0.00    +0.000 HD
ENDBRANCH  18  21
TORSDOF 2
ENDMDL
MODEL 5
REMARK VINA RESULT:      -6.4     15.433     18.003
REMARK  Name = Estradiol.pdbqt.pdb
REMARK  2 active torsions:
REMARK  status: ('A' for Active; 'I' for Inactive)
REMARK    1  A    between atoms: C_5  and  O_19
REMARK    2  A    between atoms: C_18  and  O_21
REMARK                            x       y       z     vdW  Elec       q    Type
REMARK                         _______ _______ _______ _____ _____    ______ ____
ROOT
ATOM      1  C   UNL     1      51.448  16.836  78.978  0.00  0.00    +0.000 C 
ATOM      2  C   UNL     1      51.528  18.218  79.791  0.00  0.00    +0.000 C 
ATOM      3  C   UNL     1      51.969  19.465  79.146  0.00  0.00    +0.000 A 
ATOM      4  C   UNL     1      52.155  19.689  77.661  0.00  0.00    +0.000 A 
ATOM      5  C   UNL     1      50.097  16.249  79.438  0.00  0.00    +0.000 C 
ATOM      6  C   UNL     1      51.488  17.198  77.561  0.00  0.00    +0.000 C 
ATOM      7  C   UNL     1      50.420  18.232  80.698  0.00  0.00    +0.000 C 
ATOM      8  C   UNL     1      51.844  18.520  76.923  0.00  0.00    +0.000 C 
ATOM      9  C   UNL     1      49.521  17.045  80.464  0.00  0.00    +0.000 C 
ATOM     10  C   UNL     1      52.230  20.647  79.886  0.00  0.00    +0.000 A 
ATOM     11  C   UNL     1      52.621  15.925  79.427  0.00  0.00    +0.000 C 
ATOM     12  C   UNL     1      52.605  20.985  77.051  0.00  0.00    +0.000 A 
ATOM     13  C   UNL     1      52.670  21.951  79.268  0.00  0.00    +0.000 A 
ATOM     14  C   UNL     1      52.865  22.128  77.867  0.00  0.00    +0.000 A 
ATOM     15  C   UNL     1      52.784  21.103  75.673  0.00  0.00    +0.000 A 
ATOM     16  C   UNL     1      53.291  23.332  77.324  0.00  0.00    +0.000 A 
ATOM     17  C   UNL     1      53.212  22.310  75.120  0.00  0.00    +0.000 A 
ATOM     18  C   UNL     1      53.460  23.408  75.947  0.00  0.00    +0.000 A 
ENDROOT
BRANCH   5  19
ATOM     19  O   UNL     1      49.348  15.394  78.658  0.00  0.00    +0.000 OA
ATOM     20  H   UNL     1      49.642  14.470  78.752  0.00  0.00    +0.000 HD
ENDBRANCH   5  19
BRANCH  18  21
ATOM     21  O   UNL     1      53.884  24.592  75.414  0.00  0.00    +0.000 OA
ATOM     22  H   UNL     1      53.390  25.314  75.840  0.00  0.00    +0.000 HD
ENDBRANCH  18  21
TORSDOF 2
ENDMDL
MODEL 6
REMARK VINA RESULT:      -6.3      6.066      7.262
REMARK  Name = Estradiol.pdbqt.pdb
REMARK  2 active torsions:
REMARK  status: ('A' for Active; 'I' for Inactive)
REMARK    1  A    between atoms: C_5  and  O_19
REMARK    2  A    between atoms: C_18  and  O_21
REMARK                            x       y       z     vdW  Elec       q    Type
REMARK                         _______ _______ _______ _____ _____    ______ ____
ROOT
ATOM      1  C   UNL     1      60.374  35.638  75.496  0.00  0.00    +0.000 C 
ATOM      2  C   UNL     1      61.159  34.237  75.521  0.00  0.00    +0.000 C 
ATOM      3  C   UNL     1      61.019  33.257  74.434  0.00  0.00    +0.000 A 
ATOM      4  C   UNL     1      60.366  33.496  73.089  0.00  0.00    +0.000 A 
ATOM      5  C   UNL     1      61.457  36.643  75.942  0.00  0.00    +0.000 C 
ATOM      6  C   UNL     1      59.924  35.823  74.115  0.00  0.00    +0.000 C 
ATOM      7  C   UNL     1      62.447  34.493  76.095  0.00  0.00    +0.000 C 
ATOM      8  C   UNL     1      59.884  34.825  72.982  0.00  0.00    +0.000 C 
ATOM      9  C   UNL     1      62.648  35.969  76.325  0.00  0.00    +0.000 C 
ATOM     10  C   UNL     1      61.546  31.943  74.527  0.00  0.00    +0.000 A 
ATOM     11  C   UNL     1      59.221  35.582  76.531  0.00  0.00    +0.000 C 
ATOM     12  C   UNL     1      60.250  32.461  72.009  0.00  0.00    +0.000 A 
ATOM     13  C   UNL     1      61.439  30.909  73.434  0.00  0.00    +0.000 A 
ATOM     14  C   UNL     1      60.793  31.152  72.187  0.00  0.00    +0.000 A 
ATOM     15  C   UNL     1      59.603  32.750  70.807  0.00  0.00    +0.000 A 
ATOM     16  C   UNL     1      60.688  30.177  71.204  0.00  0.00    +0.000 A 
ATOM     17  C   UNL     1      59.494  31.775  69.815  0.00  0.00    +0.000 A 
ATOM     18  C   UNL     1      60.034  30.505  70.022  0.00  0.00    +0.000 A 
ENDROOT
BRANCH   5  19
ATOM     19  O   UNL     1      61.446  37.969  75.568  0.00  0.00    +0.000 OA
ATOM     20  H   UNL     1      61.515  38.561  76.338  0.00  0.00    +0.000 HD
ENDBRANCH   5  19
BRANCH  18  21
ATOM     21  O   UNL     1      59.927  29.543  69.058  0.00  0.00    +0.000 OA
ATOM     22  H   UNL     1      60.775  29.490  68.582  0.00  0.00    +0.000 HD
ENDBRANCH  18  21
TORSDOF 2
ENDMDL
MODEL 7
REMARK VINA RESULT:      -6.1      3.611      5.075
REMARK  Name = Estradiol.pdbqt.pdb
REMARK  2 active torsions:
REMARK  status: ('A' for Active; 'I' for Inactive)
REMARK    1  A    between atoms: C_5  and  O_19
REMARK    2  A    between atoms: C_18  and  O_21
REMARK                            x       y       z     vdW  Elec       q    Type
REMARK                         _______ _______ _______ _____ _____    ______ ____
ROOT
ATOM      1  C   UNL     1      56.156  36.002  76.680  0.00  0.00    +0.000 C 
ATOM      2  C   UNL     1      57.540  36.260  77.452  0.00  0.00    +0.000 C 
ATOM      3  C   UNL     1      58.836  35.939  76.834  0.00  0.00    +0.000 A 
ATOM      4  C   UNL     1      59.075  35.585  75.382  0.00  0.00    +0.000 A 
ATOM      5  C   UNL     1      55.361  37.293  76.969  0.00  0.00    +0.000 C 
ATOM      6  C   UNL     1      56.507  35.823  75.271  0.00  0.00    +0.000 C 
ATOM      7  C   UNL     1      57.382  37.473  78.198  0.00  0.00    +0.000 C 
ATOM      8  C   UNL     1      57.863  35.597  74.646  0.00  0.00    +0.000 C 
ATOM      9  C   UNL     1      56.061  38.127  77.881  0.00  0.00    +0.000 C 
ATOM     10  C   UNL     1      60.052  35.977  77.565  0.00  0.00    +0.000 A 
ATOM     11  C   UNL     1      55.453  34.774  77.314  0.00  0.00    +0.000 C 
ATOM     12  C   UNL     1      60.421  35.268  74.799  0.00  0.00    +0.000 A 
ATOM     13  C   UNL     1      61.405  35.671  76.972  0.00  0.00    +0.000 A 
ATOM     14  C   UNL     1      61.598  35.311  75.606  0.00  0.00    +0.000 A 
ATOM     15  C   UNL     1      60.554  34.918  73.455  0.00  0.00    +0.000 A 
ATOM     16  C   UNL     1      62.851  35.012  75.088  0.00  0.00    +0.000 A 
ATOM     17  C   UNL     1      61.810  34.617  72.928  0.00  0.00    +0.000 A 
ATOM     18  C   UNL     1      62.940  34.666  73.745  0.00  0.00    +0.000 A 
ENDROOT
BRANCH   5  19
ATOM     19  O   UNL     1      54.388  37.778  76.122  0.00  0.00    +0.000 OA
ATOM     20  H   UNL     1      54.507  38.728  75.942  0.00  0.00    +0.000 HD
ENDBRANCH   5  19
BRANCH  18  21
ATOM     21  O   UNL     1      64.172  34.367  73.237  0.00  0.00    +0.000 OA
ATOM     22  H   UNL     1      64.721  34.005  73.956  0.00  0.00    +0.000 HD
ENDBRANCH  18  21
TORSDOF 2
ENDMDL
MODEL 8
REMARK VINA RESULT:      -5.9      2.270      7.034
REMARK  Name = Estradiol.pdbqt.pdb
REMARK  2 active torsions:
REMARK  status: ('A' for Active; 'I' for Inactive)
REMARK    1  A    between atoms: C_5  and  O_19
REMARK    2  A    between atoms: C_18  and  O_21
REMARK                            x       y       z     vdW  Elec       q    Type
REMARK                         _______ _______ _______ _____ _____    ______ ____
ROOT
ATOM      1  C   UNL     1      56.723  39.725  72.944  0.00  0.00    +0.000 C 
ATOM      2  C   UNL     1      57.655  38.435  72.729  0.00  0.00    +0.000 C 
ATOM      3  C   UNL     1      58.179  37.666  73.868  0.00  0.00    +0.000 A 
ATOM      4  C   UNL     1      57.747  37.798  75.313  0.00  0.00    +0.000 A 
ATOM      5  C   UNL     1      55.612  39.521  71.893  0.00  0.00    +0.000 C 
ATOM      6  C   UNL     1      56.253  39.657  74.328  0.00  0.00    +0.000 C 
ATOM      7  C   UNL     1      57.160  37.753  71.571  0.00  0.00    +0.000 C 
ATOM      8  C   UNL     1      56.739  38.783  75.460  0.00  0.00    +0.000 C 
ATOM      9  C   UNL     1      55.889  38.395  71.073  0.00  0.00    +0.000 C 
ATOM     10  C   UNL     1      59.153  36.647  73.709  0.00  0.00    +0.000 A 
ATOM     11  C   UNL     1      57.551  40.997  72.623  0.00  0.00    +0.000 C 
ATOM     12  C   UNL     1      58.313  36.986  76.442  0.00  0.00    +0.000 A 
ATOM     13  C   UNL     1      59.709  35.824  74.844  0.00  0.00    +0.000 A 
ATOM     14  C   UNL     1      59.306  35.988  76.201  0.00  0.00    +0.000 A 
ATOM     15  C   UNL     1      57.885  37.190  77.754  0.00  0.00    +0.000 A 
ATOM     16  C   UNL     1      59.848  35.233  77.233  0.00  0.00    +0.000 A 
ATOM     17  C   UNL     1      58.426  36.435  78.795  0.00  0.00    +0.000 A 
ATOM     18  C   UNL     1      59.398  35.469  78.526  0.00  0.00    +0.000 A 
ENDROOT
BRANCH   5  19
ATOM     19  O   UNL     1      54.340  40.032  72.040  0.00  0.00    +0.000 OA
ATOM     20  H   UNL     1      54.357  40.984  72.246  0.00  0.00    +0.000 HD
ENDBRANCH   5  19
BRANCH  18  21
ATOM     21  O   UNL     1      59.935  34.729  79.540  0.00  0.00    +0.000 OA
ATOM     22  H   UNL     1      59.210  34.281  80.011  0.00  0.00    +0.000 HD
ENDBRANCH  18  21
TORSDOF 2
ENDMDL
MODEL 9
REMARK VINA RESULT:      -5.7     42.721     45.436
REMARK  Name = Estradiol.pdbqt.pdb
REMARK  2 active torsions:
REMARK  status: ('A' for Active; 'I' for Inactive)
REMARK    1  A    between atoms: C_5  and  O_19
REMARK    2  A    between atoms: C_18  and  O_21
REMARK                            x       y       z     vdW  Elec       q    Type
REMARK                         _______ _______ _______ _____ _____    ______ ____
ROOT
ATOM      1  C   UNL     1      26.471   9.494  88.051  0.00  0.00    +0.000 C 
ATOM      2  C   UNL     1      24.899   9.822  88.060  0.00  0.00    +0.000 C 
ATOM      3  C   UNL     1      23.914   8.882  87.501  0.00  0.00    +0.000 A 
ATOM      4  C   UNL     1      24.175   7.448  87.093  0.00  0.00    +0.000 A 
ATOM      5  C   UNL     1      26.913   9.915  89.469  0.00  0.00    +0.000 C 
ATOM      6  C   UNL     1      26.582   8.057  87.795  0.00  0.00    +0.000 C 
ATOM      7  C   UNL     1      24.622  10.503  89.289  0.00  0.00    +0.000 C 
ATOM      8  C   UNL     1      25.527   7.088  87.318  0.00  0.00    +0.000 C 
ATOM      9  C   UNL     1      25.844  10.534  90.171  0.00  0.00    +0.000 C 
ATOM     10  C   UNL     1      22.551   9.232  87.324  0.00  0.00    +0.000 A 
ATOM     11  C   UNL     1      27.159  10.379  86.980  0.00  0.00    +0.000 C 
ATOM     12  C   UNL     1      23.133   6.527  86.528  0.00  0.00    +0.000 A 
ATOM     13  C   UNL     1      21.504   8.299  86.768  0.00  0.00    +0.000 A 
ATOM     14  C   UNL     1      21.782   6.961  86.364  0.00  0.00    +0.000 A 
ATOM     15  C   UNL     1      23.460   5.226  86.145  0.00  0.00    +0.000 A 
ATOM     16  C   UNL     1      20.806   6.128  85.835  0.00  0.00    +0.000 A 
ATOM     17  C   UNL     1      22.484   4.383  85.613  0.00  0.00    +0.000 A 
ATOM     18  C   UNL     1      21.173   4.840  85.463  0.00  0.00    +0.000 A 
ENDROOT
BRANCH   5  19
ATOM     19  O   UNL     1      27.992   9.350  90.114  0.00  0.00    +0.000 OA
ATOM     20  H   UNL     1      28.333   9.929  90.820  0.00  0.00    +0.000 HD
ENDBRANCH   5  19
BRANCH  18  21
ATOM     21  O   UNL     1      20.213   4.023  84.938  0.00  0.00    +0.000 OA
ATOM     22  H   UNL     1      19.374   4.516  84.907  0.00  0.00    +0.000 HD
ENDBRANCH  18  21
TORSDOF 2
ENDMDL
