MODEL 1
REMARK VINA RESULT:      -6.4      0.000      0.000
REMARK  Name = 
REMARK  11 active torsions:
REMARK  status: ('A' for Active; 'I' for Inactive)
REMARK    1  A    between atoms: O_1  and  C_16
REMARK    2  A    between atoms: O_1  and  C_22
REMARK    3  A    between atoms: O_6  and  C_24
REMARK    4  A    between atoms: O_8  and  C_26
REMARK    5  A    between atoms: O_11  and  C_36
REMARK    6  A    between atoms: O_11  and  C_41
REMARK    7  A    between atoms: O_12  and  C_37
REMARK    8  A    between atoms: O_12  and  C_42
REMARK    9  A    between atoms: O_13  and  C_39
REMARK   10  A    between atoms: C_17  and  C_23
REMARK   11  A    between atoms: C_35  and  C_40
REMARK                            x       y       z     vdW  Elec       q    Type
REMARK                         _______ _______ _______ _____ _____    ______ ____
ROOT
ATOM      1  O   UNL     1      55.770  42.655  73.436  0.00  0.00    +0.000 OA
ATOM      2  O   UNL     1      56.466  44.020  71.731  0.00  0.00    +0.000 OA
ATOM      3  O   UNL     1      56.940  36.089  68.310  0.00  0.00    +0.000 OA
ATOM      4  O   UNL     1      57.110  37.854  66.675  0.00  0.00    +0.000 OA
ATOM      5  C   UNL     1      55.694  40.639  72.297  0.00  0.00    +0.000 C 
ATOM      6  C   UNL     1      56.553  41.601  71.499  0.00  0.00    +0.000 C 
ATOM      7  C   UNL     1      56.165  39.206  72.084  0.00  0.00    +0.000 C 
ATOM      8  C   UNL     1      56.293  41.448  70.001  0.00  0.00    +0.000 C 
ATOM      9  C   UNL     1      56.387  38.922  70.599  0.00  0.00    +0.000 A 
ATOM     10  C   UNL     1      56.487  39.970  69.625  0.00  0.00    +0.000 A 
ATOM     11  C   UNL     1      55.806  41.238  73.676  0.00  0.00    +0.000 C 
ATOM     12  C   UNL     1      56.246  42.905  72.173  0.00  0.00    +0.000 C 
ATOM     13  C   UNL     1      56.536  37.583  70.190  0.00  0.00    +0.000 A 
ATOM     14  C   UNL     1      56.732  39.652  68.274  0.00  0.00    +0.000 A 
ATOM     15  C   UNL     1      56.775  37.323  68.858  0.00  0.00    +0.000 A 
ATOM     16  C   UNL     1      56.872  38.327  67.928  0.00  0.00    +0.000 A 
ATOM     17  C   UNL     1      57.151  36.434  66.924  0.00  0.00    +0.000 C 
ENDROOT
BRANCH   8  18
ATOM     18  C   UNL     1      54.959  42.022  69.516  0.00  0.00    +0.000 A 
ATOM     19  C   UNL     1      53.718  41.442  69.835  0.00  0.00    +0.000 A 
ATOM     20  C   UNL     1      54.959  43.185  68.728  0.00  0.00    +0.000 A 
ATOM     21  C   UNL     1      53.762  43.758  68.298  0.00  0.00    +0.000 A 
ATOM     22  C   UNL     1      52.503  41.988  69.396  0.00  0.00    +0.000 A 
ATOM     23  C   UNL     1      52.539  43.151  68.626  0.00  0.00    +0.000 A 
BRANCH  21  24
ATOM     24  O   UNL     1      53.653  44.905  67.545  0.00  0.00    +0.000 OA
ATOM     25  C   UNL     1      54.076  46.114  68.170  0.00  0.00    +0.000 C 
ENDBRANCH  21  24
BRANCH  22  26
ATOM     26  O   UNL     1      51.415  41.273  69.817  0.00  0.00    +0.000 OA
ATOM     27  C   UNL     1      51.587  40.374  70.903  0.00  0.00    +0.000 C 
ENDBRANCH  22  26
BRANCH  23  28
ATOM     28  O   UNL     1      51.395  43.757  68.170  0.00  0.00    +0.000 OA
ATOM     29  H   UNL     1      51.253  44.513  68.772  0.00  0.00    +0.000 HD
ENDBRANCH  23  28
ENDBRANCH   8  18
BRANCH   7  30
ATOM     30  O   UNL     1      57.425  39.018  72.729  0.00  0.00    +0.000 OA
BRANCH  30  34
ATOM     31  O   UNL     1      56.244  37.846  74.372  0.00  0.00    +0.000 OA
ATOM     32  O   UNL     1      57.342  35.838  77.251  0.00  0.00    +0.000 OA
ATOM     33  O   UNL     1      55.004  35.596  77.002  0.00  0.00    +0.000 OA
ATOM     34  C   UNL     1      57.446  37.880  73.600  0.00  0.00    +0.000 C 
ATOM     35  C   UNL     1      58.706  38.018  74.486  0.00  0.00    +0.000 C 
ATOM     36  C   UNL     1      57.367  36.920  76.313  0.00  0.00    +0.000 C 
ATOM     37  C   UNL     1      58.718  36.959  75.598  0.00  0.00    +0.000 C 
ATOM     38  C   UNL     1      56.253  36.752  75.284  0.00  0.00    +0.000 C 
ATOM     39  C   UNL     1      54.936  36.653  76.046  0.00  0.00    +0.000 C 
ATOM     40  C   UNL     1      56.078  35.792  77.921  0.00  0.00    +0.000 C 
ATOM     41  C   UNL     1      56.100  34.614  78.877  0.00  0.00    +0.000 C 
BRANCH  35  42
ATOM     42  O   UNL     1      59.877  37.881  73.664  0.00  0.00    +0.000 OA
ATOM     43  H   UNL     1      59.651  38.285  72.804  0.00  0.00    +0.000 HD
ENDBRANCH  35  42
BRANCH  37  44
ATOM     44  O   UNL     1      59.736  37.267  76.565  0.00  0.00    +0.000 OA
ATOM     45  H   UNL     1      60.586  37.191  76.092  0.00  0.00    +0.000 HD
ENDBRANCH  37  44
ENDBRANCH  30  34
ENDBRANCH   7  30
TORSDOF 8
ENDMDL
MODEL 2
REMARK VINA RESULT:      -6.2     20.730     24.826
REMARK  Name = 
REMARK  11 active torsions:
REMARK  status: ('A' for Active; 'I' for Inactive)
REMARK    1  A    between atoms: O_1  and  C_16
REMARK    2  A    between atoms: O_1  and  C_22
REMARK    3  A    between atoms: O_6  and  C_24
REMARK    4  A    between atoms: O_8  and  C_26
REMARK    5  A    between atoms: O_11  and  C_36
REMARK    6  A    between atoms: O_11  and  C_41
REMARK    7  A    between atoms: O_12  and  C_37
REMARK    8  A    between atoms: O_12  and  C_42
REMARK    9  A    between atoms: O_13  and  C_39
REMARK   10  A    between atoms: C_17  and  C_23
REMARK   11  A    between atoms: C_35  and  C_40
REMARK                            x       y       z     vdW  Elec       q    Type
REMARK                         _______ _______ _______ _____ _____    ______ ____
ROOT
ATOM      1  O   UNL     1      46.109  20.301  83.911  0.00  0.00    +0.000 OA
ATOM      2  O   UNL     1      47.997  21.320  83.102  0.00  0.00    +0.000 OA
ATOM      3  O   UNL     1      42.418  27.858  84.082  0.00  0.00    +0.000 OA
ATOM      4  O   UNL     1      44.691  28.579  83.724  0.00  0.00    +0.000 OA
ATOM      5  C   UNL     1      44.834  22.181  84.369  0.00  0.00    +0.000 C 
ATOM      6  C   UNL     1      45.942  22.581  83.413  0.00  0.00    +0.000 C 
ATOM      7  C   UNL     1      43.601  23.046  84.144  0.00  0.00    +0.000 C 
ATOM      8  C   UNL     1      46.502  23.956  83.776  0.00  0.00    +0.000 C 
ATOM      9  C   UNL     1      43.982  24.522  84.052  0.00  0.00    +0.000 A 
ATOM     10  C   UNL     1      45.333  24.953  83.840  0.00  0.00    +0.000 A 
ATOM     11  C   UNL     1      44.740  20.702  84.088  0.00  0.00    +0.000 C 
ATOM     12  C   UNL     1      46.836  21.380  83.471  0.00  0.00    +0.000 C 
ATOM     13  C   UNL     1      42.957  25.484  84.139  0.00  0.00    +0.000 A 
ATOM     14  C   UNL     1      45.622  26.328  83.723  0.00  0.00    +0.000 A 
ATOM     15  C   UNL     1      43.289  26.816  84.018  0.00  0.00    +0.000 A 
ATOM     16  C   UNL     1      44.582  27.226  83.815  0.00  0.00    +0.000 A 
ATOM     17  C   UNL     1      43.314  28.973  83.896  0.00  0.00    +0.000 C 
ENDROOT
BRANCH   8  18
ATOM     18  C   UNL     1      47.385  23.983  85.026  0.00  0.00    +0.000 A 
ATOM     19  C   UNL     1      48.790  23.969  84.969  0.00  0.00    +0.000 A 
ATOM     20  C   UNL     1      46.777  24.037  86.292  0.00  0.00    +0.000 A 
ATOM     21  C   UNL     1      47.548  24.100  87.454  0.00  0.00    +0.000 A 
ATOM     22  C   UNL     1      49.585  24.010  86.123  0.00  0.00    +0.000 A 
ATOM     23  C   UNL     1      48.950  24.077  87.364  0.00  0.00    +0.000 A 
BRANCH  21  24
ATOM     24  O   UNL     1      47.054  24.179  88.735  0.00  0.00    +0.000 OA
ATOM     25  C   UNL     1      46.320  25.357  89.058  0.00  0.00    +0.000 C 
ENDBRANCH  21  24
BRANCH  22  26
ATOM     26  O   UNL     1      50.925  23.990  85.848  0.00  0.00    +0.000 OA
ATOM     27  C   UNL     1      51.662  22.829  86.204  0.00  0.00    +0.000 C 
ENDBRANCH  22  26
BRANCH  23  28
ATOM     28  O   UNL     1      49.655  24.135  88.540  0.00  0.00    +0.000 OA
ATOM     29  H   UNL     1      50.080  25.015  88.536  0.00  0.00    +0.000 HD
ENDBRANCH  23  28
ENDBRANCH   8  18
BRANCH   7  30
ATOM     30  O   UNL     1      42.998  22.700  82.896  0.00  0.00    +0.000 OA
BRANCH  30  34
ATOM     31  O   UNL     1      40.947  22.842  84.009  0.00  0.00    +0.000 OA
ATOM     32  O   UNL     1      37.470  22.735  82.815  0.00  0.00    +0.000 OA
ATOM     33  O   UNL     1      37.470  23.308  85.108  0.00  0.00    +0.000 OA
ATOM     34  C   UNL     1      41.636  23.132  82.791  0.00  0.00    +0.000 C 
ATOM     35  C   UNL     1      41.022  22.390  81.582  0.00  0.00    +0.000 C 
ATOM     36  C   UNL     1      38.857  22.382  82.865  0.00  0.00    +0.000 C 
ATOM     37  C   UNL     1      39.506  22.621  81.502  0.00  0.00    +0.000 C 
ATOM     38  C   UNL     1      39.575  23.216  83.922  0.00  0.00    +0.000 C 
ATOM     39  C   UNL     1      38.854  22.996  85.248  0.00  0.00    +0.000 C 
ATOM     40  C   UNL     1      36.857  22.518  84.089  0.00  0.00    +0.000 C 
ATOM     41  C   UNL     1      35.401  22.934  83.983  0.00  0.00    +0.000 C 
BRANCH  35  42
ATOM     42  O   UNL     1      41.654  22.851  80.376  0.00  0.00    +0.000 OA
ATOM     43  H   UNL     1      41.895  22.049  79.875  0.00  0.00    +0.000 HD
ENDBRANCH  35  42
BRANCH  37  44
ATOM     44  O   UNL     1      38.917  21.718  80.553  0.00  0.00    +0.000 OA
ATOM     45  H   UNL     1      38.165  22.198  80.157  0.00  0.00    +0.000 HD
ENDBRANCH  37  44
ENDBRANCH  30  34
ENDBRANCH   7  30
TORSDOF 8
ENDMDL
MODEL 3
REMARK VINA RESULT:      -6.1      1.519      2.496
REMARK  Name = 
REMARK  11 active torsions:
REMARK  status: ('A' for Active; 'I' for Inactive)
REMARK    1  A    between atoms: O_1  and  C_16
REMARK    2  A    between atoms: O_1  and  C_22
REMARK    3  A    between atoms: O_6  and  C_24
REMARK    4  A    between atoms: O_8  and  C_26
REMARK    5  A    between atoms: O_11  and  C_36
REMARK    6  A    between atoms: O_11  and  C_41
REMARK    7  A    between atoms: O_12  and  C_37
REMARK    8  A    between atoms: O_12  and  C_42
REMARK    9  A    between atoms: O_13  and  C_39
REMARK   10  A    between atoms: C_17  and  C_23
REMARK   11  A    between atoms: C_35  and  C_40
REMARK                            x       y       z     vdW  Elec       q    Type
REMARK                         _______ _______ _______ _____ _____    ______ ____
ROOT
ATOM      1  O   UNL     1      55.718  43.680  73.417  0.00  0.00    +0.000 OA
ATOM      2  O   UNL     1      56.046  44.653  71.367  0.00  0.00    +0.000 OA
ATOM      3  O   UNL     1      54.647  36.330  69.469  0.00  0.00    +0.000 OA
ATOM      4  O   UNL     1      54.537  37.786  67.549  0.00  0.00    +0.000 OA
ATOM      5  C   UNL     1      55.099  41.556  72.730  0.00  0.00    +0.000 C 
ATOM      6  C   UNL     1      55.795  42.243  71.572  0.00  0.00    +0.000 C 
ATOM      7  C   UNL     1      55.328  40.051  72.670  0.00  0.00    +0.000 C 
ATOM      8  C   UNL     1      55.104  41.914  70.249  0.00  0.00    +0.000 C 
ATOM      9  C   UNL     1      55.085  39.521  71.258  0.00  0.00    +0.000 A 
ATOM     10  C   UNL     1      55.018  40.384  70.116  0.00  0.00    +0.000 A 
ATOM     11  C   UNL     1      55.664  42.326  73.897  0.00  0.00    +0.000 C 
ATOM     12  C   UNL     1      55.840  43.663  72.049  0.00  0.00    +0.000 C 
ATOM     13  C   UNL     1      54.963  38.129  71.079  0.00  0.00    +0.000 A 
ATOM     14  C   UNL     1      54.832  39.837  68.830  0.00  0.00    +0.000 A 
ATOM     15  C   UNL     1      54.782  37.641  69.803  0.00  0.00    +0.000 A 
ATOM     16  C   UNL     1      54.720  38.470  68.711  0.00  0.00    +0.000 A 
ATOM     17  C   UNL     1      54.490  36.429  68.038  0.00  0.00    +0.000 C 
ENDROOT
BRANCH   8  18
ATOM     18  C   UNL     1      53.759  42.613  70.033  0.00  0.00    +0.000 A 
ATOM     19  C   UNL     1      53.606  43.732  69.196  0.00  0.00    +0.000 A 
ATOM     20  C   UNL     1      52.617  42.116  70.684  0.00  0.00    +0.000 A 
ATOM     21  C   UNL     1      51.367  42.703  70.484  0.00  0.00    +0.000 A 
ATOM     22  C   UNL     1      52.364  44.352  68.996  0.00  0.00    +0.000 A 
ATOM     23  C   UNL     1      51.248  43.825  69.647  0.00  0.00    +0.000 A 
BRANCH  21  24
ATOM     24  O   UNL     1      50.188  42.282  71.054  0.00  0.00    +0.000 OA
ATOM     25  C   UNL     1      50.089  42.411  72.470  0.00  0.00    +0.000 C 
ENDBRANCH  21  24
BRANCH  22  26
ATOM     26  O   UNL     1      52.433  45.421  68.144  0.00  0.00    +0.000 OA
ATOM     27  C   UNL     1      53.706  46.007  67.912  0.00  0.00    +0.000 C 
ENDBRANCH  22  26
BRANCH  23  28
ATOM     28  O   UNL     1      49.995  44.364  69.493  0.00  0.00    +0.000 OA
ATOM     29  H   UNL     1      50.150  45.297  69.250  0.00  0.00    +0.000 HD
ENDBRANCH  23  28
ENDBRANCH   8  18
BRANCH   7  30
ATOM     30  O   UNL     1      56.691  39.765  72.986  0.00  0.00    +0.000 OA
BRANCH  30  34
ATOM     31  O   UNL     1      55.881  38.797  74.954  0.00  0.00    +0.000 OA
ATOM     32  O   UNL     1      57.509  36.817  77.591  0.00  0.00    +0.000 OA
ATOM     33  O   UNL     1      55.175  36.808  77.965  0.00  0.00    +0.000 OA
ATOM     34  C   UNL     1      56.838  38.671  73.900  0.00  0.00    +0.000 C 
ATOM     35  C   UNL     1      58.292  38.717  74.424  0.00  0.00    +0.000 C 
ATOM     36  C   UNL     1      57.385  37.847  76.605  0.00  0.00    +0.000 C 
ATOM     37  C   UNL     1      58.500  37.714  75.568  0.00  0.00    +0.000 C 
ATOM     38  C   UNL     1      56.030  37.749  75.908  0.00  0.00    +0.000 C 
ATOM     39  C   UNL     1      54.954  37.822  76.986  0.00  0.00    +0.000 C 
ATOM     40  C   UNL     1      56.465  36.933  78.563  0.00  0.00    +0.000 C 
ATOM     41  C   UNL     1      56.631  35.803  79.563  0.00  0.00    +0.000 C 
BRANCH  35  42
ATOM     42  O   UNL     1      59.191  38.422  73.342  0.00  0.00    +0.000 OA
ATOM     43  H   UNL     1      58.786  38.809  72.542  0.00  0.00    +0.000 HD
ENDBRANCH  35  42
BRANCH  37  44
ATOM     44  O   UNL     1      59.758  37.958  76.218  0.00  0.00    +0.000 OA
ATOM     45  H   UNL     1      59.723  37.467  77.061  0.00  0.00    +0.000 HD
ENDBRANCH  37  44
ENDBRANCH  30  34
ENDBRANCH   7  30
TORSDOF 8
ENDMDL
MODEL 4
REMARK VINA RESULT:      -6.0      2.600      8.544
REMARK  Name = 
REMARK  11 active torsions:
REMARK  status: ('A' for Active; 'I' for Inactive)
REMARK    1  A    between atoms: O_1  and  C_16
REMARK    2  A    between atoms: O_1  and  C_22
REMARK    3  A    between atoms: O_6  and  C_24
REMARK    4  A    between atoms: O_8  and  C_26
REMARK    5  A    between atoms: O_11  and  C_36
REMARK    6  A    between atoms: O_11  and  C_41
REMARK    7  A    between atoms: O_12  and  C_37
REMARK    8  A    between atoms: O_12  and  C_42
REMARK    9  A    between atoms: O_13  and  C_39
REMARK   10  A    between atoms: C_17  and  C_23
REMARK   11  A    between atoms: C_35  and  C_40
REMARK                            x       y       z     vdW  Elec       q    Type
REMARK                         _______ _______ _______ _____ _____    ______ ____
ROOT
ATOM      1  O   UNL     1      55.464  37.014  70.426  0.00  0.00    +0.000 OA
ATOM      2  O   UNL     1      57.696  37.530  70.523  0.00  0.00    +0.000 OA
ATOM      3  O   UNL     1      53.790  45.140  71.817  0.00  0.00    +0.000 OA
ATOM      4  O   UNL     1      56.144  45.164  72.344  0.00  0.00    +0.000 OA
ATOM      5  C   UNL     1      54.577  39.062  71.050  0.00  0.00    +0.000 C 
ATOM      6  C   UNL     1      56.012  39.282  70.609  0.00  0.00    +0.000 C 
ATOM      7  C   UNL     1      53.737  40.298  70.760  0.00  0.00    +0.000 C 
ATOM      8  C   UNL     1      56.707  40.302  71.510  0.00  0.00    +0.000 C 
ATOM      9  C   UNL     1      54.454  41.564  71.226  0.00  0.00    +0.000 A 
ATOM     10  C   UNL     1      55.853  41.581  71.541  0.00  0.00    +0.000 A 
ATOM     11  C   UNL     1      54.252  37.781  70.324  0.00  0.00    +0.000 C 
ATOM     12  C   UNL     1      56.526  37.875  70.552  0.00  0.00    +0.000 C 
ATOM     13  C   UNL     1      53.714  42.760  71.308  0.00  0.00    +0.000 A 
ATOM     14  C   UNL     1      56.472  42.787  71.928  0.00  0.00    +0.000 A 
ATOM     15  C   UNL     1      54.364  43.913  71.690  0.00  0.00    +0.000 A 
ATOM     16  C   UNL     1      55.703  43.927  71.990  0.00  0.00    +0.000 A 
ATOM     17  C   UNL     1      54.925  45.928  72.234  0.00  0.00    +0.000 C 
ENDROOT
BRANCH   8  18
ATOM     18  C   UNL     1      57.070  39.789  72.905  0.00  0.00    +0.000 A 
ATOM     19  C   UNL     1      56.106  39.497  73.887  0.00  0.00    +0.000 A 
ATOM     20  C   UNL     1      58.422  39.583  73.229  0.00  0.00    +0.000 A 
ATOM     21  C   UNL     1      58.791  39.081  74.478  0.00  0.00    +0.000 A 
ATOM     22  C   UNL     1      56.454  39.013  75.156  0.00  0.00    +0.000 A 
ATOM     23  C   UNL     1      57.804  38.807  75.440  0.00  0.00    +0.000 A 
BRANCH  21  24
ATOM     24  O   UNL     1      60.080  38.823  74.884  0.00  0.00    +0.000 OA
ATOM     25  C   UNL     1      60.629  37.570  74.485  0.00  0.00    +0.000 C 
ENDBRANCH  21  24
BRANCH  22  26
ATOM     26  O   UNL     1      55.367  38.793  75.958  0.00  0.00    +0.000 OA
ATOM     27  C   UNL     1      55.035  37.449  76.278  0.00  0.00    +0.000 C 
ENDBRANCH  22  26
BRANCH  23  28
ATOM     28  O   UNL     1      58.227  38.321  76.652  0.00  0.00    +0.000 OA
ATOM     29  H   UNL     1      58.406  39.115  77.192  0.00  0.00    +0.000 HD
ENDBRANCH  23  28
ENDBRANCH   8  18
BRANCH   7  30
ATOM     30  O   UNL     1      53.553  40.428  69.350  0.00  0.00    +0.000 OA
BRANCH  30  34
ATOM     31  O   UNL     1      51.388  39.907  70.061  0.00  0.00    +0.000 OA
ATOM     32  O   UNL     1      48.488  38.468  68.317  0.00  0.00    +0.000 OA
ATOM     33  O   UNL     1      47.808  39.175  70.467  0.00  0.00    +0.000 OA
ATOM     34  C   UNL     1      52.180  40.332  68.951  0.00  0.00    +0.000 C 
ATOM     35  C   UNL     1      52.124  39.330  67.775  0.00  0.00    +0.000 C 
ATOM     36  C   UNL     1      49.868  38.641  68.655  0.00  0.00    +0.000 C 
ATOM     37  C   UNL     1      50.672  38.994  67.403  0.00  0.00    +0.000 C 
ATOM     38  C   UNL     1      50.022  39.755  69.687  0.00  0.00    +0.000 C 
ATOM     39  C   UNL     1      49.154  39.392  70.887  0.00  0.00    +0.000 C 
ATOM     40  C   UNL     1      47.728  38.142  69.484  0.00  0.00    +0.000 C 
ATOM     41  C   UNL     1      46.275  37.998  69.071  0.00  0.00    +0.000 C 
BRANCH  35  42
ATOM     42  O   UNL     1      52.803  39.895  66.642  0.00  0.00    +0.000 OA
ATOM     43  H   UNL     1      52.273  39.649  65.859  0.00  0.00    +0.000 HD
ENDBRANCH  35  42
BRANCH  37  44
ATOM     44  O   UNL     1      50.637  37.870  66.509  0.00  0.00    +0.000 OA
ATOM     45  H   UNL     1      50.928  37.100  67.034  0.00  0.00    +0.000 HD
ENDBRANCH  37  44
ENDBRANCH  30  34
ENDBRANCH   7  30
TORSDOF 8
ENDMDL
MODEL 5
REMARK VINA RESULT:      -6.0     21.297     24.836
REMARK  Name = 
REMARK  11 active torsions:
REMARK  status: ('A' for Active; 'I' for Inactive)
REMARK    1  A    between atoms: O_1  and  C_16
REMARK    2  A    between atoms: O_1  and  C_22
REMARK    3  A    between atoms: O_6  and  C_24
REMARK    4  A    between atoms: O_8  and  C_26
REMARK    5  A    between atoms: O_11  and  C_36
REMARK    6  A    between atoms: O_11  and  C_41
REMARK    7  A    between atoms: O_12  and  C_37
REMARK    8  A    between atoms: O_12  and  C_42
REMARK    9  A    between atoms: O_13  and  C_39
REMARK   10  A    between atoms: C_17  and  C_23
REMARK   11  A    between atoms: C_35  and  C_40
REMARK                            x       y       z     vdW  Elec       q    Type
REMARK                         _______ _______ _______ _____ _____    ______ ____
ROOT
ATOM      1  O   UNL     1      46.532  23.686  83.226  0.00  0.00    +0.000 OA
ATOM      2  O   UNL     1      48.056  25.347  83.645  0.00  0.00    +0.000 OA
ATOM      3  O   UNL     1      40.961  27.994  87.825  0.00  0.00    +0.000 OA
ATOM      4  O   UNL     1      42.948  29.219  88.432  0.00  0.00    +0.000 OA
ATOM      5  C   UNL     1      44.814  24.394  84.609  0.00  0.00    +0.000 C 
ATOM      6  C   UNL     1      45.748  25.567  84.376  0.00  0.00    +0.000 C 
ATOM      7  C   UNL     1      43.388  24.886  84.825  0.00  0.00    +0.000 C 
ATOM      8  C   UNL     1      45.930  26.380  85.657  0.00  0.00    +0.000 C 
ATOM      9  C   UNL     1      43.358  26.047  85.817  0.00  0.00    +0.000 A 
ATOM     10  C   UNL     1      44.539  26.776  86.180  0.00  0.00    +0.000 A 
ATOM     11  C   UNL     1      45.111  23.551  83.395  0.00  0.00    +0.000 C 
ATOM     12  C   UNL     1      46.932  24.887  83.757  0.00  0.00    +0.000 C 
ATOM     13  C   UNL     1      42.116  26.433  86.357  0.00  0.00    +0.000 A 
ATOM     14  C   UNL     1      44.447  27.865  87.070  0.00  0.00    +0.000 A 
ATOM     15  C   UNL     1      42.077  27.504  87.223  0.00  0.00    +0.000 A 
ATOM     16  C   UNL     1      43.207  28.201  87.568  0.00  0.00    +0.000 A 
ATOM     17  C   UNL     1      41.521  29.081  88.592  0.00  0.00    +0.000 C 
ENDROOT
BRANCH   8  18
ATOM     18  C   UNL     1      46.807  25.718  86.722  0.00  0.00    +0.000 A 
ATOM     19  C   UNL     1      46.422  24.553  87.411  0.00  0.00    +0.000 A 
ATOM     20  C   UNL     1      48.058  26.280  87.026  0.00  0.00    +0.000 A 
ATOM     21  C   UNL     1      48.901  25.685  87.965  0.00  0.00    +0.000 A 
ATOM     22  C   UNL     1      47.244  23.949  88.373  0.00  0.00    +0.000 A 
ATOM     23  C   UNL     1      48.485  24.526  88.642  0.00  0.00    +0.000 A 
BRANCH  21  24
ATOM     24  O   UNL     1      50.151  26.141  88.317  0.00  0.00    +0.000 OA
ATOM     25  C   UNL     1      50.195  27.377  89.024  0.00  0.00    +0.000 C 
ENDBRANCH  21  24
BRANCH  22  26
ATOM     26  O   UNL     1      46.685  22.827  88.922  0.00  0.00    +0.000 OA
ATOM     27  C   UNL     1      45.499  22.314  88.331  0.00  0.00    +0.000 C 
ENDBRANCH  22  26
BRANCH  23  28
ATOM     28  O   UNL     1      49.354  23.988  89.558  0.00  0.00    +0.000 OA
ATOM     29  H   UNL     1      48.789  23.488  90.178  0.00  0.00    +0.000 HD
ENDBRANCH  23  28
ENDBRANCH   8  18
BRANCH   7  30
ATOM     30  O   UNL     1      42.867  25.386  83.593  0.00  0.00    +0.000 OA
BRANCH  30  34
ATOM     31  O   UNL     1      41.101  24.024  84.295  0.00  0.00    +0.000 OA
ATOM     32  O   UNL     1      39.079  21.496  82.549  0.00  0.00    +0.000 OA
ATOM     33  O   UNL     1      38.139  21.881  84.683  0.00  0.00    +0.000 OA
ATOM     34  C   UNL     1      41.662  24.727  83.185  0.00  0.00    +0.000 C 
ATOM     35  C   UNL     1      42.040  23.779  82.024  0.00  0.00    +0.000 C 
ATOM     36  C   UNL     1      40.259  22.228  82.896  0.00  0.00    +0.000 C 
ATOM     37  C   UNL     1      40.863  22.869  81.645  0.00  0.00    +0.000 C 
ATOM     38  C   UNL     1      39.925  23.316  83.912  0.00  0.00    +0.000 C 
ATOM     39  C   UNL     1      39.269  22.640  85.111  0.00  0.00    +0.000 C 
ATOM     40  C   UNL     1      38.506  20.898  83.715  0.00  0.00    +0.000 C 
ATOM     41  C   UNL     1      37.248  20.161  83.292  0.00  0.00    +0.000 C 
BRANCH  35  42
ATOM     42  O   UNL     1      42.441  24.563  80.888  0.00  0.00    +0.000 OA
ATOM     43  H   UNL     1      43.318  24.224  80.623  0.00  0.00    +0.000 HD
ENDBRANCH  35  42
BRANCH  37  44
ATOM     44  O   UNL     1      41.308  21.822  80.768  0.00  0.00    +0.000 OA
ATOM     45  H   UNL     1      41.049  22.099  79.868  0.00  0.00    +0.000 HD
ENDBRANCH  37  44
ENDBRANCH  30  34
ENDBRANCH   7  30
TORSDOF 8
ENDMDL
MODEL 6
REMARK VINA RESULT:      -5.9     12.230     15.367
REMARK  Name = 
REMARK  11 active torsions:
REMARK  status: ('A' for Active; 'I' for Inactive)
REMARK    1  A    between atoms: O_1  and  C_16
REMARK    2  A    between atoms: O_1  and  C_22
REMARK    3  A    between atoms: O_6  and  C_24
REMARK    4  A    between atoms: O_8  and  C_26
REMARK    5  A    between atoms: O_11  and  C_36
REMARK    6  A    between atoms: O_11  and  C_41
REMARK    7  A    between atoms: O_12  and  C_37
REMARK    8  A    between atoms: O_12  and  C_42
REMARK    9  A    between atoms: O_13  and  C_39
REMARK   10  A    between atoms: C_17  and  C_23
REMARK   11  A    between atoms: C_35  and  C_40
REMARK                            x       y       z     vdW  Elec       q    Type
REMARK                         _______ _______ _______ _____ _____    ______ ____
ROOT
ATOM      1  O   UNL     1      48.330  39.571  83.105  0.00  0.00    +0.000 OA
ATOM      2  O   UNL     1      49.391  39.546  81.073  0.00  0.00    +0.000 OA
ATOM      3  O   UNL     1      41.659  36.058  79.376  0.00  0.00    +0.000 OA
ATOM      4  O   UNL     1      42.893  36.672  77.397  0.00  0.00    +0.000 OA
ATOM      5  C   UNL     1      46.224  38.875  82.439  0.00  0.00    +0.000 C 
ATOM      6  C   UNL     1      47.211  38.504  81.349  0.00  0.00    +0.000 C 
ATOM      7  C   UNL     1      45.073  37.877  82.474  0.00  0.00    +0.000 C 
ATOM      8  C   UNL     1      46.606  38.737  79.965  0.00  0.00    +0.000 C 
ATOM      9  C   UNL     1      44.538  37.616  81.066  0.00  0.00    +0.000 A 
ATOM     10  C   UNL     1      45.269  37.980  79.888  0.00  0.00    +0.000 A 
ATOM     11  C   UNL     1      47.140  38.961  83.633  0.00  0.00    +0.000 C 
ATOM     12  C   UNL     1      48.423  39.282  81.766  0.00  0.00    +0.000 C 
ATOM     13  C   UNL     1      43.300  36.957  80.934  0.00  0.00    +0.000 A 
ATOM     14  C   UNL     1      44.746  37.679  78.615  0.00  0.00    +0.000 A 
ATOM     15  C   UNL     1      42.830  36.683  79.667  0.00  0.00    +0.000 A 
ATOM     16  C   UNL     1      43.533  37.033  78.542  0.00  0.00    +0.000 A 
ATOM     17  C   UNL     1      41.704  36.056  77.934  0.00  0.00    +0.000 C 
ENDROOT
BRANCH   8  18
ATOM     18  C   UNL     1      46.490  40.206  79.551  0.00  0.00    +0.000 A 
ATOM     19  C   UNL     1      45.585  41.099  80.151  0.00  0.00    +0.000 A 
ATOM     20  C   UNL     1      47.328  40.700  78.536  0.00  0.00    +0.000 A 
ATOM     21  C   UNL     1      47.277  42.041  78.156  0.00  0.00    +0.000 A 
ATOM     22  C   UNL     1      45.501  42.446  79.771  0.00  0.00    +0.000 A 
ATOM     23  C   UNL     1      46.356  42.907  78.769  0.00  0.00    +0.000 A 
BRANCH  21  24
ATOM     24  O   UNL     1      48.067  42.628  77.194  0.00  0.00    +0.000 OA
ATOM     25  C   UNL     1      49.472  42.424  77.320  0.00  0.00    +0.000 C 
ENDBRANCH  21  24
BRANCH  22  26
ATOM     26  O   UNL     1      44.558  43.142  80.479  0.00  0.00    +0.000 OA
ATOM     27  C   UNL     1      44.175  42.641  81.751  0.00  0.00    +0.000 C 
ENDBRANCH  22  26
BRANCH  23  28
ATOM     28  O   UNL     1      46.348  44.214  78.350  0.00  0.00    +0.000 OA
ATOM     29  H   UNL     1      47.014  44.661  78.907  0.00  0.00    +0.000 HD
ENDBRANCH  23  28
ENDBRANCH   8  18
BRANCH   7  30
ATOM     30  O   UNL     1      45.544  36.625  82.971  0.00  0.00    +0.000 OA
BRANCH  30  34
ATOM     31  O   UNL     1      43.667  36.973  84.320  0.00  0.00    +0.000 OA
ATOM     32  O   UNL     1      43.102  36.561  87.931  0.00  0.00    +0.000 OA
ATOM     33  O   UNL     1      41.033  37.021  86.885  0.00  0.00    +0.000 OA
ATOM     34  C   UNL     1      44.849  36.190  84.147  0.00  0.00    +0.000 C 
ATOM     35  C   UNL     1      45.831  36.345  85.331  0.00  0.00    +0.000 C 
ATOM     36  C   UNL     1      43.822  36.901  86.741  0.00  0.00    +0.000 C 
ATOM     37  C   UNL     1      45.124  36.102  86.672  0.00  0.00    +0.000 C 
ATOM     38  C   UNL     1      42.975  36.598  85.508  0.00  0.00    +0.000 C 
ATOM     39  C   UNL     1      41.664  37.363  85.652  0.00  0.00    +0.000 C 
ATOM     40  C   UNL     1      41.880  37.301  88.000  0.00  0.00    +0.000 C 
ATOM     41  C   UNL     1      41.149  36.880  89.262  0.00  0.00    +0.000 C 
BRANCH  35  42
ATOM     42  O   UNL     1      46.913  35.412  85.170  0.00  0.00    +0.000 OA
ATOM     43  H   UNL     1      46.521  34.524  85.272  0.00  0.00    +0.000 HD
ENDBRANCH  35  42
BRANCH  37  44
ATOM     44  O   UNL     1      45.968  36.514  87.759  0.00  0.00    +0.000 OA
ATOM     45  H   UNL     1      46.162  37.458  87.605  0.00  0.00    +0.000 HD
ENDBRANCH  37  44
ENDBRANCH  30  34
ENDBRANCH   7  30
TORSDOF 8
ENDMDL
MODEL 7
REMARK VINA RESULT:      -5.9     12.282     15.490
REMARK  Name = 
REMARK  11 active torsions:
REMARK  status: ('A' for Active; 'I' for Inactive)
REMARK    1  A    between atoms: O_1  and  C_16
REMARK    2  A    between atoms: O_1  and  C_22
REMARK    3  A    between atoms: O_6  and  C_24
REMARK    4  A    between atoms: O_8  and  C_26
REMARK    5  A    between atoms: O_11  and  C_36
REMARK    6  A    between atoms: O_11  and  C_41
REMARK    7  A    between atoms: O_12  and  C_37
REMARK    8  A    between atoms: O_12  and  C_42
REMARK    9  A    between atoms: O_13  and  C_39
REMARK   10  A    between atoms: C_17  and  C_23
REMARK   11  A    between atoms: C_35  and  C_40
REMARK                            x       y       z     vdW  Elec       q    Type
REMARK                         _______ _______ _______ _____ _____    ______ ____
ROOT
ATOM      1  O   UNL     1      48.295  39.549  83.107  0.00  0.00    +0.000 OA
ATOM      2  O   UNL     1      49.343  39.516  81.069  0.00  0.00    +0.000 OA
ATOM      3  O   UNL     1      41.597  36.030  79.431  0.00  0.00    +0.000 OA
ATOM      4  O   UNL     1      42.820  36.636  77.442  0.00  0.00    +0.000 OA
ATOM      5  C   UNL     1      46.183  38.852  82.456  0.00  0.00    +0.000 C 
ATOM      6  C   UNL     1      47.164  38.477  81.362  0.00  0.00    +0.000 C 
ATOM      7  C   UNL     1      45.032  37.856  82.501  0.00  0.00    +0.000 C 
ATOM      8  C   UNL     1      46.551  38.706  79.981  0.00  0.00    +0.000 C 
ATOM      9  C   UNL     1      44.488  37.590  81.098  0.00  0.00    +0.000 A 
ATOM     10  C   UNL     1      45.213  37.950  79.915  0.00  0.00    +0.000 A 
ATOM     11  C   UNL     1      47.107  38.942  83.644  0.00  0.00    +0.000 C 
ATOM     12  C   UNL     1      48.379  39.256  81.769  0.00  0.00    +0.000 C 
ATOM     13  C   UNL     1      43.249  36.932  80.976  0.00  0.00    +0.000 A 
ATOM     14  C   UNL     1      44.682  37.645  78.645  0.00  0.00    +0.000 A 
ATOM     15  C   UNL     1      42.771  36.655  79.713  0.00  0.00    +0.000 A 
ATOM     16  C   UNL     1      43.467  37.000  78.581  0.00  0.00    +0.000 A 
ATOM     17  C   UNL     1      41.634  36.023  77.988  0.00  0.00    +0.000 C 
ENDROOT
BRANCH   8  18
ATOM     18  C   UNL     1      46.434  40.174  79.562  0.00  0.00    +0.000 A 
ATOM     19  C   UNL     1      47.304  40.775  78.636  0.00  0.00    +0.000 A 
ATOM     20  C   UNL     1      45.408  40.962  80.110  0.00  0.00    +0.000 A 
ATOM     21  C   UNL     1      45.246  42.294  79.725  0.00  0.00    +0.000 A 
ATOM     22  C   UNL     1      47.175  42.117  78.250  0.00  0.00    +0.000 A 
ATOM     23  C   UNL     1      46.137  42.868  78.803  0.00  0.00    +0.000 A 
BRANCH  21  24
ATOM     24  O   UNL     1      44.265  43.142  80.183  0.00  0.00    +0.000 OA
ATOM     25  C   UNL     1      43.986  43.090  81.580  0.00  0.00    +0.000 C 
ENDBRANCH  21  24
BRANCH  22  26
ATOM     26  O   UNL     1      48.120  42.503  77.339  0.00  0.00    +0.000 OA
ATOM     27  C   UNL     1      49.466  42.109  77.566  0.00  0.00    +0.000 C 
ENDBRANCH  22  26
BRANCH  23  28
ATOM     28  O   UNL     1      45.933  44.183  78.468  0.00  0.00    +0.000 OA
ATOM     29  H   UNL     1      44.970  44.259  78.321  0.00  0.00    +0.000 HD
ENDBRANCH  23  28
ENDBRANCH   8  18
BRANCH   7  30
ATOM     30  O   UNL     1      45.505  36.604  83.000  0.00  0.00    +0.000 OA
BRANCH  30  34
ATOM     31  O   UNL     1      43.640  36.965  84.363  0.00  0.00    +0.000 OA
ATOM     32  O   UNL     1      43.099  36.552  87.978  0.00  0.00    +0.000 OA
ATOM     33  O   UNL     1      41.026  37.029  86.948  0.00  0.00    +0.000 OA
ATOM     34  C   UNL     1      44.816  36.173  84.180  0.00  0.00    +0.000 C 
ATOM     35  C   UNL     1      45.807  36.319  85.357  0.00  0.00    +0.000 C 
ATOM     36  C   UNL     1      43.813  36.888  86.783  0.00  0.00    +0.000 C 
ATOM     37  C   UNL     1      45.108  36.080  86.703  0.00  0.00    +0.000 C 
ATOM     38  C   UNL     1      42.954  36.594  85.556  0.00  0.00    +0.000 C 
ATOM     39  C   UNL     1      41.650  37.369  85.711  0.00  0.00    +0.000 C 
ATOM     40  C   UNL     1      41.883  37.301  88.057  0.00  0.00    +0.000 C 
ATOM     41  C   UNL     1      41.159  36.884  89.324  0.00  0.00    +0.000 C 
BRANCH  35  42
ATOM     42  O   UNL     1      46.881  35.379  85.187  0.00  0.00    +0.000 OA
ATOM     43  H   UNL     1      47.706  35.886  85.314  0.00  0.00    +0.000 HD
ENDBRANCH  35  42
BRANCH  37  44
ATOM     44  O   UNL     1      45.963  36.483  87.785  0.00  0.00    +0.000 OA
ATOM     45  H   UNL     1      46.875  36.305  87.486  0.00  0.00    +0.000 HD
ENDBRANCH  37  44
ENDBRANCH  30  34
ENDBRANCH   7  30
TORSDOF 8
ENDMDL
MODEL 8
REMARK VINA RESULT:      -5.8     14.967     18.419
REMARK  Name = 
REMARK  11 active torsions:
REMARK  status: ('A' for Active; 'I' for Inactive)
REMARK    1  A    between atoms: O_1  and  C_16
REMARK    2  A    between atoms: O_1  and  C_22
REMARK    3  A    between atoms: O_6  and  C_24
REMARK    4  A    between atoms: O_8  and  C_26
REMARK    5  A    between atoms: O_11  and  C_36
REMARK    6  A    between atoms: O_11  and  C_41
REMARK    7  A    between atoms: O_12  and  C_37
REMARK    8  A    between atoms: O_12  and  C_42
REMARK    9  A    between atoms: O_13  and  C_39
REMARK   10  A    between atoms: C_17  and  C_23
REMARK   11  A    between atoms: C_35  and  C_40
REMARK                            x       y       z     vdW  Elec       q    Type
REMARK                         _______ _______ _______ _____ _____    ______ ____
ROOT
ATOM      1  O   UNL     1      39.440  38.044  77.201  0.00  0.00    +0.000 OA
ATOM      2  O   UNL     1      41.233  39.287  76.495  0.00  0.00    +0.000 OA
ATOM      3  O   UNL     1      44.092  35.522  83.740  0.00  0.00    +0.000 OA
ATOM      4  O   UNL     1      45.845  36.520  82.418  0.00  0.00    +0.000 OA
ATOM      5  C   UNL     1      40.437  36.910  78.958  0.00  0.00    +0.000 C 
ATOM      6  C   UNL     1      41.296  38.115  78.625  0.00  0.00    +0.000 C 
ATOM      7  C   UNL     1      40.547  36.573  80.439  0.00  0.00    +0.000 C 
ATOM      8  C   UNL     1      42.780  37.766  78.715  0.00  0.00    +0.000 C 
ATOM      9  C   UNL     1      42.008  36.571  80.888  0.00  0.00    +0.000 A 
ATOM     10  C   UNL     1      43.052  37.163  80.104  0.00  0.00    +0.000 A 
ATOM     11  C   UNL     1      39.102  37.357  78.417  0.00  0.00    +0.000 C 
ATOM     12  C   UNL     1      40.715  38.541  77.310  0.00  0.00    +0.000 C 
ATOM     13  C   UNL     1      42.322  36.000  82.137  0.00  0.00    +0.000 A 
ATOM     14  C   UNL     1      44.377  37.168  80.585  0.00  0.00    +0.000 A 
ATOM     15  C   UNL     1      43.632  36.030  82.565  0.00  0.00    +0.000 A 
ATOM     16  C   UNL     1      44.629  36.597  81.813  0.00  0.00    +0.000 A 
ATOM     17  C   UNL     1      45.497  35.835  83.639  0.00  0.00    +0.000 C 
ENDROOT
BRANCH   8  18
ATOM     18  C   UNL     1      43.310  36.899  77.570  0.00  0.00    +0.000 A 
ATOM     19  C   UNL     1      42.850  35.593  77.325  0.00  0.00    +0.000 A 
ATOM     20  C   UNL     1      44.290  37.424  76.710  0.00  0.00    +0.000 A 
ATOM     21  C   UNL     1      44.772  36.679  75.633  0.00  0.00    +0.000 A 
ATOM     22  C   UNL     1      43.333  34.817  76.262  0.00  0.00    +0.000 A 
ATOM     23  C   UNL     1      44.297  35.374  75.420  0.00  0.00    +0.000 A 
BRANCH  21  24
ATOM     24  O   UNL     1      45.710  37.107  74.723  0.00  0.00    +0.000 OA
ATOM     25  C   UNL     1      45.377  38.272  73.973  0.00  0.00    +0.000 C 
ENDBRANCH  21  24
BRANCH  22  26
ATOM     26  O   UNL     1      42.754  33.579  76.199  0.00  0.00    +0.000 OA
ATOM     27  C   UNL     1      41.724  33.372  75.243  0.00  0.00    +0.000 C 
ENDBRANCH  22  26
BRANCH  23  28
ATOM     28  O   UNL     1      44.811  34.687  74.348  0.00  0.00    +0.000 OA
ATOM     29  H   UNL     1      44.101  34.698  73.677  0.00  0.00    +0.000 HD
ENDBRANCH  23  28
ENDBRANCH   8  18
BRANCH   7  30
ATOM     30  O   UNL     1      39.885  37.579  81.207  0.00  0.00    +0.000 OA
BRANCH  30  34
ATOM     31  O   UNL     1      37.658  36.906  81.434  0.00  0.00    +0.000 OA
ATOM     32  O   UNL     1      35.336  36.954  84.287  0.00  0.00    +0.000 OA
ATOM     33  O   UNL     1      34.330  35.768  82.507  0.00  0.00    +0.000 OA
ATOM     34  C   UNL     1      38.909  37.045  82.110  0.00  0.00    +0.000 C 
ATOM     35  C   UNL     1      38.822  38.022  83.305  0.00  0.00    +0.000 C 
ATOM     36  C   UNL     1      36.379  37.431  83.429  0.00  0.00    +0.000 C 
ATOM     37  C   UNL     1      37.657  37.655  84.236  0.00  0.00    +0.000 C 
ATOM     38  C   UNL     1      36.651  36.421  82.318  0.00  0.00    +0.000 C 
ATOM     39  C   UNL     1      35.336  36.181  81.583  0.00  0.00    +0.000 C 
ATOM     40  C   UNL     1      34.137  36.738  83.537  0.00  0.00    +0.000 C 
ATOM     41  C   UNL     1      33.080  36.208  84.489  0.00  0.00    +0.000 C 
BRANCH  35  42
ATOM     42  O   UNL     1      40.062  37.988  84.032  0.00  0.00    +0.000 OA
ATOM     43  H   UNL     1      40.726  37.623  83.415  0.00  0.00    +0.000 HD
ENDBRANCH  35  42
BRANCH  37  44
ATOM     44  O   UNL     1      37.422  38.716  85.176  0.00  0.00    +0.000 OA
ATOM     45  H   UNL     1      36.875  39.374  84.706  0.00  0.00    +0.000 HD
ENDBRANCH  37  44
ENDBRANCH  30  34
ENDBRANCH   7  30
TORSDOF 8
ENDMDL
MODEL 9
REMARK VINA RESULT:      -5.8     40.368     44.963
REMARK  Name = 
REMARK  11 active torsions:
REMARK  status: ('A' for Active; 'I' for Inactive)
REMARK    1  A    between atoms: O_1  and  C_16
REMARK    2  A    between atoms: O_1  and  C_22
REMARK    3  A    between atoms: O_6  and  C_24
REMARK    4  A    between atoms: O_8  and  C_26
REMARK    5  A    between atoms: O_11  and  C_36
REMARK    6  A    between atoms: O_11  and  C_41
REMARK    7  A    between atoms: O_12  and  C_37
REMARK    8  A    between atoms: O_12  and  C_42
REMARK    9  A    between atoms: O_13  and  C_39
REMARK   10  A    between atoms: C_17  and  C_23
REMARK   11  A    between atoms: C_35  and  C_40
REMARK                            x       y       z     vdW  Elec       q    Type
REMARK                         _______ _______ _______ _____ _____    ______ ____
ROOT
ATOM      1  O   UNL     1      18.776  17.825  91.484  0.00  0.00    +0.000 OA
ATOM      2  O   UNL     1      20.571  17.551  92.884  0.00  0.00    +0.000 OA
ATOM      3  O   UNL     1      24.192  18.413  85.075  0.00  0.00    +0.000 OA
ATOM      4  O   UNL     1      25.766  18.606  86.892  0.00  0.00    +0.000 OA
ATOM      5  C   UNL     1      19.902  18.306  89.517  0.00  0.00    +0.000 C 
ATOM      6  C   UNL     1      20.879  17.649  90.474  0.00  0.00    +0.000 C 
ATOM      7  C   UNL     1      20.272  17.982  88.076  0.00  0.00    +0.000 C 
ATOM      8  C   UNL     1      22.253  18.313  90.388  0.00  0.00    +0.000 C 
ATOM      9  C   UNL     1      21.767  18.185  87.839  0.00  0.00    +0.000 A 
ATOM     10  C   UNL     1      22.705  18.301  88.918  0.00  0.00    +0.000 A 
ATOM     11  C   UNL     1      18.591  17.796  90.059  0.00  0.00    +0.000 C 
ATOM     12  C   UNL     1      20.114  17.697  91.762  0.00  0.00    +0.000 C 
ATOM     13  C   UNL     1      22.235  18.218  86.512  0.00  0.00    +0.000 A 
ATOM     14  C   UNL     1      24.080  18.447  88.642  0.00  0.00    +0.000 A 
ATOM     15  C   UNL     1      23.589  18.362  86.292  0.00  0.00    +0.000 A 
ATOM     16  C   UNL     1      24.484  18.472  87.326  0.00  0.00    +0.000 A 
ATOM     17  C   UNL     1      25.573  18.569  85.463  0.00  0.00    +0.000 C 
ENDROOT
BRANCH   8  18
ATOM     18  C   UNL     1      22.341  19.698  91.033  0.00  0.00    +0.000 A 
ATOM     19  C   UNL     1      21.894  20.868  90.393  0.00  0.00    +0.000 A 
ATOM     20  C   UNL     1      22.879  19.819  92.325  0.00  0.00    +0.000 A 
ATOM     21  C   UNL     1      22.943  21.060  92.961  0.00  0.00    +0.000 A 
ATOM     22  C   UNL     1      21.967  22.128  91.003  0.00  0.00    +0.000 A 
ATOM     23  C   UNL     1      22.495  22.211  92.292  0.00  0.00    +0.000 A 
BRANCH  21  24
ATOM     24  O   UNL     1      23.429  21.282  94.229  0.00  0.00    +0.000 OA
ATOM     25  C   UNL     1      23.705  20.123  95.011  0.00  0.00    +0.000 C 
ENDBRANCH  21  24
BRANCH  22  26
ATOM     26  O   UNL     1      21.478  23.132  90.213  0.00  0.00    +0.000 OA
ATOM     27  C   UNL     1      22.049  23.305  88.924  0.00  0.00    +0.000 C 
ENDBRANCH  22  26
BRANCH  23  28
ATOM     28  O   UNL     1      22.588  23.404  92.965  0.00  0.00    +0.000 OA
ATOM     29  H   UNL     1      21.726  23.510  93.411  0.00  0.00    +0.000 HD
ENDBRANCH  23  28
ENDBRANCH   8  18
BRANCH   7  30
ATOM     30  O   UNL     1      19.999  16.605  87.813  0.00  0.00    +0.000 OA
BRANCH  30  34
ATOM     31  O   UNL     1      18.888  17.649  86.040  0.00  0.00    +0.000 OA
ATOM     32  O   UNL     1      15.625  17.035  84.458  0.00  0.00    +0.000 OA
ATOM     33  O   UNL     1      16.801  18.638  83.180  0.00  0.00    +0.000 OA
ATOM     34  C   UNL     1      19.088  16.411  86.724  0.00  0.00    +0.000 C 
ATOM     35  C   UNL     1      17.776  15.861  87.330  0.00  0.00    +0.000 C 
ATOM     36  C   UNL     1      16.572  17.139  85.527  0.00  0.00    +0.000 C 
ATOM     37  C   UNL     1      16.658  15.810  86.279  0.00  0.00    +0.000 C 
ATOM     38  C   UNL     1      17.949  17.502  84.979  0.00  0.00    +0.000 C 
ATOM     39  C   UNL     1      17.801  18.796  84.185  0.00  0.00    +0.000 C 
ATOM     40  C   UNL     1      15.543  18.274  83.747  0.00  0.00    +0.000 C 
ATOM     41  C   UNL     1      14.550  18.095  82.613  0.00  0.00    +0.000 C 
BRANCH  35  42
ATOM     42  O   UNL     1      18.016  14.545  87.857  0.00  0.00    +0.000 OA
ATOM     43  H   UNL     1      18.582  14.092  87.202  0.00  0.00    +0.000 HD
ENDBRANCH  35  42
BRANCH  37  44
ATOM     44  O   UNL     1      15.393  15.563  86.912  0.00  0.00    +0.000 OA
ATOM     45  H   UNL     1      14.862  16.370  86.774  0.00  0.00    +0.000 HD
ENDBRANCH  37  44
ENDBRANCH  30  34
ENDBRANCH   7  30
TORSDOF 8
ENDMDL
