MODEL 1
REMARK VINA RESULT:      -6.7      0.000      0.000
REMARK  Name = Foretinib.pdbqt.pdb
REMARK  11 active torsions:
REMARK  status: ('A' for Active; 'I' for Inactive)
REMARK    1  A    between atoms: C_2  and  N_31
REMARK    2  A    between atoms: C_7  and  O_8
REMARK    3  A    between atoms: O_8  and  C_9
REMARK    4  A    between atoms: C_17  and  O_19
REMARK    5  A    between atoms: C_18  and  O_29
REMARK    6  A    between atoms: O_19  and  C_20
REMARK    7  A    between atoms: C_21  and  C_22
REMARK    8  A    between atoms: C_22  and  N_23
REMARK    9  A    between atoms: C_32  and  C_35
REMARK   10  A    between atoms: C_35  and  C_38
REMARK   11  A    between atoms: N_40  and  C_42
REMARK                            x       y       z     vdW  Elec       q    Type
REMARK                         _______ _______ _______ _____ _____    ______ ____
ROOT
ATOM      1  F   UNL     1      10.646   7.536 100.150  0.00  0.00    +0.000 F 
ATOM      2  C   UNL     1      10.265  11.050 100.973  0.00  0.00    +0.000 A 
ATOM      3  C   UNL     1       9.955   9.744 100.592  0.00  0.00    +0.000 A 
ATOM      4  C   UNL     1      11.582  11.376 101.305  0.00  0.00    +0.000 A 
ATOM      5  C   UNL     1      10.956   8.778 100.551  0.00  0.00    +0.000 A 
ATOM      6  C   UNL     1      12.584  10.409 101.261  0.00  0.00    +0.000 A 
ATOM      7  C   UNL     1      12.266   9.100 100.907  0.00  0.00    +0.000 A 
ENDROOT
BRANCH   2   8
ATOM      8  N   UNL     1       9.303  12.075 101.035  0.00  0.00    +0.000 N 
ATOM      9  C   UNL     1       8.337  12.212 102.019  0.00  0.00    +0.000 C 
ATOM     10  O   UNL     1       8.154  11.455 102.964  0.00  0.00    +0.000 OA
ATOM     11  H   UNL     1       9.298  12.743 100.270  0.00  0.00    +0.000 HD
BRANCH   9  12
ATOM     12  C   UNL     1       7.419  13.384 101.831  0.00  0.00    +0.000 C 
ATOM     13  C   UNL     1       7.451  14.439 102.838  0.00  0.00    +0.000 C 
ATOM     14  C   UNL     1       6.294  13.511 102.751  0.00  0.00    +0.000 C 
BRANCH  12  15
ATOM     15  C   UNL     1       7.219  13.803 100.405  0.00  0.00    +0.000 C 
ATOM     16  O   UNL     1       8.109  14.433  99.844  0.00  0.00    +0.000 OA
ATOM     17  N   UNL     1       6.031  13.376  99.836  0.00  0.00    +0.000 N 
ATOM     18  H   UNL     1       5.408  12.811 100.405  0.00  0.00    +0.000 HD
BRANCH  17  19
ATOM     19  C   UNL     1       5.623  13.629  98.514  0.00  0.00    +0.000 A 
ATOM     20  C   UNL     1       4.911  14.805  98.268  0.00  0.00    +0.000 A 
ATOM     21  C   UNL     1       4.479  15.112  96.980  0.00  0.00    +0.000 A 
ATOM     22  C   UNL     1       4.765  14.234  95.940  0.00  0.00    +0.000 A 
ATOM     23  F   UNL     1       4.353  14.528  94.699  0.00  0.00    +0.000 F 
ATOM     24  C   UNL     1       5.474  13.061  96.165  0.00  0.00    +0.000 A 
ATOM     25  C   UNL     1       5.902  12.761  97.456  0.00  0.00    +0.000 A 
ENDBRANCH  17  19
ENDBRANCH  12  15
ENDBRANCH   9  12
ENDBRANCH   2   8
BRANCH   7  26
ATOM     26  O   UNL     1      13.303   8.205 100.819  0.00  0.00    +0.000 OA
BRANCH  26  27
ATOM     27  C   UNL     1      13.685   7.804  99.554  0.00  0.00    +0.000 A 
ATOM     28  C   UNL     1      13.659   6.432  99.259  0.00  0.00    +0.000 A 
ATOM     29  C   UNL     1      13.995   6.036  97.952  0.00  0.00    +0.000 A 
ATOM     30  C   UNL     1      13.321   5.462 100.215  0.00  0.00    +0.000 A 
ATOM     31  N   UNL     1      14.321   6.919  96.996  0.00  0.00    +0.000 NA
ATOM     32  C   UNL     1      13.978   4.681  97.658  0.00  0.00    +0.000 A 
ATOM     33  C   UNL     1      14.322   8.232  97.316  0.00  0.00    +0.000 A 
ATOM     34  C   UNL     1      14.005   8.727  98.565  0.00  0.00    +0.000 A 
ATOM     35  C   UNL     1      13.639   3.708  98.607  0.00  0.00    +0.000 A 
ATOM     36  C   UNL     1      13.307   4.102  99.904  0.00  0.00    +0.000 A 
BRANCH  36  37
ATOM     37  O   UNL     1      12.990   3.108 100.800  0.00  0.00    +0.000 OA
ATOM     38  C   UNL     1      13.897   2.930 101.854  0.00  0.00    +0.000 C 
ENDBRANCH  36  37
BRANCH  35  39
ATOM     39  O   UNL     1      13.622   2.360  98.332  0.00  0.00    +0.000 OA
BRANCH  39  40
ATOM     40  C   UNL     1      13.357   2.048  97.066  0.00  0.00    +0.000 C 
ATOM     41  C   UNL     1      13.047   1.671  95.613  0.00  0.00    +0.000 C 
BRANCH  41  42
ATOM     42  C   UNL     1      12.731   1.292  94.162  0.00  0.00    +0.000 C 
BRANCH  42  43
ATOM     43  N   UNL     1      12.432   0.932  92.783  0.00  0.00    +0.000 N 
ATOM     44  C   UNL     1      12.713  -0.530  92.649  0.00  0.00    +0.000 C 
ATOM     45  C   UNL     1      11.704  -1.709  92.456  0.00  0.00    +0.000 C 
ATOM     46  O   UNL     1      10.360  -1.802  92.360  0.00  0.00    +0.000 OA
ATOM     47  C   UNL     1      10.105  -0.484  92.487  0.00  0.00    +0.000 C 
ATOM     48  C   UNL     1      10.946   0.814  92.681  0.00  0.00    +0.000 C 
ENDBRANCH  42  43
ENDBRANCH  41  42
ENDBRANCH  39  40
ENDBRANCH  35  39
ENDBRANCH  26  27
ENDBRANCH   7  26
TORSDOF 11
ENDMDL
MODEL 2
REMARK VINA RESULT:      -6.4     57.212     61.078
REMARK  Name = Foretinib.pdbqt.pdb
REMARK  11 active torsions:
REMARK  status: ('A' for Active; 'I' for Inactive)
REMARK    1  A    between atoms: C_2  and  N_31
REMARK    2  A    between atoms: C_7  and  O_8
REMARK    3  A    between atoms: O_8  and  C_9
REMARK    4  A    between atoms: C_17  and  O_19
REMARK    5  A    between atoms: C_18  and  O_29
REMARK    6  A    between atoms: O_19  and  C_20
REMARK    7  A    between atoms: C_21  and  C_22
REMARK    8  A    between atoms: C_22  and  N_23
REMARK    9  A    between atoms: C_32  and  C_35
REMARK   10  A    between atoms: C_35  and  C_38
REMARK   11  A    between atoms: N_40  and  C_42
REMARK                            x       y       z     vdW  Elec       q    Type
REMARK                         _______ _______ _______ _____ _____    ______ ____
ROOT
ATOM      1  F   UNL     1      58.732  29.817  62.996  0.00  0.00    +0.000 F 
ATOM      2  C   UNL     1      56.058  27.722  64.270  0.00  0.00    +0.000 A 
ATOM      3  C   UNL     1      56.882  28.411  63.381  0.00  0.00    +0.000 A 
ATOM      4  C   UNL     1      56.331  27.766  65.639  0.00  0.00    +0.000 A 
ATOM      5  C   UNL     1      57.970  29.132  63.862  0.00  0.00    +0.000 A 
ATOM      6  C   UNL     1      57.421  28.490  66.120  0.00  0.00    +0.000 A 
ATOM      7  C   UNL     1      58.257  29.155  65.227  0.00  0.00    +0.000 A 
ENDROOT
BRANCH   2   8
ATOM      8  N   UNL     1      54.941  26.975  63.852  0.00  0.00    +0.000 N 
ATOM      9  C   UNL     1      54.987  25.728  63.250  0.00  0.00    +0.000 C 
ATOM     10  O   UNL     1      55.999  25.099  62.966  0.00  0.00    +0.000 OA
ATOM     11  H   UNL     1      54.031  27.410  63.969  0.00  0.00    +0.000 HD
BRANCH   9  12
ATOM     12  C   UNL     1      53.647  25.164  62.882  0.00  0.00    +0.000 C 
ATOM     13  C   UNL     1      52.991  25.692  61.690  0.00  0.00    +0.000 C 
ATOM     14  C   UNL     1      52.485  26.030  63.046  0.00  0.00    +0.000 C 
BRANCH  12  15
ATOM     15  C   UNL     1      53.484  23.700  63.162  0.00  0.00    +0.000 C 
ATOM     16  O   UNL     1      52.771  23.032  62.421  0.00  0.00    +0.000 OA
ATOM     17  N   UNL     1      54.220  23.228  64.235  0.00  0.00    +0.000 N 
ATOM     18  H   UNL     1      54.815  23.887  64.729  0.00  0.00    +0.000 HD
BRANCH  17  19
ATOM     19  C   UNL     1      54.246  21.896  64.686  0.00  0.00    +0.000 A 
ATOM     20  C   UNL     1      53.301  21.515  65.641  0.00  0.00    +0.000 A 
ATOM     21  C   UNL     1      53.275  20.210  66.126  0.00  0.00    +0.000 A 
ATOM     22  C   UNL     1      54.200  19.288  65.649  0.00  0.00    +0.000 A 
ATOM     23  F   UNL     1      54.176  18.032  66.112  0.00  0.00    +0.000 F 
ATOM     24  C   UNL     1      55.146  19.649  64.696  0.00  0.00    +0.000 A 
ATOM     25  C   UNL     1      55.165  20.956  64.217  0.00  0.00    +0.000 A 
ENDBRANCH  17  19
ENDBRANCH  12  15
ENDBRANCH   9  12
ENDBRANCH   2   8
BRANCH   7  26
ATOM     26  O   UNL     1      59.276  29.904  65.762  0.00  0.00    +0.000 OA
BRANCH  26  27
ATOM     27  C   UNL     1      58.934  31.106  66.351  0.00  0.00    +0.000 A 
ATOM     28  C   UNL     1      59.282  31.306  67.696  0.00  0.00    +0.000 A 
ATOM     29  C   UNL     1      58.982  32.552  68.272  0.00  0.00    +0.000 A 
ATOM     30  C   UNL     1      59.903  30.313  68.470  0.00  0.00    +0.000 A 
ATOM     31  N   UNL     1      58.394  33.541  67.580  0.00  0.00    +0.000 NA
ATOM     32  C   UNL     1      59.317  32.753  69.603  0.00  0.00    +0.000 A 
ATOM     33  C   UNL     1      58.087  33.313  66.283  0.00  0.00    +0.000 A 
ATOM     34  C   UNL     1      58.341  32.130  65.621  0.00  0.00    +0.000 A 
ATOM     35  C   UNL     1      59.938  31.767  70.380  0.00  0.00    +0.000 A 
ATOM     36  C   UNL     1      60.235  30.529  69.808  0.00  0.00    +0.000 A 
BRANCH  36  37
ATOM     37  O   UNL     1      60.838  29.592  70.614  0.00  0.00    +0.000 OA
ATOM     38  C   UNL     1      62.155  29.256  70.273  0.00  0.00    +0.000 C 
ENDBRANCH  36  37
BRANCH  35  39
ATOM     39  O   UNL     1      60.272  31.948  71.702  0.00  0.00    +0.000 OA
BRANCH  39  40
ATOM     40  C   UNL     1      59.954  33.138  72.205  0.00  0.00    +0.000 C 
ATOM     41  C   UNL     1      59.572  34.508  72.777  0.00  0.00    +0.000 C 
BRANCH  41  42
ATOM     42  C   UNL     1      59.184  35.874  73.352  0.00  0.00    +0.000 C 
BRANCH  42  43
ATOM     43  N   UNL     1      58.816  37.173  73.897  0.00  0.00    +0.000 N 
ATOM     44  C   UNL     1      57.990  37.859  72.856  0.00  0.00    +0.000 C 
ATOM     45  C   UNL     1      56.461  38.182  72.872  0.00  0.00    +0.000 C 
ATOM     46  O   UNL     1      55.454  37.967  73.747  0.00  0.00    +0.000 OA
ATOM     47  C   UNL     1      56.196  37.343  74.685  0.00  0.00    +0.000 C 
ATOM     48  C   UNL     1      57.692  36.937  74.852  0.00  0.00    +0.000 C 
ENDBRANCH  42  43
ENDBRANCH  41  42
ENDBRANCH  39  40
ENDBRANCH  35  39
ENDBRANCH  26  27
ENDBRANCH   7  26
TORSDOF 11
ENDMDL
MODEL 3
REMARK VINA RESULT:      -6.1      2.407      3.313
REMARK  Name = Foretinib.pdbqt.pdb
REMARK  11 active torsions:
REMARK  status: ('A' for Active; 'I' for Inactive)
REMARK    1  A    between atoms: C_2  and  N_31
REMARK    2  A    between atoms: C_7  and  O_8
REMARK    3  A    between atoms: O_8  and  C_9
REMARK    4  A    between atoms: C_17  and  O_19
REMARK    5  A    between atoms: C_18  and  O_29
REMARK    6  A    between atoms: O_19  and  C_20
REMARK    7  A    between atoms: C_21  and  C_22
REMARK    8  A    between atoms: C_22  and  N_23
REMARK    9  A    between atoms: C_32  and  C_35
REMARK   10  A    between atoms: C_35  and  C_38
REMARK   11  A    between atoms: N_40  and  C_42
REMARK                            x       y       z     vdW  Elec       q    Type
REMARK                         _______ _______ _______ _____ _____    ______ ____
ROOT
ATOM      1  F   UNL     1      11.987   9.798 104.282  0.00  0.00    +0.000 F 
ATOM      2  C   UNL     1       9.919  11.336 101.728  0.00  0.00    +0.000 A 
ATOM      3  C   UNL     1      10.508  11.072 102.965  0.00  0.00    +0.000 A 
ATOM      4  C   UNL     1      10.285  10.577 100.614  0.00  0.00    +0.000 A 
ATOM      5  C   UNL     1      11.456  10.060 103.078  0.00  0.00    +0.000 A 
ATOM      6  C   UNL     1      11.234   9.563 100.729  0.00  0.00    +0.000 A 
ATOM      7  C   UNL     1      11.840   9.320 101.960  0.00  0.00    +0.000 A 
ENDROOT
BRANCH   2   8
ATOM      8  N   UNL     1       8.952  12.342 101.543  0.00  0.00    +0.000 N 
ATOM      9  C   UNL     1       9.188  13.591 100.992  0.00  0.00    +0.000 C 
ATOM     10  O   UNL     1      10.269  14.021 100.607  0.00  0.00    +0.000 OA
ATOM     11  H   UNL     1       8.015  12.143 101.881  0.00  0.00    +0.000 HD
BRANCH   9  12
ATOM     12  C   UNL     1       7.983  14.483 100.933  0.00  0.00    +0.000 C 
ATOM     13  C   UNL     1       8.172  15.901 101.222  0.00  0.00    +0.000 C 
ATOM     14  C   UNL     1       7.478  15.016 102.193  0.00  0.00    +0.000 C 
BRANCH  12  15
ATOM     15  C   UNL     1       6.990  14.127  99.867  0.00  0.00    +0.000 C 
ATOM     16  O   UNL     1       6.364  13.079  99.970  0.00  0.00    +0.000 OA
ATOM     17  N   UNL     1       6.843  15.076  98.869  0.00  0.00    +0.000 N 
ATOM     18  H   UNL     1       7.390  15.929  98.940  0.00  0.00    +0.000 HD
BRANCH  17  19
ATOM     19  C   UNL     1       5.968  14.979  97.773  0.00  0.00    +0.000 A 
ATOM     20  C   UNL     1       6.516  14.647  96.532  0.00  0.00    +0.000 A 
ATOM     21  C   UNL     1       5.701  14.535  95.407  0.00  0.00    +0.000 A 
ATOM     22  C   UNL     1       4.334  14.757  95.534  0.00  0.00    +0.000 A 
ATOM     23  F   UNL     1       3.547  14.648  94.455  0.00  0.00    +0.000 F 
ATOM     24  C   UNL     1       3.771  15.085  96.761  0.00  0.00    +0.000 A 
ATOM     25  C   UNL     1       4.593  15.196  97.880  0.00  0.00    +0.000 A 
ENDBRANCH  17  19
ENDBRANCH  12  15
ENDBRANCH   9  12
ENDBRANCH   2   8
BRANCH   7  26
ATOM     26  O   UNL     1      12.719   8.268 102.028  0.00  0.00    +0.000 OA
BRANCH  26  27
ATOM     27  C   UNL     1      12.222   7.010 101.748  0.00  0.00    +0.000 A 
ATOM     28  C   UNL     1      12.607   6.401 100.543  0.00  0.00    +0.000 A 
ATOM     29  C   UNL     1      12.143   5.098 100.290  0.00  0.00    +0.000 A 
ATOM     30  C   UNL     1      13.420   7.046  99.598  0.00  0.00    +0.000 A 
ATOM     31  N   UNL     1      11.367   4.431 101.159  0.00  0.00    +0.000 NA
ATOM     32  C   UNL     1      12.513   4.494  99.098  0.00  0.00    +0.000 A 
ATOM     33  C   UNL     1      11.030   5.048 102.314  0.00  0.00    +0.000 A 
ATOM     34  C   UNL     1      11.433   6.320 102.661  0.00  0.00    +0.000 A 
ATOM     35  C   UNL     1      13.326   5.131  98.152  0.00  0.00    +0.000 A 
ATOM     36  C   UNL     1      13.786   6.425  98.403  0.00  0.00    +0.000 A 
BRANCH  36  37
ATOM     37  O   UNL     1      14.574   7.010  97.440  0.00  0.00    +0.000 OA
ATOM     38  C   UNL     1      14.729   8.399  97.544  0.00  0.00    +0.000 C 
ENDBRANCH  36  37
BRANCH  35  39
ATOM     39  O   UNL     1      13.699   4.548  96.963  0.00  0.00    +0.000 OA
BRANCH  39  40
ATOM     40  C   UNL     1      13.477   3.238  96.885  0.00  0.00    +0.000 C 
ATOM     41  C   UNL     1      13.206   1.733  96.790  0.00  0.00    +0.000 C 
BRANCH  41  42
ATOM     42  C   UNL     1      12.931   0.229  96.688  0.00  0.00    +0.000 C 
BRANCH  42  43
ATOM     43  N   UNL     1      12.670  -1.200  96.591  0.00  0.00    +0.000 N 
ATOM     44  C   UNL     1      12.839  -1.572  95.153  0.00  0.00    +0.000 C 
ATOM     45  C   UNL     1      13.966  -2.427  94.487  0.00  0.00    +0.000 C 
ATOM     46  O   UNL     1      15.072  -3.057  94.938  0.00  0.00    +0.000 OA
ATOM     47  C   UNL     1      14.924  -2.718  96.235  0.00  0.00    +0.000 C 
ATOM     48  C   UNL     1      13.899  -1.897  97.075  0.00  0.00    +0.000 C 
ENDBRANCH  42  43
ENDBRANCH  41  42
ENDBRANCH  39  40
ENDBRANCH  35  39
ENDBRANCH  26  27
ENDBRANCH   7  26
TORSDOF 11
ENDMDL
MODEL 4
REMARK VINA RESULT:      -5.9      8.992     14.890
REMARK  Name = Foretinib.pdbqt.pdb
REMARK  11 active torsions:
REMARK  status: ('A' for Active; 'I' for Inactive)
REMARK    1  A    between atoms: C_2  and  N_31
REMARK    2  A    between atoms: C_7  and  O_8
REMARK    3  A    between atoms: O_8  and  C_9
REMARK    4  A    between atoms: C_17  and  O_19
REMARK    5  A    between atoms: C_18  and  O_29
REMARK    6  A    between atoms: O_19  and  C_20
REMARK    7  A    between atoms: C_21  and  C_22
REMARK    8  A    between atoms: C_22  and  N_23
REMARK    9  A    between atoms: C_32  and  C_35
REMARK   10  A    between atoms: C_35  and  C_38
REMARK   11  A    between atoms: N_40  and  C_42
REMARK                            x       y       z     vdW  Elec       q    Type
REMARK                         _______ _______ _______ _____ _____    ______ ____
ROOT
ATOM      1  F   UNL     1       1.177  19.119  93.684  0.00  0.00    +0.000 F 
ATOM      2  C   UNL     1       1.980  15.626  94.246  0.00  0.00    +0.000 A 
ATOM      3  C   UNL     1       1.745  16.980  94.487  0.00  0.00    +0.000 A 
ATOM      4  C   UNL     1       1.834  15.121  92.952  0.00  0.00    +0.000 A 
ATOM      5  C   UNL     1       1.365  17.814  93.440  0.00  0.00    +0.000 A 
ATOM      6  C   UNL     1       1.454  15.957  91.904  0.00  0.00    +0.000 A 
ATOM      7  C   UNL     1       1.195  17.303  92.154  0.00  0.00    +0.000 A 
ENDROOT
BRANCH   2   8
ATOM      8  N   UNL     1       2.368  14.727  95.257  0.00  0.00    +0.000 N 
ATOM      9  C   UNL     1       3.674  14.436  95.616  0.00  0.00    +0.000 C 
ATOM     10  O   UNL     1       4.686  14.892  95.097  0.00  0.00    +0.000 OA
ATOM     11  H   UNL     1       1.624  14.224  95.731  0.00  0.00    +0.000 HD
BRANCH   9  12
ATOM     12  C   UNL     1       3.808  13.421  96.713  0.00  0.00    +0.000 C 
ATOM     13  C   UNL     1       3.069  12.171  96.575  0.00  0.00    +0.000 C 
ATOM     14  C   UNL     1       2.646  13.196  97.565  0.00  0.00    +0.000 C 
BRANCH  12  15
ATOM     15  C   UNL     1       5.169  13.348  97.337  0.00  0.00    +0.000 C 
ATOM     16  O   UNL     1       5.844  12.339  97.167  0.00  0.00    +0.000 OA
ATOM     17  N   UNL     1       5.556  14.487  98.023  0.00  0.00    +0.000 N 
ATOM     18  H   UNL     1       4.915  15.274  98.036  0.00  0.00    +0.000 HD
BRANCH  17  19
ATOM     19  C   UNL     1       6.787  14.666  98.679  0.00  0.00    +0.000 A 
ATOM     20  C   UNL     1       7.718  15.524  98.091  0.00  0.00    +0.000 A 
ATOM     21  C   UNL     1       8.955  15.743  98.692  0.00  0.00    +0.000 A 
ATOM     22  C   UNL     1       9.254  15.098  99.887  0.00  0.00    +0.000 A 
ATOM     23  F   UNL     1      10.441  15.308 100.470  0.00  0.00    +0.000 F 
ATOM     24  C   UNL     1       8.338  14.243 100.489  0.00  0.00    +0.000 A 
ATOM     25  C   UNL     1       7.104  14.029  99.880  0.00  0.00    +0.000 A 
ENDBRANCH  17  19
ENDBRANCH  12  15
ENDBRANCH   9  12
ENDBRANCH   2   8
BRANCH   7  26
ATOM     26  O   UNL     1       0.887  18.092  91.073  0.00  0.00    +0.000 OA
BRANCH  26  27
ATOM     27  C   UNL     1       0.220  17.493  90.022  0.00  0.00    +0.000 A 
ATOM     28  C   UNL     1       0.959  17.152  88.879  0.00  0.00    +0.000 A 
ATOM     29  C   UNL     1       0.286  16.490  87.837  0.00  0.00    +0.000 A 
ATOM     30  C   UNL     1       2.324  17.453  88.746  0.00  0.00    +0.000 A 
ATOM     31  N   UNL     1      -1.016  16.172  87.911  0.00  0.00    +0.000 NA
ATOM     32  C   UNL     1       1.010  16.158  86.701  0.00  0.00    +0.000 A 
ATOM     33  C   UNL     1      -1.689  16.506  89.035  0.00  0.00    +0.000 A 
ATOM     34  C   UNL     1      -1.125  17.152  90.115  0.00  0.00    +0.000 A 
ATOM     35  C   UNL     1       2.372  16.453  86.563  0.00  0.00    +0.000 A 
ATOM     36  C   UNL     1       3.039  17.111  87.597  0.00  0.00    +0.000 A 
BRANCH  36  37
ATOM     37  O   UNL     1       4.373  17.385  87.410  0.00  0.00    +0.000 OA
ATOM     38  C   UNL     1       4.731  18.738  87.488  0.00  0.00    +0.000 C 
ENDBRANCH  36  37
BRANCH  35  39
ATOM     39  O   UNL     1       3.102  16.135  85.442  0.00  0.00    +0.000 OA
BRANCH  39  40
ATOM     40  C   UNL     1       3.158  14.836  85.157  0.00  0.00    +0.000 C 
ATOM     41  C   UNL     1       3.239  13.342  84.826  0.00  0.00    +0.000 C 
BRANCH  41  42
ATOM     42  C   UNL     1       3.326  11.847  84.499  0.00  0.00    +0.000 C 
BRANCH  42  43
ATOM     43  N   UNL     1       3.409  10.428  84.186  0.00  0.00    +0.000 N 
ATOM     44  C   UNL     1       4.448   9.847  85.092  0.00  0.00    +0.000 C 
ATOM     45  C   UNL     1       4.262   8.872  86.299  0.00  0.00    +0.000 C 
ATOM     46  O   UNL     1       3.200   8.280  86.888  0.00  0.00    +0.000 OA
ATOM     47  C   UNL     1       2.261   8.808  86.076  0.00  0.00    +0.000 C 
ATOM     48  C   UNL     1       2.243   9.772  84.850  0.00  0.00    +0.000 C 
ENDBRANCH  42  43
ENDBRANCH  41  42
ENDBRANCH  39  40
ENDBRANCH  35  39
ENDBRANCH  26  27
ENDBRANCH   7  26
TORSDOF 11
ENDMDL
MODEL 5
REMARK VINA RESULT:      -5.8     32.110     35.338
REMARK  Name = Foretinib.pdbqt.pdb
REMARK  11 active torsions:
REMARK  status: ('A' for Active; 'I' for Inactive)
REMARK    1  A    between atoms: C_2  and  N_31
REMARK    2  A    between atoms: C_7  and  O_8
REMARK    3  A    between atoms: O_8  and  C_9
REMARK    4  A    between atoms: C_17  and  O_19
REMARK    5  A    between atoms: C_18  and  O_29
REMARK    6  A    between atoms: O_19  and  C_20
REMARK    7  A    between atoms: C_21  and  C_22
REMARK    8  A    between atoms: C_22  and  N_23
REMARK    9  A    between atoms: C_32  and  C_35
REMARK   10  A    between atoms: C_35  and  C_38
REMARK   11  A    between atoms: N_40  and  C_42
REMARK                            x       y       z     vdW  Elec       q    Type
REMARK                         _______ _______ _______ _____ _____    ______ ____
ROOT
ATOM      1  F   UNL     1      35.150  19.443  83.024  0.00  0.00    +0.000 F 
ATOM      2  C   UNL     1      32.938  22.246  82.376  0.00  0.00    +0.000 A 
ATOM      3  C   UNL     1      33.380  20.952  82.652  0.00  0.00    +0.000 A 
ATOM      4  C   UNL     1      33.870  23.277  82.238  0.00  0.00    +0.000 A 
ATOM      5  C   UNL     1      34.741  20.700  82.792  0.00  0.00    +0.000 A 
ATOM      6  C   UNL     1      35.233  23.023  82.377  0.00  0.00    +0.000 A 
ATOM      7  C   UNL     1      35.669  21.735  82.679  0.00  0.00    +0.000 A 
ENDROOT
BRANCH   2   8
ATOM      8  N   UNL     1      31.578  22.571  82.221  0.00  0.00    +0.000 N 
ATOM      9  C   UNL     1      30.578  22.307  83.143  0.00  0.00    +0.000 C 
ATOM     10  O   UNL     1      30.716  21.732  84.215  0.00  0.00    +0.000 OA
ATOM     11  H   UNL     1      31.308  22.998  81.339  0.00  0.00    +0.000 HD
BRANCH   9  12
ATOM     12  C   UNL     1      29.206  22.738  82.714  0.00  0.00    +0.000 C 
ATOM     13  C   UNL     1      28.195  22.915  83.751  0.00  0.00    +0.000 C 
ATOM     14  C   UNL     1      28.130  21.759  82.820  0.00  0.00    +0.000 C 
BRANCH  12  15
ATOM     15  C   UNL     1      29.181  23.696  81.561  0.00  0.00    +0.000 C 
ATOM     16  O   UNL     1      29.045  23.251  80.427  0.00  0.00    +0.000 OA
ATOM     17  N   UNL     1      29.267  25.032  81.913  0.00  0.00    +0.000 N 
ATOM     18  H   UNL     1      29.320  25.260  82.902  0.00  0.00    +0.000 HD
BRANCH  17  19
ATOM     19  C   UNL     1      29.250  26.116  81.017  0.00  0.00    +0.000 A 
ATOM     20  C   UNL     1      28.428  27.201  81.324  0.00  0.00    +0.000 A 
ATOM     21  C   UNL     1      28.367  28.304  80.476  0.00  0.00    +0.000 A 
ATOM     22  C   UNL     1      29.137  28.314  79.318  0.00  0.00    +0.000 A 
ATOM     23  F   UNL     1      29.084  29.374  78.501  0.00  0.00    +0.000 F 
ATOM     24  C   UNL     1      29.964  27.244  78.997  0.00  0.00    +0.000 A 
ATOM     25  C   UNL     1      30.017  26.145  79.850  0.00  0.00    +0.000 A 
ENDBRANCH  17  19
ENDBRANCH  12  15
ENDBRANCH   9  12
ENDBRANCH   2   8
BRANCH   7  26
ATOM     26  O   UNL     1      37.025  21.531  82.741  0.00  0.00    +0.000 OA
BRANCH  26  27
ATOM     27  C   UNL     1      37.686  22.013  83.853  0.00  0.00    +0.000 A 
ATOM     28  C   UNL     1      38.719  22.944  83.657  0.00  0.00    +0.000 A 
ATOM     29  C   UNL     1      39.349  23.473  84.796  0.00  0.00    +0.000 A 
ATOM     30  C   UNL     1      39.137  23.347  82.379  0.00  0.00    +0.000 A 
ATOM     31  N   UNL     1      38.988  23.129  86.042  0.00  0.00    +0.000 NA
ATOM     32  C   UNL     1      40.376  24.387  84.608  0.00  0.00    +0.000 A 
ATOM     33  C   UNL     1      37.980  22.240  86.189  0.00  0.00    +0.000 A 
ATOM     34  C   UNL     1      37.294  21.664  85.140  0.00  0.00    +0.000 A 
ATOM     35  C   UNL     1      40.796  24.795  83.336  0.00  0.00    +0.000 A 
ATOM     36  C   UNL     1      40.171  24.268  82.205  0.00  0.00    +0.000 A 
BRANCH  36  37
ATOM     37  O   UNL     1      40.626  24.694  80.979  0.00  0.00    +0.000 OA
ATOM     38  C   UNL     1      41.097  23.689  80.124  0.00  0.00    +0.000 C 
ENDBRANCH  36  37
BRANCH  35  39
ATOM     39  O   UNL     1      41.815  25.696  83.132  0.00  0.00    +0.000 OA
BRANCH  39  40
ATOM     40  C   UNL     1      42.838  25.589  83.976  0.00  0.00    +0.000 C 
ATOM     41  C   UNL     1      44.027  25.465  84.935  0.00  0.00    +0.000 C 
BRANCH  41  42
ATOM     42  C   UNL     1      45.220  25.344  85.890  0.00  0.00    +0.000 C 
BRANCH  42  43
ATOM     43  N   UNL     1      46.352  25.229  86.798  0.00  0.00    +0.000 N 
ATOM     44  C   UNL     1      47.155  24.054  86.339  0.00  0.00    +0.000 C 
ATOM     45  C   UNL     1      48.566  24.032  85.669  0.00  0.00    +0.000 C 
ATOM     46  O   UNL     1      49.458  24.978  85.302  0.00  0.00    +0.000 OA
ATOM     47  C   UNL     1      48.733  26.040  85.710  0.00  0.00    +0.000 C 
ATOM     48  C   UNL     1      47.345  26.265  86.382  0.00  0.00    +0.000 C 
ENDBRANCH  42  43
ENDBRANCH  41  42
ENDBRANCH  39  40
ENDBRANCH  35  39
ENDBRANCH  26  27
ENDBRANCH   7  26
TORSDOF 11
ENDMDL
MODEL 6
REMARK VINA RESULT:      -5.8     57.325     61.183
REMARK  Name = Foretinib.pdbqt.pdb
REMARK  11 active torsions:
REMARK  status: ('A' for Active; 'I' for Inactive)
REMARK    1  A    between atoms: C_2  and  N_31
REMARK    2  A    between atoms: C_7  and  O_8
REMARK    3  A    between atoms: O_8  and  C_9
REMARK    4  A    between atoms: C_17  and  O_19
REMARK    5  A    between atoms: C_18  and  O_29
REMARK    6  A    between atoms: O_19  and  C_20
REMARK    7  A    between atoms: C_21  and  C_22
REMARK    8  A    between atoms: C_22  and  N_23
REMARK    9  A    between atoms: C_32  and  C_35
REMARK   10  A    between atoms: C_35  and  C_38
REMARK   11  A    between atoms: N_40  and  C_42
REMARK                            x       y       z     vdW  Elec       q    Type
REMARK                         _______ _______ _______ _____ _____    ______ ____
ROOT
ATOM      1  F   UNL     1      57.997  29.466  67.562  0.00  0.00    +0.000 F 
ATOM      2  C   UNL     1      57.461  28.217  64.198  0.00  0.00    +0.000 A 
ATOM      3  C   UNL     1      57.308  28.416  65.570  0.00  0.00    +0.000 A 
ATOM      4  C   UNL     1      58.452  28.917  63.507  0.00  0.00    +0.000 A 
ATOM      5  C   UNL     1      58.137  29.312  66.237  0.00  0.00    +0.000 A 
ATOM      6  C   UNL     1      59.284  29.814  64.176  0.00  0.00    +0.000 A 
ATOM      7  C   UNL     1      59.110  30.030  65.541  0.00  0.00    +0.000 A 
ENDROOT
BRANCH   2   8
ATOM      8  N   UNL     1      56.658  27.326  63.462  0.00  0.00    +0.000 N 
ATOM      9  C   UNL     1      57.003  26.028  63.120  0.00  0.00    +0.000 C 
ATOM     10  O   UNL     1      58.060  25.468  63.380  0.00  0.00    +0.000 OA
ATOM     11  H   UNL     1      55.771  27.685  63.122  0.00  0.00    +0.000 HD
BRANCH   9  12
ATOM     12  C   UNL     1      55.970  25.303  62.309  0.00  0.00    +0.000 C 
ATOM     13  C   UNL     1      56.436  24.459  61.214  0.00  0.00    +0.000 C 
ATOM     14  C   UNL     1      55.756  25.751  60.938  0.00  0.00    +0.000 C 
BRANCH  12  15
ATOM     15  C   UNL     1      54.784  24.820  63.090  0.00  0.00    +0.000 C 
ATOM     16  O   UNL     1      53.931  25.632  63.429  0.00  0.00    +0.000 OA
ATOM     17  N   UNL     1      54.750  23.454  63.310  0.00  0.00    +0.000 N 
ATOM     18  H   UNL     1      55.501  22.891  62.921  0.00  0.00    +0.000 HD
BRANCH  17  19
ATOM     19  C   UNL     1      53.738  22.763  64.001  0.00  0.00    +0.000 A 
ATOM     20  C   UNL     1      54.124  21.925  65.049  0.00  0.00    +0.000 A 
ATOM     21  C   UNL     1      53.169  21.214  65.772  0.00  0.00    +0.000 A 
ATOM     22  C   UNL     1      51.825  21.349  65.440  0.00  0.00    +0.000 A 
ATOM     23  F   UNL     1      50.904  20.668  66.134  0.00  0.00    +0.000 F 
ATOM     24  C   UNL     1      51.423  22.181  64.401  0.00  0.00    +0.000 A 
ATOM     25  C   UNL     1      52.384  22.887  63.683  0.00  0.00    +0.000 A 
ENDBRANCH  17  19
ENDBRANCH  12  15
ENDBRANCH   9  12
ENDBRANCH   2   8
BRANCH   7  26
ATOM     26  O   UNL     1      59.998  30.875  66.160  0.00  0.00    +0.000 OA
BRANCH  26  27
ATOM     27  C   UNL     1      59.472  31.952  66.846  0.00  0.00    +0.000 A 
ATOM     28  C   UNL     1      59.710  32.037  68.227  0.00  0.00    +0.000 A 
ATOM     29  C   UNL     1      59.221  33.164  68.908  0.00  0.00    +0.000 A 
ATOM     30  C   UNL     1      60.404  31.043  68.934  0.00  0.00    +0.000 A 
ATOM     31  N   UNL     1      58.555  34.148  68.283  0.00  0.00    +0.000 NA
ATOM     32  C   UNL     1      59.446  33.250  70.274  0.00  0.00    +0.000 A 
ATOM     33  C   UNL     1      58.358  34.035  66.950  0.00  0.00    +0.000 A 
ATOM     34  C   UNL     1      58.799  32.974  66.187  0.00  0.00    +0.000 A 
ATOM     35  C   UNL     1      60.140  32.262  70.985  0.00  0.00    +0.000 A 
ATOM     36  C   UNL     1      60.625  31.142  70.309  0.00  0.00    +0.000 A 
BRANCH  36  37
ATOM     37  O   UNL     1      61.292  30.198  71.053  0.00  0.00    +0.000 OA
ATOM     38  C   UNL     1      62.663  30.076  70.790  0.00  0.00    +0.000 C 
ENDBRANCH  36  37
BRANCH  35  39
ATOM     39  O   UNL     1      60.368  32.330  72.340  0.00  0.00    +0.000 OA
BRANCH  39  40
ATOM     40  C   UNL     1      59.819  33.376  72.952  0.00  0.00    +0.000 C 
ATOM     41  C   UNL     1      59.193  34.576  73.672  0.00  0.00    +0.000 C 
BRANCH  41  42
ATOM     42  C   UNL     1      58.573  35.776  74.395  0.00  0.00    +0.000 C 
BRANCH  42  43
ATOM     43  N   UNL     1      57.984  36.916  75.084  0.00  0.00    +0.000 N 
ATOM     44  C   UNL     1      56.548  36.974  74.672  0.00  0.00    +0.000 C 
ATOM     45  C   UNL     1      55.271  36.671  75.521  0.00  0.00    +0.000 C 
ATOM     46  O   UNL     1      55.048  36.284  76.795  0.00  0.00    +0.000 OA
ATOM     47  C   UNL     1      56.343  36.225  77.167  0.00  0.00    +0.000 C 
ATOM     48  C   UNL     1      57.723  36.482  76.489  0.00  0.00    +0.000 C 
ENDBRANCH  42  43
ENDBRANCH  41  42
ENDBRANCH  39  40
ENDBRANCH  35  39
ENDBRANCH  26  27
ENDBRANCH   7  26
TORSDOF 11
ENDMDL
MODEL 7
REMARK VINA RESULT:      -5.7      9.009     12.523
REMARK  Name = Foretinib.pdbqt.pdb
REMARK  11 active torsions:
REMARK  status: ('A' for Active; 'I' for Inactive)
REMARK    1  A    between atoms: C_2  and  N_31
REMARK    2  A    between atoms: C_7  and  O_8
REMARK    3  A    between atoms: O_8  and  C_9
REMARK    4  A    between atoms: C_17  and  O_19
REMARK    5  A    between atoms: C_18  and  O_29
REMARK    6  A    between atoms: O_19  and  C_20
REMARK    7  A    between atoms: C_21  and  C_22
REMARK    8  A    between atoms: C_22  and  N_23
REMARK    9  A    between atoms: C_32  and  C_35
REMARK   10  A    between atoms: C_35  and  C_38
REMARK   11  A    between atoms: N_40  and  C_42
REMARK                            x       y       z     vdW  Elec       q    Type
REMARK                         _______ _______ _______ _____ _____    ______ ____
ROOT
ATOM      1  F   UNL     1       8.213  18.484 100.960  0.00  0.00    +0.000 F 
ATOM      2  C   UNL     1       8.044  16.074  98.253  0.00  0.00    +0.000 A 
ATOM      3  C   UNL     1       7.666  17.054  99.171  0.00  0.00    +0.000 A 
ATOM      4  C   UNL     1       9.362  15.612  98.243  0.00  0.00    +0.000 A 
ATOM      5  C   UNL     1       8.603  17.567 100.063  0.00  0.00    +0.000 A 
ATOM      6  C   UNL     1      10.300  16.125  99.138  0.00  0.00    +0.000 A 
ATOM      7  C   UNL     1       9.925  17.123 100.034  0.00  0.00    +0.000 A 
ENDROOT
BRANCH   2   8
ATOM      8  N   UNL     1       7.148  15.512  97.325  0.00  0.00    +0.000 N 
ATOM      9  C   UNL     1       6.202  14.541  97.607  0.00  0.00    +0.000 C 
ATOM     10  O   UNL     1       6.017  14.005  98.693  0.00  0.00    +0.000 OA
ATOM     11  H   UNL     1       7.237  15.821  96.361  0.00  0.00    +0.000 HD
BRANCH   9  12
ATOM     12  C   UNL     1       5.391  14.099  96.425  0.00  0.00    +0.000 C 
ATOM     13  C   UNL     1       5.694  14.699  95.131  0.00  0.00    +0.000 C 
ATOM     14  C   UNL     1       4.450  15.059  95.859  0.00  0.00    +0.000 C 
BRANCH  12  15
ATOM     15  C   UNL     1       5.004  12.650  96.436  0.00  0.00    +0.000 C 
ATOM     16  O   UNL     1       5.842  11.813  96.119  0.00  0.00    +0.000 OA
ATOM     17  N   UNL     1       3.713  12.397  96.866  0.00  0.00    +0.000 N 
ATOM     18  H   UNL     1       3.143  13.187  97.152  0.00  0.00    +0.000 HD
BRANCH  17  19
ATOM     19  C   UNL     1       3.124  11.124  96.976  0.00  0.00    +0.000 A 
ATOM     20  C   UNL     1       2.168  10.765  96.023  0.00  0.00    +0.000 A 
ATOM     21  C   UNL     1       1.549   9.519  96.078  0.00  0.00    +0.000 A 
ATOM     22  C   UNL     1       1.894   8.633  97.093  0.00  0.00    +0.000 A 
ATOM     23  F   UNL     1       1.302   7.433  97.148  0.00  0.00    +0.000 F 
ATOM     24  C   UNL     1       2.845   8.972  98.049  0.00  0.00    +0.000 A 
ATOM     25  C   UNL     1       3.458  10.220  97.986  0.00  0.00    +0.000 A 
ENDBRANCH  17  19
ENDBRANCH  12  15
ENDBRANCH   9  12
ENDBRANCH   2   8
BRANCH   7  26
ATOM     26  O   UNL     1      10.872  17.544 100.935  0.00  0.00    +0.000 OA
BRANCH  26  27
ATOM     27  C   UNL     1      11.753  18.521 100.513  0.00  0.00    +0.000 A 
ATOM     28  C   UNL     1      13.091  18.154 100.293  0.00  0.00    +0.000 A 
ATOM     29  C   UNL     1      13.969  19.139  99.810  0.00  0.00    +0.000 A 
ATOM     30  C   UNL     1      13.568  16.858 100.544  0.00  0.00    +0.000 A 
ATOM     31  N   UNL     1      13.568  20.393  99.547  0.00  0.00    +0.000 NA
ATOM     32  C   UNL     1      15.293  18.785  99.598  0.00  0.00    +0.000 A 
ATOM     33  C   UNL     1      12.269  20.703  99.760  0.00  0.00    +0.000 A 
ATOM     34  C   UNL     1      11.325  19.812 100.228  0.00  0.00    +0.000 A 
ATOM     35  C   UNL     1      15.775  17.493  99.844  0.00  0.00    +0.000 A 
ATOM     36  C   UNL     1      14.903  16.516 100.325  0.00  0.00    +0.000 A 
BRANCH  36  37
ATOM     37  O   UNL     1      15.426  15.266 100.558  0.00  0.00    +0.000 OA
ATOM     38  C   UNL     1      15.351  14.814 101.882  0.00  0.00    +0.000 C 
ENDBRANCH  36  37
BRANCH  35  39
ATOM     39  O   UNL     1      17.086  17.127  99.644  0.00  0.00    +0.000 OA
BRANCH  39  40
ATOM     40  C   UNL     1      17.767  17.909  98.810  0.00  0.00    +0.000 C 
ATOM     41  C   UNL     1      18.566  18.799  97.851  0.00  0.00    +0.000 C 
BRANCH  41  42
ATOM     42  C   UNL     1      19.367  19.683  96.889  0.00  0.00    +0.000 C 
BRANCH  42  43
ATOM     43  N   UNL     1      20.129  20.522  95.975  0.00  0.00    +0.000 N 
ATOM     44  C   UNL     1      21.391  19.784  95.663  0.00  0.00    +0.000 C 
ATOM     45  C   UNL     1      21.827  19.110  94.322  0.00  0.00    +0.000 C 
ATOM     46  O   UNL     1      21.263  18.970  93.102  0.00  0.00    +0.000 OA
ATOM     47  C   UNL     1      20.121  19.630  93.384  0.00  0.00    +0.000 C 
ATOM     48  C   UNL     1      19.514  20.355  94.624  0.00  0.00    +0.000 C 
ENDBRANCH  42  43
ENDBRANCH  41  42
ENDBRANCH  39  40
ENDBRANCH  35  39
ENDBRANCH  26  27
ENDBRANCH   7  26
TORSDOF 11
ENDMDL
MODEL 8
REMARK VINA RESULT:      -5.6     60.289     63.313
REMARK  Name = Foretinib.pdbqt.pdb
REMARK  11 active torsions:
REMARK  status: ('A' for Active; 'I' for Inactive)
REMARK    1  A    between atoms: C_2  and  N_31
REMARK    2  A    between atoms: C_7  and  O_8
REMARK    3  A    between atoms: O_8  and  C_9
REMARK    4  A    between atoms: C_17  and  O_19
REMARK    5  A    between atoms: C_18  and  O_29
REMARK    6  A    between atoms: O_19  and  C_20
REMARK    7  A    between atoms: C_21  and  C_22
REMARK    8  A    between atoms: C_22  and  N_23
REMARK    9  A    between atoms: C_32  and  C_35
REMARK   10  A    between atoms: C_35  and  C_38
REMARK   11  A    between atoms: N_40  and  C_42
REMARK                            x       y       z     vdW  Elec       q    Type
REMARK                         _______ _______ _______ _____ _____    ______ ____
ROOT
ATOM      1  F   UNL     1      66.635  32.784  79.464  0.00  0.00    +0.000 F 
ATOM      2  C   UNL     1      64.845  34.079  76.585  0.00  0.00    +0.000 A 
ATOM      3  C   UNL     1      65.142  33.718  77.899  0.00  0.00    +0.000 A 
ATOM      4  C   UNL     1      65.793  33.868  75.582  0.00  0.00    +0.000 A 
ATOM      5  C   UNL     1      66.379  33.156  78.201  0.00  0.00    +0.000 A 
ATOM      6  C   UNL     1      67.032  33.305  75.884  0.00  0.00    +0.000 A 
ATOM      7  C   UNL     1      67.335  32.970  77.202  0.00  0.00    +0.000 A 
ENDROOT
BRANCH   2   8
ATOM      8  N   UNL     1      63.614  34.649  76.210  0.00  0.00    +0.000 N 
ATOM      9  C   UNL     1      63.300  35.997  76.276  0.00  0.00    +0.000 C 
ATOM     10  O   UNL     1      64.027  36.890  76.690  0.00  0.00    +0.000 OA
ATOM     11  H   UNL     1      62.888  34.008  75.905  0.00  0.00    +0.000 HD
BRANCH   9  12
ATOM     12  C   UNL     1      61.905  36.333  75.836  0.00  0.00    +0.000 C 
ATOM     13  C   UNL     1      61.654  36.449  74.404  0.00  0.00    +0.000 C 
ATOM     14  C   UNL     1      61.680  37.658  75.268  0.00  0.00    +0.000 C 
BRANCH  12  15
ATOM     15  C   UNL     1      60.820  35.730  76.677  0.00  0.00    +0.000 C 
ATOM     16  O   UNL     1      60.592  34.530  76.574  0.00  0.00    +0.000 OA
ATOM     17  N   UNL     1      60.202  36.611  77.547  0.00  0.00    +0.000 N 
ATOM     18  H   UNL     1      60.532  37.571  77.566  0.00  0.00    +0.000 HD
BRANCH  17  19
ATOM     19  C   UNL     1      59.169  36.283  78.444  0.00  0.00    +0.000 A 
ATOM     20  C   UNL     1      57.862  36.262  77.951  0.00  0.00    +0.000 A 
ATOM     21  C   UNL     1      56.797  35.944  78.790  0.00  0.00    +0.000 A 
ATOM     22  C   UNL     1      57.047  35.647  80.125  0.00  0.00    +0.000 A 
ATOM     23  F   UNL     1      56.024  35.339  80.933  0.00  0.00    +0.000 F 
ATOM     24  C   UNL     1      58.341  35.660  80.632  0.00  0.00    +0.000 A 
ATOM     25  C   UNL     1      59.400  35.980  79.787  0.00  0.00    +0.000 A 
ENDBRANCH  17  19
ENDBRANCH  12  15
ENDBRANCH   9  12
ENDBRANCH   2   8
BRANCH   7  26
ATOM     26  O   UNL     1      68.543  32.360  77.431  0.00  0.00    +0.000 OA
BRANCH  26  27
ATOM     27  C   UNL     1      68.524  31.007  77.710  0.00  0.00    +0.000 A 
ATOM     28  C   UNL     1      68.645  30.109  76.637  0.00  0.00    +0.000 A 
ATOM     29  C   UNL     1      68.682  28.736  76.934  0.00  0.00    +0.000 A 
ATOM     30  C   UNL     1      68.721  30.536  75.302  0.00  0.00    +0.000 A 
ATOM     31  N   UNL     1      68.619  28.270  78.191  0.00  0.00    +0.000 NA
ATOM     32  C   UNL     1      68.794  27.844  75.878  0.00  0.00    +0.000 A 
ATOM     33  C   UNL     1      68.516  29.168  79.197  0.00  0.00    +0.000 A 
ATOM     34  C   UNL     1      68.476  30.535  79.017  0.00  0.00    +0.000 A 
ATOM     35  C   UNL     1      68.872  28.263  74.543  0.00  0.00    +0.000 A 
ATOM     36  C   UNL     1      68.834  29.627  74.250  0.00  0.00    +0.000 A 
BRANCH  36  37
ATOM     37  O   UNL     1      68.906  29.986  72.924  0.00  0.00    +0.000 OA
ATOM     38  C   UNL     1      67.879  30.822  72.466  0.00  0.00    +0.000 C 
ENDBRANCH  36  37
BRANCH  35  39
ATOM     39  O   UNL     1      68.978  27.392  73.485  0.00  0.00    +0.000 OA
BRANCH  39  40
ATOM     40  C   UNL     1      68.724  26.118  73.776  0.00  0.00    +0.000 C 
ATOM     41  C   UNL     1      68.415  24.655  74.111  0.00  0.00    +0.000 C 
BRANCH  41  42
ATOM     42  C   UNL     1      68.101  23.192  74.441  0.00  0.00    +0.000 C 
BRANCH  42  43
ATOM     43  N   UNL     1      67.801  21.802  74.755  0.00  0.00    +0.000 N 
ATOM     44  C   UNL     1      66.341  21.736  75.070  0.00  0.00    +0.000 C 
ATOM     45  C   UNL     1      65.187  21.084  74.242  0.00  0.00    +0.000 C 
ATOM     46  O   UNL     1      65.119  20.424  73.065  0.00  0.00    +0.000 OA
ATOM     47  C   UNL     1      66.434  20.488  72.776  0.00  0.00    +0.000 C 
ATOM     48  C   UNL     1      67.710  21.076  73.452  0.00  0.00    +0.000 C 
ENDBRANCH  42  43
ENDBRANCH  41  42
ENDBRANCH  39  40
ENDBRANCH  35  39
ENDBRANCH  26  27
ENDBRANCH   7  26
TORSDOF 11
ENDMDL
MODEL 9
REMARK VINA RESULT:      -5.5     61.080     64.421
REMARK  Name = Foretinib.pdbqt.pdb
REMARK  11 active torsions:
REMARK  status: ('A' for Active; 'I' for Inactive)
REMARK    1  A    between atoms: C_2  and  N_31
REMARK    2  A    between atoms: C_7  and  O_8
REMARK    3  A    between atoms: O_8  and  C_9
REMARK    4  A    between atoms: C_17  and  O_19
REMARK    5  A    between atoms: C_18  and  O_29
REMARK    6  A    between atoms: O_19  and  C_20
REMARK    7  A    between atoms: C_21  and  C_22
REMARK    8  A    between atoms: C_22  and  N_23
REMARK    9  A    between atoms: C_32  and  C_35
REMARK   10  A    between atoms: C_35  and  C_38
REMARK   11  A    between atoms: N_40  and  C_42
REMARK                            x       y       z     vdW  Elec       q    Type
REMARK                         _______ _______ _______ _____ _____    ______ ____
ROOT
ATOM      1  F   UNL     1      66.665  35.079  74.086  0.00  0.00    +0.000 F 
ATOM      2  C   UNL     1      66.625  33.727  77.453  0.00  0.00    +0.000 A 
ATOM      3  C   UNL     1      67.096  34.238  76.243  0.00  0.00    +0.000 A 
ATOM      4  C   UNL     1      65.249  33.599  77.658  0.00  0.00    +0.000 A 
ATOM      5  C   UNL     1      66.194  34.620  75.255  0.00  0.00    +0.000 A 
ATOM      6  C   UNL     1      64.347  33.980  76.667  0.00  0.00    +0.000 A 
ATOM      7  C   UNL     1      64.820  34.516  75.471  0.00  0.00    +0.000 A 
ENDROOT
BRANCH   2   8
ATOM      8  N   UNL     1      67.481  33.320  78.494  0.00  0.00    +0.000 N 
ATOM      9  C   UNL     1      67.974  32.039  78.674  0.00  0.00    +0.000 C 
ATOM     10  O   UNL     1      67.724  31.062  77.978  0.00  0.00    +0.000 OA
ATOM     11  H   UNL     1      67.719  34.022  79.189  0.00  0.00    +0.000 HD
BRANCH   9  12
ATOM     12  C   UNL     1      68.849  31.872  79.882  0.00  0.00    +0.000 C 
ATOM     13  C   UNL     1      70.216  31.410  79.671  0.00  0.00    +0.000 C 
ATOM     14  C   UNL     1      69.199  30.512  80.276  0.00  0.00    +0.000 C 
BRANCH  12  15
ATOM     15  C   UNL     1      68.626  32.888  80.962  0.00  0.00    +0.000 C 
ATOM     16  O   UNL     1      69.234  33.950  80.909  0.00  0.00    +0.000 OA
ATOM     17  N   UNL     1      67.686  32.528  81.913  0.00  0.00    +0.000 N 
ATOM     18  H   UNL     1      67.216  31.634  81.802  0.00  0.00    +0.000 HD
BRANCH  17  19
ATOM     19  C   UNL     1      67.294  33.313  83.012  0.00  0.00    +0.000 A 
ATOM     20  C   UNL     1      67.548  32.813  84.291  0.00  0.00    +0.000 A 
ATOM     21  C   UNL     1      67.183  33.544  85.420  0.00  0.00    +0.000 A 
ATOM     22  C   UNL     1      66.565  34.779  85.260  0.00  0.00    +0.000 A 
ATOM     23  F   UNL     1      66.216  35.485  86.343  0.00  0.00    +0.000 F 
ATOM     24  C   UNL     1      66.307  35.294  83.994  0.00  0.00    +0.000 A 
ATOM     25  C   UNL     1      66.674  34.556  82.872  0.00  0.00    +0.000 A 
ENDBRANCH  17  19
ENDBRANCH  12  15
ENDBRANCH   9  12
ENDBRANCH   2   8
BRANCH   7  26
ATOM     26  O   UNL     1      63.889  34.814  74.506  0.00  0.00    +0.000 OA
BRANCH  26  27
ATOM     27  C   UNL     1      63.215  36.013  74.629  0.00  0.00    +0.000 A 
ATOM     28  C   UNL     1      61.842  36.033  74.337  0.00  0.00    +0.000 A 
ATOM     29  C   UNL     1      61.151  37.244  74.518  0.00  0.00    +0.000 A 
ATOM     30  C   UNL     1      61.154  34.902  73.870  0.00  0.00    +0.000 A 
ATOM     31  N   UNL     1      61.755  38.355  74.966  0.00  0.00    +0.000 NA
ATOM     32  C   UNL     1      59.796  37.271  74.224  0.00  0.00    +0.000 A 
ATOM     33  C   UNL     1      63.075  38.291  75.249  0.00  0.00    +0.000 A 
ATOM     34  C   UNL     1      63.846  37.155  75.111  0.00  0.00    +0.000 A 
ATOM     35  C   UNL     1      59.103  36.145  73.759  0.00  0.00    +0.000 A 
ATOM     36  C   UNL     1      59.791  34.944  73.578  0.00  0.00    +0.000 A 
BRANCH  36  37
ATOM     37  O   UNL     1      59.068  33.871  73.114  0.00  0.00    +0.000 OA
ATOM     38  C   UNL     1      59.807  32.709  72.854  0.00  0.00    +0.000 C 
ENDBRANCH  36  37
BRANCH  35  39
ATOM     39  O   UNL     1      57.762  36.157  73.458  0.00  0.00    +0.000 OA
BRANCH  39  40
ATOM     40  C   UNL     1      57.207  37.366  73.408  0.00  0.00    +0.000 C 
ATOM     41  C   UNL     1      56.552  38.750  73.346  0.00  0.00    +0.000 C 
BRANCH  41  42
ATOM     42  C   UNL     1      55.893  40.132  73.288  0.00  0.00    +0.000 C 
BRANCH  42  43
ATOM     43  N   UNL     1      55.266  41.446  73.231  0.00  0.00    +0.000 N 
ATOM     44  C   UNL     1      56.293  42.390  72.693  0.00  0.00    +0.000 C 
ATOM     45  C   UNL     1      56.335  43.105  71.304  0.00  0.00    +0.000 C 
ATOM     46  O   UNL     1      55.537  43.110  70.213  0.00  0.00    +0.000 OA
ATOM     47  C   UNL     1      54.613  42.254  70.695  0.00  0.00    +0.000 C 
ATOM     48  C   UNL     1      54.396  41.456  72.017  0.00  0.00    +0.000 C 
ENDBRANCH  42  43
ENDBRANCH  41  42
ENDBRANCH  39  40
ENDBRANCH  35  39
ENDBRANCH  26  27
ENDBRANCH   7  26
TORSDOF 11
ENDMDL
