MODEL 1
REMARK VINA RESULT:      -6.1      0.000      0.000
REMARK  Name = 
REMARK  7 active torsions:
REMARK  status: ('A' for Active; 'I' for Inactive)
REMARK    1  A    between atoms: S_1  and  O_3
REMARK    2  A    between atoms: S_1  and  O_6
REMARK    3  A    between atoms: O_3  and  C_9
REMARK    4  A    between atoms: O_4  and  C_10
REMARK    5  A    between atoms: O_5  and  C_11
REMARK    6  A    between atoms: C_12  and  C_14
REMARK    7  A    between atoms: C_13  and  C_15
REMARK                            x       y       z     vdW  Elec       q    Type
REMARK                         _______ _______ _______ _____ _____    ______ ____
ROOT
ATOM      1  O   UNL     1      56.718  35.881  76.468  0.00  0.00    +0.000 OA
ATOM      2  C   UNL     1      57.249  36.360  78.814  0.00  0.00    +0.000 C 
ATOM      3  C   UNL     1      57.968  37.643  78.372  0.00  0.00    +0.000 C 
ATOM      4  C   UNL     1      58.474  37.523  76.928  0.00  0.00    +0.000 C 
ATOM      5  C   UNL     1      56.160  36.009  77.783  0.00  0.00    +0.000 C 
ATOM      6  C   UNL     1      57.331  37.090  76.000  0.00  0.00    +0.000 C 
ATOM      7  C   UNL     1      55.468  34.691  78.110  0.00  0.00    +0.000 C 
ATOM      8  C   UNL     1      57.829  36.833  74.582  0.00  0.00    +0.000 C 
ENDROOT
BRANCH   3   9
ATOM      9  O   UNL     1      59.091  37.972  79.204  0.00  0.00    +0.000 OA
ATOM     10  H   UNL     1      58.848  37.827  80.142  0.00  0.00    +0.000 HD
ENDBRANCH   3   9
BRANCH   4  11
ATOM     11  O   UNL     1      59.012  38.787  76.524  0.00  0.00    +0.000 OA
ATOM     12  H   UNL     1      59.754  38.952  77.141  0.00  0.00    +0.000 HD
ENDBRANCH   4  11
BRANCH   2  13
ATOM     13  O   UNL     1      58.192  35.289  78.898  0.00  0.00    +0.000 OA
BRANCH  13  14
ATOM     14  S   UNL     1      58.527  34.667  80.356  0.00  0.00    +0.000 S 
ATOM     15  O   UNL     1      57.279  34.407  81.035  0.00  0.00    +0.000 OA
ATOM     16  O   UNL     1      59.558  33.662  80.211  0.00  0.00    +0.000 OA
BRANCH  14  17
ATOM     17  O   UNL     1      59.173  35.931  81.112  0.00  0.00    +0.000 OA
ATOM     18  H   UNL     1      59.322  35.663  82.043  0.00  0.00    +0.000 HD
ENDBRANCH  14  17
ENDBRANCH  13  14
ENDBRANCH   2  13
TORSDOF 5
ENDMDL
MODEL 2
REMARK VINA RESULT:      -6.0      2.485      4.905
REMARK  Name = 
REMARK  7 active torsions:
REMARK  status: ('A' for Active; 'I' for Inactive)
REMARK    1  A    between atoms: S_1  and  O_3
REMARK    2  A    between atoms: S_1  and  O_6
REMARK    3  A    between atoms: O_3  and  C_9
REMARK    4  A    between atoms: O_4  and  C_10
REMARK    5  A    between atoms: O_5  and  C_11
REMARK    6  A    between atoms: C_12  and  C_14
REMARK    7  A    between atoms: C_13  and  C_15
REMARK                            x       y       z     vdW  Elec       q    Type
REMARK                         _______ _______ _______ _____ _____    ______ ____
ROOT
ATOM      1  O   UNL     1      58.735  34.441  79.102  0.00  0.00    +0.000 OA
ATOM      2  C   UNL     1      57.486  36.293  78.092  0.00  0.00    +0.000 C 
ATOM      3  C   UNL     1      56.729  36.483  79.415  0.00  0.00    +0.000 C 
ATOM      4  C   UNL     1      56.683  35.175  80.218  0.00  0.00    +0.000 C 
ATOM      5  C   UNL     1      58.865  35.674  78.382  0.00  0.00    +0.000 C 
ATOM      6  C   UNL     1      58.098  34.602  80.378  0.00  0.00    +0.000 C 
ATOM      7  C   UNL     1      59.635  35.370  77.102  0.00  0.00    +0.000 C 
ATOM      8  C   UNL     1      58.074  33.236  81.054  0.00  0.00    +0.000 C 
ENDROOT
BRANCH   3   9
ATOM      9  O   UNL     1      55.378  36.931  79.230  0.00  0.00    +0.000 OA
ATOM     10  H   UNL     1      54.793  36.152  79.125  0.00  0.00    +0.000 HD
ENDBRANCH   3   9
BRANCH   4  11
ATOM     11  O   UNL     1      56.091  35.441  81.493  0.00  0.00    +0.000 OA
ATOM     12  H   UNL     1      56.784  35.208  82.145  0.00  0.00    +0.000 HD
ENDBRANCH   4  11
BRANCH   2  13
ATOM     13  O   UNL     1      56.740  35.425  77.237  0.00  0.00    +0.000 OA
BRANCH  13  14
ATOM     14  S   UNL     1      56.013  36.059  75.935  0.00  0.00    +0.000 S 
ATOM     15  O   UNL     1      56.363  35.257  74.786  0.00  0.00    +0.000 OA
ATOM     16  O   UNL     1      54.643  36.379  76.272  0.00  0.00    +0.000 OA
BRANCH  14  17
ATOM     17  O   UNL     1      56.813  37.443  75.754  0.00  0.00    +0.000 OA
ATOM     18  H   UNL     1      56.958  37.810  76.651  0.00  0.00    +0.000 HD
ENDBRANCH  14  17
ENDBRANCH  13  14
ENDBRANCH   2  13
TORSDOF 5
ENDMDL
MODEL 3
REMARK VINA RESULT:      -5.5      2.277      4.654
REMARK  Name = 
REMARK  7 active torsions:
REMARK  status: ('A' for Active; 'I' for Inactive)
REMARK    1  A    between atoms: S_1  and  O_3
REMARK    2  A    between atoms: S_1  and  O_6
REMARK    3  A    between atoms: O_3  and  C_9
REMARK    4  A    between atoms: O_4  and  C_10
REMARK    5  A    between atoms: O_5  and  C_11
REMARK    6  A    between atoms: C_12  and  C_14
REMARK    7  A    between atoms: C_13  and  C_15
REMARK                            x       y       z     vdW  Elec       q    Type
REMARK                         _______ _______ _______ _____ _____    ______ ____
ROOT
ATOM      1  O   UNL     1      56.502  36.419  80.513  0.00  0.00    +0.000 OA
ATOM      2  C   UNL     1      57.595  35.816  78.403  0.00  0.00    +0.000 C 
ATOM      3  C   UNL     1      58.552  34.899  79.179  0.00  0.00    +0.000 C 
ATOM      4  C   UNL     1      58.710  35.369  80.632  0.00  0.00    +0.000 C 
ATOM      5  C   UNL     1      56.272  35.943  79.181  0.00  0.00    +0.000 C 
ATOM      6  C   UNL     1      57.333  35.541  81.286  0.00  0.00    +0.000 C 
ATOM      7  C   UNL     1      55.309  36.917  78.513  0.00  0.00    +0.000 C 
ATOM      8  C   UNL     1      57.449  36.135  82.686  0.00  0.00    +0.000 C 
ENDROOT
BRANCH   3   9
ATOM      9  O   UNL     1      59.861  34.830  78.595  0.00  0.00    +0.000 OA
ATOM     10  H   UNL     1      60.089  35.704  78.215  0.00  0.00    +0.000 HD
ENDBRANCH   3   9
BRANCH   4  11
ATOM     11  O   UNL     1      59.498  34.408  81.341  0.00  0.00    +0.000 OA
ATOM     12  H   UNL     1      58.930  33.612  81.401  0.00  0.00    +0.000 HD
ENDBRANCH   4  11
BRANCH   2  13
ATOM     13  O   UNL     1      58.189  37.107  78.253  0.00  0.00    +0.000 OA
BRANCH  13  14
ATOM     14  S   UNL     1      58.565  37.617  76.761  0.00  0.00    +0.000 S 
ATOM     15  O   UNL     1      57.853  36.798  75.810  0.00  0.00    +0.000 OA
ATOM     16  O   UNL     1      58.517  39.063  76.735  0.00  0.00    +0.000 OA
BRANCH  14  17
ATOM     17  O   UNL     1      60.107  37.173  76.642  0.00  0.00    +0.000 OA
ATOM     18  H   UNL     1      60.449  37.548  75.804  0.00  0.00    +0.000 HD
ENDBRANCH  14  17
ENDBRANCH  13  14
ENDBRANCH   2  13
TORSDOF 5
ENDMDL
MODEL 4
REMARK VINA RESULT:      -4.9      2.641      4.589
REMARK  Name = 
REMARK  7 active torsions:
REMARK  status: ('A' for Active; 'I' for Inactive)
REMARK    1  A    between atoms: S_1  and  O_3
REMARK    2  A    between atoms: S_1  and  O_6
REMARK    3  A    between atoms: O_3  and  C_9
REMARK    4  A    between atoms: O_4  and  C_10
REMARK    5  A    between atoms: O_5  and  C_11
REMARK    6  A    between atoms: C_12  and  C_14
REMARK    7  A    between atoms: C_13  and  C_15
REMARK                            x       y       z     vdW  Elec       q    Type
REMARK                         _______ _______ _______ _____ _____    ______ ____
ROOT
ATOM      1  O   UNL     1      57.481  35.660  79.066  0.00  0.00    +0.000 OA
ATOM      2  C   UNL     1      56.971  35.706  76.668  0.00  0.00    +0.000 C 
ATOM      3  C   UNL     1      58.472  35.816  76.367  0.00  0.00    +0.000 C 
ATOM      4  C   UNL     1      59.227  36.452  77.543  0.00  0.00    +0.000 C 
ATOM      5  C   UNL     1      56.776  34.986  78.016  0.00  0.00    +0.000 C 
ATOM      6  C   UNL     1      58.898  35.710  78.846  0.00  0.00    +0.000 C 
ATOM      7  C   UNL     1      55.309  34.926  78.424  0.00  0.00    +0.000 C 
ATOM      8  C   UNL     1      59.526  36.398  80.054  0.00  0.00    +0.000 C 
ENDROOT
BRANCH   3   9
ATOM      9  O   UNL     1      58.754  36.594  75.194  0.00  0.00    +0.000 OA
ATOM     10  H   UNL     1      59.442  36.139  74.665  0.00  0.00    +0.000 HD
ENDBRANCH   3   9
BRANCH   4  11
ATOM     11  O   UNL     1      60.630  36.405  77.267  0.00  0.00    +0.000 OA
ATOM     12  H   UNL     1      60.704  36.594  76.309  0.00  0.00    +0.000 HD
ENDBRANCH   4  11
BRANCH   2  13
ATOM     13  O   UNL     1      56.401  37.015  76.737  0.00  0.00    +0.000 OA
BRANCH  13  14
ATOM     14  S   UNL     1      55.367  37.471  75.576  0.00  0.00    +0.000 S 
ATOM     15  O   UNL     1      55.993  37.238  74.296  0.00  0.00    +0.000 OA
ATOM     16  O   UNL     1      54.048  36.971  75.900  0.00  0.00    +0.000 OA
BRANCH  14  17
ATOM     17  O   UNL     1      55.348  39.068  75.762  0.00  0.00    +0.000 OA
ATOM     18  H   UNL     1      54.417  39.328  75.922  0.00  0.00    +0.000 HD
ENDBRANCH  14  17
ENDBRANCH  13  14
ENDBRANCH   2  13
TORSDOF 5
ENDMDL
MODEL 5
REMARK VINA RESULT:      -4.9     16.059     17.614
REMARK  Name = 
REMARK  7 active torsions:
REMARK  status: ('A' for Active; 'I' for Inactive)
REMARK    1  A    between atoms: S_1  and  O_3
REMARK    2  A    between atoms: S_1  and  O_6
REMARK    3  A    between atoms: O_3  and  C_9
REMARK    4  A    between atoms: O_4  and  C_10
REMARK    5  A    between atoms: O_5  and  C_11
REMARK    6  A    between atoms: C_12  and  C_14
REMARK    7  A    between atoms: C_13  and  C_15
REMARK                            x       y       z     vdW  Elec       q    Type
REMARK                         _______ _______ _______ _____ _____    ______ ____
ROOT
ATOM      1  O   UNL     1      43.631  25.855  86.165  0.00  0.00    +0.000 OA
ATOM      2  C   UNL     1      45.814  26.587  85.323  0.00  0.00    +0.000 C 
ATOM      3  C   UNL     1      45.177  27.907  84.866  0.00  0.00    +0.000 C 
ATOM      4  C   UNL     1      43.677  27.731  84.594  0.00  0.00    +0.000 C 
ATOM      5  C   UNL     1      45.012  26.022  86.510  0.00  0.00    +0.000 C 
ATOM      6  C   UNL     1      42.990  27.087  85.806  0.00  0.00    +0.000 C 
ATOM      7  C   UNL     1      45.534  24.661  86.955  0.00  0.00    +0.000 C 
ATOM      8  C   UNL     1      41.526  26.776  85.519  0.00  0.00    +0.000 C 
ENDROOT
BRANCH   3   9
ATOM      9  O   UNL     1      45.779  28.438  83.675  0.00  0.00    +0.000 OA
ATOM     10  H   UNL     1      46.065  27.697  83.103  0.00  0.00    +0.000 HD
ENDBRANCH   3   9
BRANCH   4  11
ATOM     11  O   UNL     1      43.110  29.013  84.305  0.00  0.00    +0.000 OA
ATOM     12  H   UNL     1      43.818  29.655  84.519  0.00  0.00    +0.000 HD
ENDBRANCH   4  11
BRANCH   2  13
ATOM     13  O   UNL     1      45.797  25.650  84.244  0.00  0.00    +0.000 OA
BRANCH  13  14
ATOM     14  S   UNL     1      47.211  25.091  83.683  0.00  0.00    +0.000 S 
ATOM     15  O   UNL     1      48.240  25.422  84.639  0.00  0.00    +0.000 OA
ATOM     16  O   UNL     1      47.017  23.748  83.181  0.00  0.00    +0.000 OA
BRANCH  14  17
ATOM     17  O   UNL     1      47.468  26.056  82.422  0.00  0.00    +0.000 OA
ATOM     18  H   UNL     1      47.893  26.869  82.766  0.00  0.00    +0.000 HD
ENDBRANCH  14  17
ENDBRANCH  13  14
ENDBRANCH   2  13
TORSDOF 5
ENDMDL
MODEL 6
REMARK VINA RESULT:      -4.7      7.671      9.784
REMARK  Name = 
REMARK  7 active torsions:
REMARK  status: ('A' for Active; 'I' for Inactive)
REMARK    1  A    between atoms: S_1  and  O_3
REMARK    2  A    between atoms: S_1  and  O_6
REMARK    3  A    between atoms: O_3  and  C_9
REMARK    4  A    between atoms: O_4  and  C_10
REMARK    5  A    between atoms: O_5  and  C_11
REMARK    6  A    between atoms: C_12  and  C_14
REMARK    7  A    between atoms: C_13  and  C_15
REMARK                            x       y       z     vdW  Elec       q    Type
REMARK                         _______ _______ _______ _____ _____    ______ ____
ROOT
ATOM      1  O   UNL     1      56.889  34.862  88.498  0.00  0.00    +0.000 OA
ATOM      2  C   UNL     1      56.155  36.445  86.776  0.00  0.00    +0.000 C 
ATOM      3  C   UNL     1      54.716  35.936  86.944  0.00  0.00    +0.000 C 
ATOM      4  C   UNL     1      54.698  34.494  87.469  0.00  0.00    +0.000 C 
ATOM      5  C   UNL     1      56.923  36.237  88.094  0.00  0.00    +0.000 C 
ATOM      6  C   UNL     1      55.559  34.381  88.736  0.00  0.00    +0.000 C 
ATOM      7  C   UNL     1      58.389  36.634  87.969  0.00  0.00    +0.000 C 
ATOM      8  C   UNL     1      55.671  32.936  89.208  0.00  0.00    +0.000 C 
ENDROOT
BRANCH   3   9
ATOM      9  O   UNL     1      53.963  35.966  85.722  0.00  0.00    +0.000 OA
ATOM     10  H   UNL     1      53.223  36.601  85.816  0.00  0.00    +0.000 HD
ENDBRANCH   3   9
BRANCH   4  11
ATOM     11  O   UNL     1      53.343  34.119  87.736  0.00  0.00    +0.000 OA
ATOM     12  H   UNL     1      53.286  33.178  87.473  0.00  0.00    +0.000 HD
ENDBRANCH   4  11
BRANCH   2  13
ATOM     13  O   UNL     1      56.798  35.719  85.726  0.00  0.00    +0.000 OA
BRANCH  13  14
ATOM     14  S   UNL     1      57.232  36.519  84.385  0.00  0.00    +0.000 S 
ATOM     15  O   UNL     1      56.052  37.135  83.824  0.00  0.00    +0.000 OA
ATOM     16  O   UNL     1      58.445  37.261  84.654  0.00  0.00    +0.000 OA
BRANCH  14  17
ATOM     17  O   UNL     1      57.602  35.313  83.389  0.00  0.00    +0.000 OA
ATOM     18  H   UNL     1      57.005  35.386  82.615  0.00  0.00    +0.000 HD
ENDBRANCH  14  17
ENDBRANCH  13  14
ENDBRANCH   2  13
TORSDOF 5
ENDMDL
MODEL 7
REMARK VINA RESULT:      -4.6      7.647      9.226
REMARK  Name = 
REMARK  7 active torsions:
REMARK  status: ('A' for Active; 'I' for Inactive)
REMARK    1  A    between atoms: S_1  and  O_3
REMARK    2  A    between atoms: S_1  and  O_6
REMARK    3  A    between atoms: O_3  and  C_9
REMARK    4  A    between atoms: O_4  and  C_10
REMARK    5  A    between atoms: O_5  and  C_11
REMARK    6  A    between atoms: C_12  and  C_14
REMARK    7  A    between atoms: C_13  and  C_15
REMARK                            x       y       z     vdW  Elec       q    Type
REMARK                         _______ _______ _______ _____ _____    ______ ____
ROOT
ATOM      1  O   UNL     1      57.845  34.704  87.735  0.00  0.00    +0.000 OA
ATOM      2  C   UNL     1      56.590  35.850  85.967  0.00  0.00    +0.000 C 
ATOM      3  C   UNL     1      57.902  36.459  85.452  0.00  0.00    +0.000 C 
ATOM      4  C   UNL     1      58.942  36.561  86.577  0.00  0.00    +0.000 C 
ATOM      5  C   UNL     1      56.894  34.518  86.678  0.00  0.00    +0.000 C 
ATOM      6  C   UNL     1      59.108  35.202  87.270  0.00  0.00    +0.000 C 
ATOM      7  C   UNL     1      55.644  33.904  87.298  0.00  0.00    +0.000 C 
ATOM      8  C   UNL     1      60.034  35.300  88.477  0.00  0.00    +0.000 C 
ENDROOT
BRANCH   3   9
ATOM      9  O   UNL     1      57.732  37.770  84.892  0.00  0.00    +0.000 OA
ATOM     10  H   UNL     1      57.686  38.425  85.619  0.00  0.00    +0.000 HD
ENDBRANCH   3   9
BRANCH   4  11
ATOM     11  O   UNL     1      60.182  37.004  86.016  0.00  0.00    +0.000 OA
ATOM     12  H   UNL     1      60.658  37.427  86.760  0.00  0.00    +0.000 HD
ENDBRANCH   4  11
BRANCH   2  13
ATOM     13  O   UNL     1      55.973  36.754  86.885  0.00  0.00    +0.000 OA
BRANCH  13  14
ATOM     14  S   UNL     1      54.591  37.479  86.446  0.00  0.00    +0.000 S 
ATOM     15  O   UNL     1      53.727  37.543  87.601  0.00  0.00    +0.000 OA
ATOM     16  O   UNL     1      54.906  38.641  85.644  0.00  0.00    +0.000 OA
BRANCH  14  17
ATOM     17  O   UNL     1      53.935  36.375  85.478  0.00  0.00    +0.000 OA
ATOM     18  H   UNL     1      53.255  35.902  86.002  0.00  0.00    +0.000 HD
ENDBRANCH  14  17
ENDBRANCH  13  14
ENDBRANCH   2  13
TORSDOF 5
ENDMDL
MODEL 8
REMARK VINA RESULT:      -4.2     16.687     18.469
REMARK  Name = 
REMARK  7 active torsions:
REMARK  status: ('A' for Active; 'I' for Inactive)
REMARK    1  A    between atoms: S_1  and  O_3
REMARK    2  A    between atoms: S_1  and  O_6
REMARK    3  A    between atoms: O_3  and  C_9
REMARK    4  A    between atoms: O_4  and  C_10
REMARK    5  A    between atoms: O_5  and  C_11
REMARK    6  A    between atoms: C_12  and  C_14
REMARK    7  A    between atoms: C_13  and  C_15
REMARK                            x       y       z     vdW  Elec       q    Type
REMARK                         _______ _______ _______ _____ _____    ______ ____
ROOT
ATOM      1  O   UNL     1      42.348  26.270  83.784  0.00  0.00    +0.000 OA
ATOM      2  C   UNL     1      44.787  26.044  83.660  0.00  0.00    +0.000 C 
ATOM      3  C   UNL     1      44.611  24.646  83.050  0.00  0.00    +0.000 C 
ATOM      4  C   UNL     1      43.272  24.024  83.472  0.00  0.00    +0.000 C 
ATOM      5  C   UNL     1      43.552  26.901  83.328  0.00  0.00    +0.000 C 
ATOM      6  C   UNL     1      42.120  24.993  83.172  0.00  0.00    +0.000 C 
ATOM      7  C   UNL     1      43.617  28.275  83.984  0.00  0.00    +0.000 C 
ATOM      8  C   UNL     1      40.792  24.462  83.700  0.00  0.00    +0.000 C 
ENDROOT
BRANCH   3   9
ATOM      9  O   UNL     1      45.655  23.735  83.424  0.00  0.00    +0.000 OA
ATOM     10  H   UNL     1      46.302  24.203  83.990  0.00  0.00    +0.000 HD
ENDBRANCH   3   9
BRANCH   4  11
ATOM     11  O   UNL     1      43.099  22.789  82.770  0.00  0.00    +0.000 OA
ATOM     12  H   UNL     1      43.403  22.100  83.396  0.00  0.00    +0.000 HD
ENDBRANCH   4  11
BRANCH   2  13
ATOM     13  O   UNL     1      44.925  25.932  85.078  0.00  0.00    +0.000 OA
BRANCH  13  14
ATOM     14  S   UNL     1      46.377  26.217  85.739  0.00  0.00    +0.000 S 
ATOM     15  O   UNL     1      46.273  26.014  87.165  0.00  0.00    +0.000 OA
ATOM     16  O   UNL     1      47.393  25.575  84.933  0.00  0.00    +0.000 OA
BRANCH  14  17
ATOM     17  O   UNL     1      46.521  27.806  85.540  0.00  0.00    +0.000 OA
ATOM     18  H   UNL     1      46.276  28.003  84.611  0.00  0.00    +0.000 HD
ENDBRANCH  14  17
ENDBRANCH  13  14
ENDBRANCH   2  13
TORSDOF 5
ENDMDL
MODEL 9
REMARK VINA RESULT:      -4.2     55.738     57.385
REMARK  Name = 
REMARK  7 active torsions:
REMARK  status: ('A' for Active; 'I' for Inactive)
REMARK    1  A    between atoms: S_1  and  O_3
REMARK    2  A    between atoms: S_1  and  O_6
REMARK    3  A    between atoms: O_3  and  C_9
REMARK    4  A    between atoms: O_4  and  C_10
REMARK    5  A    between atoms: O_5  and  C_11
REMARK    6  A    between atoms: C_12  and  C_14
REMARK    7  A    between atoms: C_13  and  C_15
REMARK                            x       y       z     vdW  Elec       q    Type
REMARK                         _______ _______ _______ _____ _____    ______ ____
ROOT
ATOM      1  O   UNL     1      11.579   7.264 100.561  0.00  0.00    +0.000 OA
ATOM      2  C   UNL     1      13.810   6.538  99.847  0.00  0.00    +0.000 C 
ATOM      3  C   UNL     1      14.283   7.998  99.891  0.00  0.00    +0.000 C 
ATOM      4  C   UNL     1      13.108   8.965  99.685  0.00  0.00    +0.000 C 
ATOM      5  C   UNL     1      12.648   6.351 100.841  0.00  0.00    +0.000 C 
ATOM      6  C   UNL     1      11.975   8.639 100.669  0.00  0.00    +0.000 C 
ATOM      7  C   UNL     1      12.067   4.943 100.781  0.00  0.00    +0.000 C 
ATOM      8  C   UNL     1      10.741   9.494 100.402  0.00  0.00    +0.000 C 
ENDROOT
BRANCH   3   9
ATOM      9  O   UNL     1      15.275   8.297  98.898  0.00  0.00    +0.000 OA
ATOM     10  H   UNL     1      15.524   7.471  98.434  0.00  0.00    +0.000 HD
ENDBRANCH   3   9
BRANCH   4  11
ATOM     11  O   UNL     1      13.578  10.304  99.870  0.00  0.00    +0.000 OA
ATOM     12  H   UNL     1      14.274  10.233 100.556  0.00  0.00    +0.000 HD
ENDBRANCH   4  11
BRANCH   2  13
ATOM     13  O   UNL     1      13.368   6.219  98.527  0.00  0.00    +0.000 OA
BRANCH  13  14
ATOM     14  S   UNL     1      14.157   5.068  97.703  0.00  0.00    +0.000 S 
ATOM     15  O   UNL     1      13.262   3.951  97.515  0.00  0.00    +0.000 OA
ATOM     16  O   UNL     1      14.874   5.684  96.607  0.00  0.00    +0.000 OA
BRANCH  14  17
ATOM     17  O   UNL     1      15.240   4.575  98.785  0.00  0.00    +0.000 OA
ATOM     18  H   UNL     1      15.148   3.602  98.860  0.00  0.00    +0.000 HD
ENDBRANCH  14  17
ENDBRANCH  13  14
ENDBRANCH   2  13
TORSDOF 5
ENDMDL
