MODEL 1
REMARK VINA RESULT:      -6.5      0.000      0.000
REMARK  Name = Fulvestrant.pdbqt.pdb
REMARK  12 active torsions:
REMARK  status: ('A' for Active; 'I' for Inactive)
REMARK    1  A    between atoms: C_6  and  O_40
REMARK    2  A    between atoms: C_8  and  C_19
REMARK    3  A    between atoms: C_18  and  O_42
REMARK    4  A    between atoms: C_20  and  C_21
REMARK    5  A    between atoms: C_22  and  C_23
REMARK    6  A    between atoms: C_23  and  C_24
REMARK    7  A    between atoms: C_25  and  C_26
REMARK    8  A    between atoms: C_27  and  S_28
REMARK    9  A    between atoms: S_28  and  C_30
REMARK   10  A    between atoms: C_30  and  C_31
REMARK   11  A    between atoms: C_32  and  C_33
REMARK   12  A    between atoms: C_33  and  C_36
REMARK                            x       y       z     vdW  Elec       q    Type
REMARK                         _______ _______ _______ _____ _____    ______ ____
ROOT
ATOM      1  C   UNL     1      54.721  29.272  64.746  0.00  0.00    +0.000 C 
ATOM      2  C   UNL     1      53.120  29.349  64.679  0.00  0.00    +0.000 C 
ATOM      3  C   UNL     1      55.519  28.097  64.269  0.00  0.00    +0.000 A 
ATOM      4  C   UNL     1      54.913  27.050  63.311  0.00  0.00    +0.000 A 
ATOM      5  C   UNL     1      52.718  28.370  63.675  0.00  0.00    +0.000 C 
ATOM      6  C   UNL     1      52.862  30.810  64.250  0.00  0.00    +0.000 C 
ATOM      7  C   UNL     1      55.206  30.599  64.508  0.00  0.00    +0.000 C 
ATOM      8  C   UNL     1      56.934  27.888  64.676  0.00  0.00    +0.000 A 
ATOM      9  C   UNL     1      53.545  27.287  63.039  0.00  0.00    +0.000 C 
ATOM     10  C   UNL     1      54.078  31.543  64.181  0.00  0.00    +0.000 C 
ATOM     11  C   UNL     1      52.550  29.084  66.096  0.00  0.00    +0.000 C 
ATOM     12  C   UNL     1      55.675  25.887  62.774  0.00  0.00    +0.000 A 
ATOM     13  C   UNL     1      57.480  26.739  64.054  0.00  0.00    +0.000 A 
ATOM     14  C   UNL     1      57.025  25.730  63.168  0.00  0.00    +0.000 A 
ATOM     15  C   UNL     1      55.117  24.950  61.908  0.00  0.00    +0.000 A 
ATOM     16  C   UNL     1      57.808  24.677  62.720  0.00  0.00    +0.000 A 
ATOM     17  C   UNL     1      55.893  23.884  61.447  0.00  0.00    +0.000 A 
ATOM     18  C   UNL     1      57.222  23.758  61.855  0.00  0.00    +0.000 A 
ENDROOT
BRANCH   8  19
ATOM     19  C   UNL     1      57.575  28.634  65.693  0.00  0.00    +0.000 C 
ATOM     20  C   UNL     1      58.255  29.457  66.793  0.00  0.00    +0.000 C 
BRANCH  20  21
ATOM     21  C   UNL     1      58.914  30.301  67.887  0.00  0.00    +0.000 C 
ATOM     22  C   UNL     1      59.555  31.131  69.004  0.00  0.00    +0.000 C 
BRANCH  22  23
ATOM     23  C   UNL     1      60.172  31.949  70.142  0.00  0.00    +0.000 C 
BRANCH  23  24
ATOM     24  C   UNL     1      60.767  32.795  71.273  0.00  0.00    +0.000 C 
ATOM     25  C   UNL     1      61.343  33.620  72.427  0.00  0.00    +0.000 C 
BRANCH  25  26
ATOM     26  C   UNL     1      61.899  34.429  73.604  0.00  0.00    +0.000 C 
ATOM     27  C   UNL     1      62.426  35.226  74.802  0.00  0.00    +0.000 C 
BRANCH  27  28
ATOM     28  S   UNL     1      63.003  36.132  76.196  0.00  0.00    +0.000 S 
ATOM     29  O   UNL     1      62.456  37.421  75.656  0.00  0.00    +0.000 OA
BRANCH  28  30
ATOM     30  C   UNL     1      61.544  35.834  77.137  0.00  0.00    +0.000 C 
BRANCH  30  31
ATOM     31  C   UNL     1      60.262  35.582  77.937  0.00  0.00    +0.000 C 
ATOM     32  C   UNL     1      58.971  35.346  78.729  0.00  0.00    +0.000 C 
BRANCH  32  33
ATOM     33  C   UNL     1      57.734  35.128  79.485  0.00  0.00    +0.000 C 
ATOM     34  F   UNL     1      56.718  34.973  78.590  0.00  0.00    +0.000 F 
ATOM     35  F   UNL     1      57.458  36.274  80.169  0.00  0.00    +0.000 F 
BRANCH  33  36
ATOM     36  C   UNL     1      57.809  33.931  80.437  0.00  0.00    +0.000 C 
ATOM     37  F   UNL     1      59.091  33.583  80.719  0.00  0.00    +0.000 F 
ATOM     38  F   UNL     1      57.205  32.830  79.924  0.00  0.00    +0.000 F 
ATOM     39  F   UNL     1      57.204  34.193  81.625  0.00  0.00    +0.000 F 
ENDBRANCH  33  36
ENDBRANCH  32  33
ENDBRANCH  30  31
ENDBRANCH  28  30
ENDBRANCH  27  28
ENDBRANCH  25  26
ENDBRANCH  23  24
ENDBRANCH  22  23
ENDBRANCH  20  21
ENDBRANCH   8  19
BRANCH   6  40
ATOM     40  O   UNL     1      51.729  31.199  63.568  0.00  0.00    +0.000 OA
ATOM     41  H   UNL     1      51.216  31.861  64.067  0.00  0.00    +0.000 HD
ENDBRANCH   6  40
BRANCH  18  42
ATOM     42  O   UNL     1      57.941  22.698  61.380  0.00  0.00    +0.000 OA
ATOM     43  H   UNL     1      58.360  22.962  60.542  0.00  0.00    +0.000 HD
ENDBRANCH  18  42
TORSDOF 12
ENDMDL
MODEL 2
REMARK VINA RESULT:      -5.7     56.003     59.189
REMARK  Name = Fulvestrant.pdbqt.pdb
REMARK  12 active torsions:
REMARK  status: ('A' for Active; 'I' for Inactive)
REMARK    1  A    between atoms: C_6  and  O_40
REMARK    2  A    between atoms: C_8  and  C_19
REMARK    3  A    between atoms: C_18  and  O_42
REMARK    4  A    between atoms: C_20  and  C_21
REMARK    5  A    between atoms: C_22  and  C_23
REMARK    6  A    between atoms: C_23  and  C_24
REMARK    7  A    between atoms: C_25  and  C_26
REMARK    8  A    between atoms: C_27  and  S_28
REMARK    9  A    between atoms: S_28  and  C_30
REMARK   10  A    between atoms: C_30  and  C_31
REMARK   11  A    between atoms: C_32  and  C_33
REMARK   12  A    between atoms: C_33  and  C_36
REMARK                            x       y       z     vdW  Elec       q    Type
REMARK                         _______ _______ _______ _____ _____    ______ ____
ROOT
ATOM      1  C   UNL     1       3.074  12.301  97.430  0.00  0.00    +0.000 C 
ATOM      2  C   UNL     1       2.454  10.855  97.743  0.00  0.00    +0.000 C 
ATOM      3  C   UNL     1       2.731  13.109  96.215  0.00  0.00    +0.000 A 
ATOM      4  C   UNL     1       1.465  12.811  95.384  0.00  0.00    +0.000 A 
ATOM      5  C   UNL     1       1.230  10.769  96.955  0.00  0.00    +0.000 C 
ATOM      6  C   UNL     1       2.202  10.910  99.266  0.00  0.00    +0.000 C 
ATOM      7  C   UNL     1       3.241  12.958  98.692  0.00  0.00    +0.000 C 
ATOM      8  C   UNL     1       3.576  14.244  95.759  0.00  0.00    +0.000 A 
ATOM      9  C   UNL     1       0.766  11.671  95.845  0.00  0.00    +0.000 C 
ATOM     10  C   UNL     1       2.689  12.125  99.819  0.00  0.00    +0.000 C 
ATOM     11  C   UNL     1       3.513   9.776  97.401  0.00  0.00    +0.000 C 
ATOM     12  C   UNL     1       1.056  13.609  94.193  0.00  0.00    +0.000 A 
ATOM     13  C   UNL     1       3.014  14.875  94.624  0.00  0.00    +0.000 A 
ATOM     14  C   UNL     1       1.874  14.694  93.799  0.00  0.00    +0.000 A 
ATOM     15  C   UNL     1      -0.090  13.331  93.453  0.00  0.00    +0.000 A 
ATOM     16  C   UNL     1       1.572  15.488  92.704  0.00  0.00    +0.000 A 
ATOM     17  C   UNL     1      -0.409  14.122  92.347  0.00  0.00    +0.000 A 
ATOM     18  C   UNL     1       0.420  15.185  91.984  0.00  0.00    +0.000 A 
ENDROOT
BRANCH   8  19
ATOM     19  C   UNL     1       4.861  14.525  96.283  0.00  0.00    +0.000 C 
ATOM     20  C   UNL     1       6.249  14.850  96.845  0.00  0.00    +0.000 C 
BRANCH  20  21
ATOM     21  C   UNL     1       7.631  15.203  97.399  0.00  0.00    +0.000 C 
ATOM     22  C   UNL     1       9.026  15.558  97.923  0.00  0.00    +0.000 C 
BRANCH  22  23
ATOM     23  C   UNL     1      10.433  15.911  98.416  0.00  0.00    +0.000 C 
BRANCH  23  24
ATOM     24  C   UNL     1      11.854  16.251  98.878  0.00  0.00    +0.000 C 
ATOM     25  C   UNL     1      13.277  16.614  99.313  0.00  0.00    +0.000 C 
BRANCH  25  26
ATOM     26  C   UNL     1      14.704  16.998  99.719  0.00  0.00    +0.000 C 
ATOM     27  C   UNL     1      16.116  17.404 100.152  0.00  0.00    +0.000 C 
BRANCH  27  28
ATOM     28  S   UNL     1      17.725  17.894 100.671  0.00  0.00    +0.000 S 
ATOM     29  O   UNL     1      17.420  17.580 102.106  0.00  0.00    +0.000 OA
BRANCH  28  30
ATOM     30  C   UNL     1      18.421  16.298 100.405  0.00  0.00    +0.000 C 
BRANCH  30  31
ATOM     31  C   UNL     1      19.015  14.908 100.152  0.00  0.00    +0.000 C 
ATOM     32  C   UNL     1      19.600  13.512  99.914  0.00  0.00    +0.000 C 
BRANCH  32  33
ATOM     33  C   UNL     1      20.155  12.174  99.695  0.00  0.00    +0.000 C 
ATOM     34  F   UNL     1      19.154  11.268  99.882  0.00  0.00    +0.000 F 
ATOM     35  F   UNL     1      21.065  11.934 100.680  0.00  0.00    +0.000 F 
BRANCH  33  36
ATOM     36  C   UNL     1      20.794  12.001  98.313  0.00  0.00    +0.000 C 
ATOM     37  F   UNL     1      22.024  12.572  98.246  0.00  0.00    +0.000 F 
ATOM     38  F   UNL     1      20.046  12.561  97.330  0.00  0.00    +0.000 F 
ATOM     39  F   UNL     1      20.951  10.692  97.990  0.00  0.00    +0.000 F 
ENDBRANCH  33  36
ENDBRANCH  32  33
ENDBRANCH  30  31
ENDBRANCH  28  30
ENDBRANCH  27  28
ENDBRANCH  25  26
ENDBRANCH  23  24
ENDBRANCH  22  23
ENDBRANCH  20  21
ENDBRANCH   8  19
BRANCH   6  40
ATOM     40  O   UNL     1       1.233  10.154  99.890  0.00  0.00    +0.000 OA
ATOM     41  H   UNL     1       0.978  10.531 100.751  0.00  0.00    +0.000 HD
ENDBRANCH   6  40
BRANCH  18  42
ATOM     42  O   UNL     1       0.069  15.930  90.894  0.00  0.00    +0.000 OA
ATOM     43  H   UNL     1      -0.895  15.860  90.772  0.00  0.00    +0.000 HD
ENDBRANCH  18  42
TORSDOF 12
ENDMDL
MODEL 3
REMARK VINA RESULT:      -5.7     10.176     14.949
REMARK  Name = Fulvestrant.pdbqt.pdb
REMARK  12 active torsions:
REMARK  status: ('A' for Active; 'I' for Inactive)
REMARK    1  A    between atoms: C_6  and  O_40
REMARK    2  A    between atoms: C_8  and  C_19
REMARK    3  A    between atoms: C_18  and  O_42
REMARK    4  A    between atoms: C_20  and  C_21
REMARK    5  A    between atoms: C_22  and  C_23
REMARK    6  A    between atoms: C_23  and  C_24
REMARK    7  A    between atoms: C_25  and  C_26
REMARK    8  A    between atoms: C_27  and  S_28
REMARK    9  A    between atoms: S_28  and  C_30
REMARK   10  A    between atoms: C_30  and  C_31
REMARK   11  A    between atoms: C_32  and  C_33
REMARK   12  A    between atoms: C_33  and  C_36
REMARK                            x       y       z     vdW  Elec       q    Type
REMARK                         _______ _______ _______ _____ _____    ______ ____
ROOT
ATOM      1  C   UNL     1      60.785  33.460  73.912  0.00  0.00    +0.000 C 
ATOM      2  C   UNL     1      60.367  33.026  72.426  0.00  0.00    +0.000 C 
ATOM      3  C   UNL     1      60.263  34.686  74.599  0.00  0.00    +0.000 A 
ATOM      4  C   UNL     1      58.988  35.402  74.106  0.00  0.00    +0.000 A 
ATOM      5  C   UNL     1      59.110  33.714  72.150  0.00  0.00    +0.000 C 
ATOM      6  C   UNL     1      60.216  31.493  72.544  0.00  0.00    +0.000 C 
ATOM      7  C   UNL     1      60.958  32.251  74.660  0.00  0.00    +0.000 C 
ATOM      8  C   UNL     1      60.932  35.263  75.795  0.00  0.00    +0.000 A 
ATOM      9  C   UNL     1      58.466  34.830  72.922  0.00  0.00    +0.000 C 
ATOM     10  C   UNL     1      60.589  31.043  73.839  0.00  0.00    +0.000 C 
ATOM     11  C   UNL     1      61.522  33.390  71.458  0.00  0.00    +0.000 C 
ATOM     12  C   UNL     1      58.405  36.598  74.777  0.00  0.00    +0.000 A 
ATOM     13  C   UNL     1      60.221  36.384  76.286  0.00  0.00    +0.000 A 
ATOM     14  C   UNL     1      59.057  37.109  75.924  0.00  0.00    +0.000 A 
ATOM     15  C   UNL     1      57.252  37.234  74.323  0.00  0.00    +0.000 A 
ATOM     16  C   UNL     1      58.586  38.219  76.609  0.00  0.00    +0.000 A 
ATOM     17  C   UNL     1      56.765  38.352  75.002  0.00  0.00    +0.000 A 
ATOM     18  C   UNL     1      57.432  38.832  76.131  0.00  0.00    +0.000 A 
ENDROOT
BRANCH   8  19
ATOM     19  C   UNL     1      62.207  34.854  76.255  0.00  0.00    +0.000 C 
ATOM     20  C   UNL     1      63.577  34.398  76.767  0.00  0.00    +0.000 C 
BRANCH  20  21
ATOM     21  C   UNL     1      64.932  33.925  77.299  0.00  0.00    +0.000 C 
ATOM     22  C   UNL     1      66.285  33.470  77.857  0.00  0.00    +0.000 C 
BRANCH  22  23
ATOM     23  C   UNL     1      67.632  33.037  78.441  0.00  0.00    +0.000 C 
BRANCH  23  24
ATOM     24  C   UNL     1      68.997  32.624  79.002  0.00  0.00    +0.000 C 
ATOM     25  C   UNL     1      70.348  32.180  79.572  0.00  0.00    +0.000 C 
BRANCH  25  26
ATOM     26  C   UNL     1      71.684  31.707  80.154  0.00  0.00    +0.000 C 
ATOM     27  C   UNL     1      73.023  31.209  80.707  0.00  0.00    +0.000 C 
BRANCH  27  28
ATOM     28  S   UNL     1      74.563  30.614  81.317  0.00  0.00    +0.000 S 
ATOM     29  O   UNL     1      74.311  31.190  82.679  0.00  0.00    +0.000 OA
BRANCH  28  30
ATOM     30  C   UNL     1      73.903  29.051  81.787  0.00  0.00    +0.000 C 
BRANCH  30  31
ATOM     31  C   UNL     1      73.316  27.689  82.174  0.00  0.00    +0.000 C 
ATOM     32  C   UNL     1      72.714  26.336  82.567  0.00  0.00    +0.000 C 
BRANCH  32  33
ATOM     33  C   UNL     1      72.130  25.046  82.947  0.00  0.00    +0.000 C 
ATOM     34  F   UNL     1      72.745  24.627  84.089  0.00  0.00    +0.000 F 
ATOM     35  F   UNL     1      72.466  24.139  81.988  0.00  0.00    +0.000 F 
BRANCH  33  36
ATOM     36  C   UNL     1      70.611  25.100  83.136  0.00  0.00    +0.000 C 
ATOM     37  F   UNL     1      69.968  25.449  81.992  0.00  0.00    +0.000 F 
ATOM     38  F   UNL     1      70.244  25.999  84.083  0.00  0.00    +0.000 F 
ATOM     39  F   UNL     1      70.107  23.899  83.519  0.00  0.00    +0.000 F 
ENDBRANCH  33  36
ENDBRANCH  32  33
ENDBRANCH  30  31
ENDBRANCH  28  30
ENDBRANCH  27  28
ENDBRANCH  25  26
ENDBRANCH  23  24
ENDBRANCH  22  23
ENDBRANCH  20  21
ENDBRANCH   8  19
BRANCH   6  40
ATOM     40  O   UNL     1      59.391  30.759  71.719  0.00  0.00    +0.000 OA
ATOM     41  H   UNL     1      59.875  30.045  71.266  0.00  0.00    +0.000 HD
ENDBRANCH   6  40
BRANCH  18  42
ATOM     42  O   UNL     1      56.919  39.930  76.762  0.00  0.00    +0.000 OA
ATOM     43  H   UNL     1      56.512  40.507  76.092  0.00  0.00    +0.000 HD
ENDBRANCH  18  42
TORSDOF 12
ENDMDL
MODEL 4
REMARK VINA RESULT:      -5.6     10.005     14.759
REMARK  Name = Fulvestrant.pdbqt.pdb
REMARK  12 active torsions:
REMARK  status: ('A' for Active; 'I' for Inactive)
REMARK    1  A    between atoms: C_6  and  O_40
REMARK    2  A    between atoms: C_8  and  C_19
REMARK    3  A    between atoms: C_18  and  O_42
REMARK    4  A    between atoms: C_20  and  C_21
REMARK    5  A    between atoms: C_22  and  C_23
REMARK    6  A    between atoms: C_23  and  C_24
REMARK    7  A    between atoms: C_25  and  C_26
REMARK    8  A    between atoms: C_27  and  S_28
REMARK    9  A    between atoms: S_28  and  C_30
REMARK   10  A    between atoms: C_30  and  C_31
REMARK   11  A    between atoms: C_32  and  C_33
REMARK   12  A    between atoms: C_33  and  C_36
REMARK                            x       y       z     vdW  Elec       q    Type
REMARK                         _______ _______ _______ _____ _____    ______ ____
ROOT
ATOM      1  C   UNL     1      60.783  33.473  73.932  0.00  0.00    +0.000 C 
ATOM      2  C   UNL     1      60.367  33.029  72.447  0.00  0.00    +0.000 C 
ATOM      3  C   UNL     1      60.253  34.698  74.613  0.00  0.00    +0.000 A 
ATOM      4  C   UNL     1      58.974  35.404  74.118  0.00  0.00    +0.000 A 
ATOM      5  C   UNL     1      59.106  33.707  72.169  0.00  0.00    +0.000 C 
ATOM      6  C   UNL     1      60.226  31.496  72.572  0.00  0.00    +0.000 C 
ATOM      7  C   UNL     1      60.964  32.268  74.685  0.00  0.00    +0.000 C 
ATOM      8  C   UNL     1      60.919  35.285  75.806  0.00  0.00    +0.000 A 
ATOM      9  C   UNL     1      58.454  34.823  72.937  0.00  0.00    +0.000 C 
ATOM     10  C   UNL     1      60.603  31.053  73.869  0.00  0.00    +0.000 C 
ATOM     11  C   UNL     1      61.519  33.397  71.477  0.00  0.00    +0.000 C 
ATOM     12  C   UNL     1      58.383  36.599  74.783  0.00  0.00    +0.000 A 
ATOM     13  C   UNL     1      60.200  36.404  76.293  0.00  0.00    +0.000 A 
ATOM     14  C   UNL     1      59.032  37.119  75.928  0.00  0.00    +0.000 A 
ATOM     15  C   UNL     1      57.225  37.225  74.327  0.00  0.00    +0.000 A 
ATOM     16  C   UNL     1      58.554  38.228  76.608  0.00  0.00    +0.000 A 
ATOM     17  C   UNL     1      56.731  38.343  75.002  0.00  0.00    +0.000 A 
ATOM     18  C   UNL     1      57.396  38.832  76.128  0.00  0.00    +0.000 A 
ENDROOT
BRANCH   8  19
ATOM     19  C   UNL     1      62.196  34.886  76.267  0.00  0.00    +0.000 C 
ATOM     20  C   UNL     1      63.577  34.436  76.756  0.00  0.00    +0.000 C 
BRANCH  20  21
ATOM     21  C   UNL     1      64.952  33.960  77.231  0.00  0.00    +0.000 C 
ATOM     22  C   UNL     1      66.316  33.476  77.734  0.00  0.00    +0.000 C 
BRANCH  22  23
ATOM     23  C   UNL     1      67.665  32.985  78.268  0.00  0.00    +0.000 C 
BRANCH  23  24
ATOM     24  C   UNL     1      68.998  32.465  78.816  0.00  0.00    +0.000 C 
ATOM     25  C   UNL     1      70.333  31.975  79.384  0.00  0.00    +0.000 C 
BRANCH  25  26
ATOM     26  C   UNL     1      71.673  31.515  79.969  0.00  0.00    +0.000 C 
ATOM     27  C   UNL     1      72.994  31.041  80.583  0.00  0.00    +0.000 C 
BRANCH  27  28
ATOM     28  S   UNL     1      74.494  30.485  81.316  0.00  0.00    +0.000 S 
ATOM     29  O   UNL     1      74.544  31.663  82.244  0.00  0.00    +0.000 OA
BRANCH  28  30
ATOM     30  C   UNL     1      73.673  29.494  82.517  0.00  0.00    +0.000 C 
BRANCH  30  31
ATOM     31  C   UNL     1      72.943  28.623  83.546  0.00  0.00    +0.000 C 
ATOM     32  C   UNL     1      72.197  27.752  84.562  0.00  0.00    +0.000 C 
BRANCH  32  33
ATOM     33  C   UNL     1      71.476  26.918  85.529  0.00  0.00    +0.000 C 
ATOM     34  F   UNL     1      71.321  27.642  86.673  0.00  0.00    +0.000 F 
ATOM     35  F   UNL     1      72.282  25.870  85.857  0.00  0.00    +0.000 F 
BRANCH  33  36
ATOM     36  C   UNL     1      70.123  26.422  85.011  0.00  0.00    +0.000 C 
ATOM     37  F   UNL     1      69.566  25.503  85.841  0.00  0.00    +0.000 F 
ATOM     38  F   UNL     1      70.224  25.841  83.790  0.00  0.00    +0.000 F 
ATOM     39  F   UNL     1      69.227  27.435  84.891  0.00  0.00    +0.000 F 
ENDBRANCH  33  36
ENDBRANCH  32  33
ENDBRANCH  30  31
ENDBRANCH  28  30
ENDBRANCH  27  28
ENDBRANCH  25  26
ENDBRANCH  23  24
ENDBRANCH  22  23
ENDBRANCH  20  21
ENDBRANCH   8  19
BRANCH   6  40
ATOM     40  O   UNL     1      59.405  30.752  71.751  0.00  0.00    +0.000 OA
ATOM     41  H   UNL     1      59.868  29.979  71.381  0.00  0.00    +0.000 HD
ENDBRANCH   6  40
BRANCH  18  42
ATOM     42  O   UNL     1      56.876  39.929  76.754  0.00  0.00    +0.000 OA
ATOM     43  H   UNL     1      56.032  39.676  77.168  0.00  0.00    +0.000 HD
ENDBRANCH  18  42
TORSDOF 12
ENDMDL
MODEL 5
REMARK VINA RESULT:      -5.6     13.040     17.667
REMARK  Name = Fulvestrant.pdbqt.pdb
REMARK  12 active torsions:
REMARK  status: ('A' for Active; 'I' for Inactive)
REMARK    1  A    between atoms: C_6  and  O_40
REMARK    2  A    between atoms: C_8  and  C_19
REMARK    3  A    between atoms: C_18  and  O_42
REMARK    4  A    between atoms: C_20  and  C_21
REMARK    5  A    between atoms: C_22  and  C_23
REMARK    6  A    between atoms: C_23  and  C_24
REMARK    7  A    between atoms: C_25  and  C_26
REMARK    8  A    between atoms: C_27  and  S_28
REMARK    9  A    between atoms: S_28  and  C_30
REMARK   10  A    between atoms: C_30  and  C_31
REMARK   11  A    between atoms: C_32  and  C_33
REMARK   12  A    between atoms: C_33  and  C_36
REMARK                            x       y       z     vdW  Elec       q    Type
REMARK                         _______ _______ _______ _____ _____    ______ ____
ROOT
ATOM      1  C   UNL     1      60.627  37.119  75.180  0.00  0.00    +0.000 C 
ATOM      2  C   UNL     1      61.704  35.950  74.965  0.00  0.00    +0.000 C 
ATOM      3  C   UNL     1      59.562  37.087  76.234  0.00  0.00    +0.000 A 
ATOM      4  C   UNL     1      59.662  36.140  77.448  0.00  0.00    +0.000 A 
ATOM      5  C   UNL     1      61.741  35.209  76.222  0.00  0.00    +0.000 C 
ATOM      6  C   UNL     1      63.006  36.729  74.673  0.00  0.00    +0.000 C 
ATOM      7  C   UNL     1      61.297  38.352  74.888  0.00  0.00    +0.000 C 
ATOM      8  C   UNL     1      58.370  37.973  76.176  0.00  0.00    +0.000 A 
ATOM      9  C   UNL     1      60.786  35.283  77.380  0.00  0.00    +0.000 C 
ATOM     10  C   UNL     1      62.758  38.126  74.601  0.00  0.00    +0.000 C 
ATOM     11  C   UNL     1      61.283  35.105  73.736  0.00  0.00    +0.000 C 
ATOM     12  C   UNL     1      58.653  36.098  78.544  0.00  0.00    +0.000 A 
ATOM     13  C   UNL     1      57.541  37.789  77.309  0.00  0.00    +0.000 A 
ATOM     14  C   UNL     1      57.540  36.969  78.466  0.00  0.00    +0.000 A 
ATOM     15  C   UNL     1      58.755  35.239  79.636  0.00  0.00    +0.000 A 
ATOM     16  C   UNL     1      56.553  36.995  79.438  0.00  0.00    +0.000 A 
ATOM     17  C   UNL     1      57.769  35.255  80.624  0.00  0.00    +0.000 A 
ATOM     18  C   UNL     1      56.683  36.126  80.516  0.00  0.00    +0.000 A 
ENDROOT
BRANCH   8  19
ATOM     19  C   UNL     1      58.026  38.752  75.045  0.00  0.00    +0.000 C 
ATOM     20  C   UNL     1      57.673  39.591  73.812  0.00  0.00    +0.000 C 
BRANCH  20  21
ATOM     21  C   UNL     1      57.347  40.426  72.571  0.00  0.00    +0.000 C 
ATOM     22  C   UNL     1      57.040  41.285  71.340  0.00  0.00    +0.000 C 
BRANCH  22  23
ATOM     23  C   UNL     1      56.749  42.170  70.125  0.00  0.00    +0.000 C 
BRANCH  23  24
ATOM     24  C   UNL     1      56.432  43.033  68.899  0.00  0.00    +0.000 C 
ATOM     25  C   UNL     1      56.092  43.915  67.694  0.00  0.00    +0.000 C 
BRANCH  25  26
ATOM     26  C   UNL     1      55.729  44.815  66.508  0.00  0.00    +0.000 C 
ATOM     27  C   UNL     1      55.341  45.689  65.311  0.00  0.00    +0.000 C 
BRANCH  27  28
ATOM     28  S   UNL     1      54.875  46.668  63.925  0.00  0.00    +0.000 S 
ATOM     29  O   UNL     1      53.462  46.165  63.972  0.00  0.00    +0.000 OA
BRANCH  28  30
ATOM     30  C   UNL     1      54.474  48.073  64.907  0.00  0.00    +0.000 C 
BRANCH  30  31
ATOM     31  C   UNL     1      54.113  49.282  65.776  0.00  0.00    +0.000 C 
ATOM     32  C   UNL     1      53.762  50.484  66.660  0.00  0.00    +0.000 C 
BRANCH  32  33
ATOM     33  C   UNL     1      53.430  51.629  67.513  0.00  0.00    +0.000 C 
ATOM     34  F   UNL     1      52.415  52.316  66.917  0.00  0.00    +0.000 F 
ATOM     35  F   UNL     1      54.501  52.472  67.513  0.00  0.00    +0.000 F 
BRANCH  33  36
ATOM     36  C   UNL     1      53.053  51.231  68.943  0.00  0.00    +0.000 C 
ATOM     37  F   UNL     1      53.688  50.099  69.341  0.00  0.00    +0.000 F 
ATOM     38  F   UNL     1      51.722  51.003  69.077  0.00  0.00    +0.000 F 
ATOM     39  F   UNL     1      53.377  52.198  69.839  0.00  0.00    +0.000 F 
ENDBRANCH  33  36
ENDBRANCH  32  33
ENDBRANCH  30  31
ENDBRANCH  28  30
ENDBRANCH  27  28
ENDBRANCH  25  26
ENDBRANCH  23  24
ENDBRANCH  22  23
ENDBRANCH  20  21
ENDBRANCH   8  19
BRANCH   6  40
ATOM     40  O   UNL     1      64.258  36.217  74.940  0.00  0.00    +0.000 OA
ATOM     41  H   UNL     1      64.964  36.781  74.578  0.00  0.00    +0.000 HD
ENDBRANCH   6  40
BRANCH  18  42
ATOM     42  O   UNL     1      55.743  36.105  81.507  0.00  0.00    +0.000 OA
ATOM     43  H   UNL     1      56.094  35.589  82.254  0.00  0.00    +0.000 HD
ENDBRANCH  18  42
TORSDOF 12
ENDMDL
MODEL 6
REMARK VINA RESULT:      -5.6     19.788     23.978
REMARK  Name = Fulvestrant.pdbqt.pdb
REMARK  12 active torsions:
REMARK  status: ('A' for Active; 'I' for Inactive)
REMARK    1  A    between atoms: C_6  and  O_40
REMARK    2  A    between atoms: C_8  and  C_19
REMARK    3  A    between atoms: C_18  and  O_42
REMARK    4  A    between atoms: C_20  and  C_21
REMARK    5  A    between atoms: C_22  and  C_23
REMARK    6  A    between atoms: C_23  and  C_24
REMARK    7  A    between atoms: C_25  and  C_26
REMARK    8  A    between atoms: C_27  and  S_28
REMARK    9  A    between atoms: S_28  and  C_30
REMARK   10  A    between atoms: C_30  and  C_31
REMARK   11  A    between atoms: C_32  and  C_33
REMARK   12  A    between atoms: C_33  and  C_36
REMARK                            x       y       z     vdW  Elec       q    Type
REMARK                         _______ _______ _______ _____ _____    ______ ____
ROOT
ATOM      1  C   UNL     1      34.460  21.966  78.455  0.00  0.00    +0.000 C 
ATOM      2  C   UNL     1      32.895  22.252  78.242  0.00  0.00    +0.000 C 
ATOM      3  C   UNL     1      35.164  22.128  79.767  0.00  0.00    +0.000 A 
ATOM      4  C   UNL     1      34.383  22.185  81.097  0.00  0.00    +0.000 A 
ATOM      5  C   UNL     1      32.295  22.184  79.570  0.00  0.00    +0.000 C 
ATOM      6  C   UNL     1      32.458  21.100  77.310  0.00  0.00    +0.000 C 
ATOM      7  C   UNL     1      34.795  20.862  77.604  0.00  0.00    +0.000 C 
ATOM      8  C   UNL     1      36.645  22.225  79.859  0.00  0.00    +0.000 A 
ATOM      9  C   UNL     1      32.981  22.163  80.907  0.00  0.00    +0.000 C 
ATOM     10  C   UNL     1      33.572  20.310  76.918  0.00  0.00    +0.000 C 
ATOM     11  C   UNL     1      32.732  23.621  77.535  0.00  0.00    +0.000 C 
ATOM     12  C   UNL     1      35.037  22.304  82.431  0.00  0.00    +0.000 A 
ATOM     13  C   UNL     1      37.067  22.322  81.207  0.00  0.00    +0.000 A 
ATOM     14  C   UNL     1      36.450  22.374  82.482  0.00  0.00    +0.000 A 
ATOM     15  C   UNL     1      34.320  22.352  83.624  0.00  0.00    +0.000 A 
ATOM     16  C   UNL     1      37.140  22.489  83.678  0.00  0.00    +0.000 A 
ATOM     17  C   UNL     1      35.002  22.467  84.837  0.00  0.00    +0.000 A 
ATOM     18  C   UNL     1      36.397  22.534  84.853  0.00  0.00    +0.000 A 
ENDROOT
BRANCH   8  19
ATOM     19  C   UNL     1      37.492  22.387  78.737  0.00  0.00    +0.000 C 
ATOM     20  C   UNL     1      38.424  22.570  77.535  0.00  0.00    +0.000 C 
BRANCH  20  21
ATOM     21  C   UNL     1      39.377  22.763  76.352  0.00  0.00    +0.000 C 
ATOM     22  C   UNL     1      40.305  22.968  75.151  0.00  0.00    +0.000 C 
BRANCH  22  23
ATOM     23  C   UNL     1      41.206  23.184  73.931  0.00  0.00    +0.000 C 
BRANCH  23  24
ATOM     24  C   UNL     1      42.133  23.414  72.733  0.00  0.00    +0.000 C 
ATOM     25  C   UNL     1      43.032  23.637  71.513  0.00  0.00    +0.000 C 
BRANCH  25  26
ATOM     26  C   UNL     1      43.905  23.849  70.272  0.00  0.00    +0.000 C 
ATOM     27  C   UNL     1      44.787  24.096  69.044  0.00  0.00    +0.000 C 
BRANCH  27  28
ATOM     28  S   UNL     1      45.806  24.411  67.644  0.00  0.00    +0.000 S 
ATOM     29  O   UNL     1      46.014  25.842  68.045  0.00  0.00    +0.000 OA
BRANCH  28  30
ATOM     30  C   UNL     1      47.281  23.902  68.460  0.00  0.00    +0.000 C 
BRANCH  30  31
ATOM     31  C   UNL     1      48.569  23.482  69.177  0.00  0.00    +0.000 C 
ATOM     32  C   UNL     1      49.867  23.070  69.879  0.00  0.00    +0.000 C 
BRANCH  32  33
ATOM     33  C   UNL     1      51.114  22.680  70.544  0.00  0.00    +0.000 C 
ATOM     34  F   UNL     1      51.959  22.188  69.595  0.00  0.00    +0.000 F 
ATOM     35  F   UNL     1      50.834  21.634  71.372  0.00  0.00    +0.000 F 
BRANCH  33  36
ATOM     36  C   UNL     1      51.772  23.825  71.319  0.00  0.00    +0.000 C 
ATOM     37  F   UNL     1      51.913  23.533  72.638  0.00  0.00    +0.000 F 
ATOM     38  F   UNL     1      51.054  24.973  71.244  0.00  0.00    +0.000 F 
ATOM     39  F   UNL     1      53.013  24.107  70.845  0.00  0.00    +0.000 F 
ENDBRANCH  33  36
ENDBRANCH  32  33
ENDBRANCH  30  31
ENDBRANCH  28  30
ENDBRANCH  27  28
ENDBRANCH  25  26
ENDBRANCH  23  24
ENDBRANCH  22  23
ENDBRANCH  20  21
ENDBRANCH   8  19
BRANCH   6  40
ATOM     40  O   UNL     1      31.166  20.619  77.273  0.00  0.00    +0.000 OA
ATOM     41  H   UNL     1      31.026  20.017  76.521  0.00  0.00    +0.000 HD
ENDBRANCH   6  40
BRANCH  18  42
ATOM     42  O   UNL     1      37.020  22.647  86.064  0.00  0.00    +0.000 OA
ATOM     43  H   UNL     1      36.724  21.913  86.631  0.00  0.00    +0.000 HD
ENDBRANCH  18  42
TORSDOF 12
ENDMDL
MODEL 7
REMARK VINA RESULT:      -5.5     53.041     56.365
REMARK  Name = Fulvestrant.pdbqt.pdb
REMARK  12 active torsions:
REMARK  status: ('A' for Active; 'I' for Inactive)
REMARK    1  A    between atoms: C_6  and  O_40
REMARK    2  A    between atoms: C_8  and  C_19
REMARK    3  A    between atoms: C_18  and  O_42
REMARK    4  A    between atoms: C_20  and  C_21
REMARK    5  A    between atoms: C_22  and  C_23
REMARK    6  A    between atoms: C_23  and  C_24
REMARK    7  A    between atoms: C_25  and  C_26
REMARK    8  A    between atoms: C_27  and  S_28
REMARK    9  A    between atoms: S_28  and  C_30
REMARK   10  A    between atoms: C_30  and  C_31
REMARK   11  A    between atoms: C_32  and  C_33
REMARK   12  A    between atoms: C_33  and  C_36
REMARK                            x       y       z     vdW  Elec       q    Type
REMARK                         _______ _______ _______ _____ _____    ______ ____
ROOT
ATOM      1  C   UNL     1       5.465  17.152  98.323  0.00  0.00    +0.000 C 
ATOM      2  C   UNL     1       4.304  17.964  99.076  0.00  0.00    +0.000 C 
ATOM      3  C   UNL     1       5.305  15.752  97.811  0.00  0.00    +0.000 A 
ATOM      4  C   UNL     1       3.910  15.130  97.597  0.00  0.00    +0.000 A 
ATOM      5  C   UNL     1       3.055  17.308  98.702  0.00  0.00    +0.000 C 
ATOM      6  C   UNL     1       4.448  19.388  98.495  0.00  0.00    +0.000 C 
ATOM      7  C   UNL     1       6.200  18.108  97.550  0.00  0.00    +0.000 C 
ATOM      8  C   UNL     1       6.475  14.902  97.467  0.00  0.00    +0.000 A 
ATOM      9  C   UNL     1       2.862  15.981  98.022  0.00  0.00    +0.000 C 
ATOM     10  C   UNL     1       5.571  19.475  97.630  0.00  0.00    +0.000 C 
ATOM     11  C   UNL     1       4.599  17.959 100.597  0.00  0.00    +0.000 C 
ATOM     12  C   UNL     1       3.695  13.760  97.052  0.00  0.00    +0.000 A 
ATOM     13  C   UNL     1       6.061  13.646  96.959  0.00  0.00    +0.000 A 
ATOM     14  C   UNL     1       4.831  12.985  96.716  0.00  0.00    +0.000 A 
ATOM     15  C   UNL     1       2.429  13.210  96.861  0.00  0.00    +0.000 A 
ATOM     16  C   UNL     1       4.724  11.701  96.206  0.00  0.00    +0.000 A 
ATOM     17  C   UNL     1       2.306  11.918  96.347  0.00  0.00    +0.000 A 
ATOM     18  C   UNL     1       3.447  11.179  96.027  0.00  0.00    +0.000 A 
ENDROOT
BRANCH   8  19
ATOM     19  C   UNL     1       7.812  15.240  97.785  0.00  0.00    +0.000 C 
ATOM     20  C   UNL     1       9.261  15.614  98.110  0.00  0.00    +0.000 C 
BRANCH  20  21
ATOM     21  C   UNL     1      10.713  15.998  98.408  0.00  0.00    +0.000 C 
ATOM     22  C   UNL     1      12.166  16.402  98.680  0.00  0.00    +0.000 C 
BRANCH  22  23
ATOM     23  C   UNL     1      13.618  16.824  98.924  0.00  0.00    +0.000 C 
BRANCH  23  24
ATOM     24  C   UNL     1      15.062  17.281  99.158  0.00  0.00    +0.000 C 
ATOM     25  C   UNL     1      16.493  17.768  99.402  0.00  0.00    +0.000 C 
BRANCH  25  26
ATOM     26  C   UNL     1      17.912  18.289  99.653  0.00  0.00    +0.000 C 
ATOM     27  C   UNL     1      19.316  18.839  99.921  0.00  0.00    +0.000 C 
BRANCH  27  28
ATOM     28  S   UNL     1      20.916  19.501 100.241  0.00  0.00    +0.000 S 
ATOM     29  O   UNL     1      21.489  18.140 100.505  0.00  0.00    +0.000 OA
BRANCH  28  30
ATOM     30  C   UNL     1      21.402  19.446  98.549  0.00  0.00    +0.000 C 
BRANCH  30  31
ATOM     31  C   UNL     1      21.817  19.374  97.075  0.00  0.00    +0.000 C 
ATOM     32  C   UNL     1      22.229  19.284  95.602  0.00  0.00    +0.000 C 
BRANCH  32  33
ATOM     33  C   UNL     1      22.621  19.189  94.193  0.00  0.00    +0.000 C 
ATOM     34  F   UNL     1      23.855  18.612  94.139  0.00  0.00    +0.000 F 
ATOM     35  F   UNL     1      22.780  20.456  93.719  0.00  0.00    +0.000 F 
BRANCH  33  36
ATOM     36  C   UNL     1      21.619  18.410  93.336  0.00  0.00    +0.000 C 
ATOM     37  F   UNL     1      20.486  18.111  94.023  0.00  0.00    +0.000 F 
ATOM     38  F   UNL     1      22.130  17.236  92.890  0.00  0.00    +0.000 F 
ATOM     39  F   UNL     1      21.238  19.114  92.240  0.00  0.00    +0.000 F 
ENDBRANCH  33  36
ENDBRANCH  32  33
ENDBRANCH  30  31
ENDBRANCH  28  30
ENDBRANCH  27  28
ENDBRANCH  25  26
ENDBRANCH  23  24
ENDBRANCH  22  23
ENDBRANCH  20  21
ENDBRANCH   8  19
BRANCH   6  40
ATOM     40  O   UNL     1       3.394  20.275  98.425  0.00  0.00    +0.000 OA
ATOM     41  H   UNL     1       2.535  19.822  98.491  0.00  0.00    +0.000 HD
ENDBRANCH   6  40
BRANCH  18  42
ATOM     42  O   UNL     1       3.276   9.919  95.528  0.00  0.00    +0.000 OA
ATOM     43  H   UNL     1       2.356   9.830  95.224  0.00  0.00    +0.000 HD
ENDBRANCH  18  42
TORSDOF 12
ENDMDL
MODEL 8
REMARK VINA RESULT:      -5.5      8.434     16.518
REMARK  Name = Fulvestrant.pdbqt.pdb
REMARK  12 active torsions:
REMARK  status: ('A' for Active; 'I' for Inactive)
REMARK    1  A    between atoms: C_6  and  O_40
REMARK    2  A    between atoms: C_8  and  C_19
REMARK    3  A    between atoms: C_18  and  O_42
REMARK    4  A    between atoms: C_20  and  C_21
REMARK    5  A    between atoms: C_22  and  C_23
REMARK    6  A    between atoms: C_23  and  C_24
REMARK    7  A    between atoms: C_25  and  C_26
REMARK    8  A    between atoms: C_27  and  S_28
REMARK    9  A    between atoms: S_28  and  C_30
REMARK   10  A    between atoms: C_30  and  C_31
REMARK   11  A    between atoms: C_32  and  C_33
REMARK   12  A    between atoms: C_33  and  C_36
REMARK                            x       y       z     vdW  Elec       q    Type
REMARK                         _______ _______ _______ _____ _____    ______ ____
ROOT
ATOM      1  C   UNL     1      61.362  34.714  74.235  0.00  0.00    +0.000 C 
ATOM      2  C   UNL     1      62.435  34.382  75.381  0.00  0.00    +0.000 C 
ATOM      3  C   UNL     1      59.998  35.270  74.509  0.00  0.00    +0.000 A 
ATOM      4  C   UNL     1      59.661  35.947  75.854  0.00  0.00    +0.000 A 
ATOM      5  C   UNL     1      62.027  35.160  76.545  0.00  0.00    +0.000 C 
ATOM      6  C   UNL     1      63.765  34.860  74.757  0.00  0.00    +0.000 C 
ATOM      7  C   UNL     1      62.103  35.184  73.103  0.00  0.00    +0.000 C 
ATOM      8  C   UNL     1      58.908  35.216  73.499  0.00  0.00    +0.000 A 
ATOM      9  C   UNL     1      60.730  35.885  76.779  0.00  0.00    +0.000 C 
ATOM     10  C   UNL     1      63.572  35.300  73.419  0.00  0.00    +0.000 C 
ATOM     11  C   UNL     1      62.458  32.849  75.611  0.00  0.00    +0.000 C 
ATOM     12  C   UNL     1      58.334  36.552  76.161  0.00  0.00    +0.000 A 
ATOM     13  C   UNL     1      57.737  35.850  73.977  0.00  0.00    +0.000 A 
ATOM     14  C   UNL     1      57.326  36.500  75.169  0.00  0.00    +0.000 A 
ATOM     15  C   UNL     1      58.044  37.163  77.379  0.00  0.00    +0.000 A 
ATOM     16  C   UNL     1      56.064  37.035  75.370  0.00  0.00    +0.000 A 
ATOM     17  C   UNL     1      56.776  37.707  77.596  0.00  0.00    +0.000 A 
ATOM     18  C   UNL     1      55.804  37.638  76.597  0.00  0.00    +0.000 A 
ENDROOT
BRANCH   8  19
ATOM     19  C   UNL     1      58.985  34.464  72.302  0.00  0.00    +0.000 C 
ATOM     20  C   UNL     1      59.046  33.650  71.006  0.00  0.00    +0.000 C 
BRANCH  20  21
ATOM     21  C   UNL     1      59.078  32.834  69.711  0.00  0.00    +0.000 C 
ATOM     22  C   UNL     1      59.078  32.021  68.412  0.00  0.00    +0.000 C 
BRANCH  22  23
ATOM     23  C   UNL     1      59.044  31.209  67.114  0.00  0.00    +0.000 C 
BRANCH  23  24
ATOM     24  C   UNL     1      58.976  30.407  65.810  0.00  0.00    +0.000 C 
ATOM     25  C   UNL     1      58.943  29.606  64.505  0.00  0.00    +0.000 C 
BRANCH  25  26
ATOM     26  C   UNL     1      58.946  28.810  63.196  0.00  0.00    +0.000 C 
ATOM     27  C   UNL     1      58.924  28.038  61.873  0.00  0.00    +0.000 C 
BRANCH  27  28
ATOM     28  S   UNL     1      58.873  27.171  60.342  0.00  0.00    +0.000 S 
ATOM     29  O   UNL     1      60.295  26.716  60.486  0.00  0.00    +0.000 OA
BRANCH  28  30
ATOM     30  C   UNL     1      58.259  25.690  61.069  0.00  0.00    +0.000 C 
BRANCH  30  31
ATOM     31  C   UNL     1      57.744  24.389  61.696  0.00  0.00    +0.000 C 
ATOM     32  C   UNL     1      57.225  23.082  62.305  0.00  0.00    +0.000 C 
BRANCH  32  33
ATOM     33  C   UNL     1      56.724  21.830  62.879  0.00  0.00    +0.000 C 
ATOM     34  F   UNL     1      56.456  20.976  61.852  0.00  0.00    +0.000 F 
ATOM     35  F   UNL     1      55.525  22.093  63.469  0.00  0.00    +0.000 F 
BRANCH  33  36
ATOM     36  C   UNL     1      57.694  21.192  63.878  0.00  0.00    +0.000 C 
ATOM     37  F   UNL     1      57.073  20.833  65.031  0.00  0.00    +0.000 F 
ATOM     38  F   UNL     1      58.704  22.030  64.219  0.00  0.00    +0.000 F 
ATOM     39  F   UNL     1      58.269  20.069  63.377  0.00  0.00    +0.000 F 
ENDBRANCH  33  36
ENDBRANCH  32  33
ENDBRANCH  30  31
ENDBRANCH  28  30
ENDBRANCH  27  28
ENDBRANCH  25  26
ENDBRANCH  23  24
ENDBRANCH  22  23
ENDBRANCH  20  21
ENDBRANCH   8  19
BRANCH   6  40
ATOM     40  O   UNL     1      64.842  35.266  75.516  0.00  0.00    +0.000 OA
ATOM     41  H   UNL     1      64.887  36.236  75.591  0.00  0.00    +0.000 HD
ENDBRANCH   6  40
BRANCH  18  42
ATOM     42  O   UNL     1      54.578  38.183  76.855  0.00  0.00    +0.000 OA
ATOM     43  H   UNL     1      53.949  37.459  77.022  0.00  0.00    +0.000 HD
ENDBRANCH  18  42
TORSDOF 12
ENDMDL
MODEL 9
REMARK VINA RESULT:      -5.5      8.430     16.415
REMARK  Name = Fulvestrant.pdbqt.pdb
REMARK  12 active torsions:
REMARK  status: ('A' for Active; 'I' for Inactive)
REMARK    1  A    between atoms: C_6  and  O_40
REMARK    2  A    between atoms: C_8  and  C_19
REMARK    3  A    between atoms: C_18  and  O_42
REMARK    4  A    between atoms: C_20  and  C_21
REMARK    5  A    between atoms: C_22  and  C_23
REMARK    6  A    between atoms: C_23  and  C_24
REMARK    7  A    between atoms: C_25  and  C_26
REMARK    8  A    between atoms: C_27  and  S_28
REMARK    9  A    between atoms: S_28  and  C_30
REMARK   10  A    between atoms: C_30  and  C_31
REMARK   11  A    between atoms: C_32  and  C_33
REMARK   12  A    between atoms: C_33  and  C_36
REMARK                            x       y       z     vdW  Elec       q    Type
REMARK                         _______ _______ _______ _____ _____    ______ ____
ROOT
ATOM      1  C   UNL     1      61.416  34.674  74.196  0.00  0.00    +0.000 C 
ATOM      2  C   UNL     1      62.528  34.375  75.314  0.00  0.00    +0.000 C 
ATOM      3  C   UNL     1      60.040  35.181  74.506  0.00  0.00    +0.000 A 
ATOM      4  C   UNL     1      59.712  35.839  75.862  0.00  0.00    +0.000 A 
ATOM      5  C   UNL     1      62.121  35.133  76.492  0.00  0.00    +0.000 C 
ATOM      6  C   UNL     1      63.824  34.903  74.660  0.00  0.00    +0.000 C 
ATOM      7  C   UNL     1      62.112  35.175  73.049  0.00  0.00    +0.000 C 
ATOM      8  C   UNL     1      58.929  35.093  73.522  0.00  0.00    +0.000 A 
ATOM      9  C   UNL     1      60.805  35.810  76.760  0.00  0.00    +0.000 C 
ATOM     10  C   UNL     1      63.583  35.341  73.331  0.00  0.00    +0.000 C 
ATOM     11  C   UNL     1      62.610  32.843  75.535  0.00  0.00    +0.000 C 
ATOM     12  C   UNL     1      58.373  36.395  76.205  0.00  0.00    +0.000 A 
ATOM     13  C   UNL     1      57.748  35.683  74.032  0.00  0.00    +0.000 A 
ATOM     14  C   UNL     1      57.344  36.312  75.237  0.00  0.00    +0.000 A 
ATOM     15  C   UNL     1      58.091  36.990  77.433  0.00  0.00    +0.000 A 
ATOM     16  C   UNL     1      56.068  36.800  75.471  0.00  0.00    +0.000 A 
ATOM     17  C   UNL     1      56.810  37.487  77.683  0.00  0.00    +0.000 A 
ATOM     18  C   UNL     1      55.817  37.388  76.707  0.00  0.00    +0.000 A 
ENDROOT
BRANCH   8  19
ATOM     19  C   UNL     1      59.003  34.349  72.319  0.00  0.00    +0.000 C 
ATOM     20  C   UNL     1      59.078  33.563  71.007  0.00  0.00    +0.000 C 
BRANCH  20  21
ATOM     21  C   UNL     1      59.145  32.801  69.680  0.00  0.00    +0.000 C 
ATOM     22  C   UNL     1      59.185  32.054  68.344  0.00  0.00    +0.000 C 
BRANCH  22  23
ATOM     23  C   UNL     1      59.194  31.320  66.999  0.00  0.00    +0.000 C 
BRANCH  23  24
ATOM     24  C   UNL     1      59.235  30.602  65.646  0.00  0.00    +0.000 C 
ATOM     25  C   UNL     1      59.286  29.855  64.310  0.00  0.00    +0.000 C 
BRANCH  25  26
ATOM     26  C   UNL     1      59.350  29.078  62.991  0.00  0.00    +0.000 C 
ATOM     27  C   UNL     1      59.443  28.283  61.685  0.00  0.00    +0.000 C 
BRANCH  27  28
ATOM     28  S   UNL     1      59.580  27.356  60.195  0.00  0.00    +0.000 S 
ATOM     29  O   UNL     1      60.857  28.046  59.815  0.00  0.00    +0.000 OA
BRANCH  28  30
ATOM     30  C   UNL     1      60.450  26.032  60.964  0.00  0.00    +0.000 C 
BRANCH  30  31
ATOM     31  C   UNL     1      61.224  24.896  61.641  0.00  0.00    +0.000 C 
ATOM     32  C   UNL     1      61.986  23.747  62.311  0.00  0.00    +0.000 C 
BRANCH  32  33
ATOM     33  C   UNL     1      62.706  22.643  62.951  0.00  0.00    +0.000 C 
ATOM     34  F   UNL     1      63.384  21.967  61.981  0.00  0.00    +0.000 F 
ATOM     35  F   UNL     1      61.781  21.769  63.438  0.00  0.00    +0.000 F 
BRANCH  33  36
ATOM     36  C   UNL     1      63.657  23.101  64.061  0.00  0.00    +0.000 C 
ATOM     37  F   UNL     1      64.894  23.393  63.583  0.00  0.00    +0.000 F 
ATOM     38  F   UNL     1      63.818  22.157  65.020  0.00  0.00    +0.000 F 
ATOM     39  F   UNL     1      63.204  24.220  64.683  0.00  0.00    +0.000 F 
ENDBRANCH  33  36
ENDBRANCH  32  33
ENDBRANCH  30  31
ENDBRANCH  28  30
ENDBRANCH  27  28
ENDBRANCH  25  26
ENDBRANCH  23  24
ENDBRANCH  22  23
ENDBRANCH  20  21
ENDBRANCH   8  19
BRANCH   6  40
ATOM     40  O   UNL     1      64.905  35.343  75.396  0.00  0.00    +0.000 OA
ATOM     41  H   UNL     1      64.751  36.229  75.770  0.00  0.00    +0.000 HD
ENDBRANCH   6  40
BRANCH  18  42
ATOM     42  O   UNL     1      54.579  37.888  76.997  0.00  0.00    +0.000 OA
ATOM     43  H   UNL     1      54.681  38.815  77.279  0.00  0.00    +0.000 HD
ENDBRANCH  18  42
TORSDOF 12
ENDMDL
