MODEL 1
REMARK VINA RESULT:      -6.2      0.000      0.000
REMARK  Name = Gefitinib.pdbqt.pdb
REMARK  6 active torsions:
REMARK  status: ('A' for Active; 'I' for Inactive)
REMARK    1  A    between atoms: C_3  and  O_11
REMARK    2  A    between atoms: C_6  and  O_21
REMARK    3  A    between atoms: O_11  and  C_12
REMARK    4  A    between atoms: C_13  and  C_14
REMARK    5  A    between atoms: C_14  and  N_15
REMARK    6  A    between atoms: N_23  and  C_25
REMARK                            x       y       z     vdW  Elec       q    Type
REMARK                         _______ _______ _______ _____ _____    ______ ____
ROOT
ATOM      1  N   UNL     1      60.573  30.443  72.198  0.00  0.00    +0.000 NA
ATOM      2  N   UNL     1      60.197  32.322  73.614  0.00  0.00    +0.000 NA
ATOM      3  C   UNL     1      59.432  32.629  68.848  0.00  0.00    +0.000 A 
ATOM      4  C   UNL     1      59.827  32.511  71.258  0.00  0.00    +0.000 A 
ATOM      5  C   UNL     1      59.441  33.224  70.110  0.00  0.00    +0.000 A 
ATOM      6  C   UNL     1      59.822  31.295  68.730  0.00  0.00    +0.000 A 
ATOM      7  C   UNL     1      60.208  31.172  71.144  0.00  0.00    +0.000 A 
ATOM      8  C   UNL     1      60.201  30.594  69.881  0.00  0.00    +0.000 A 
ATOM      9  C   UNL     1      59.847  33.059  72.548  0.00  0.00    +0.000 A 
ATOM     10  C   UNL     1      60.546  31.050  73.391  0.00  0.00    +0.000 A 
ATOM     11  N   UNL     1      59.449  34.409  72.727  0.00  0.00    +0.000 N 
ATOM     12  H   UNL     1      59.884  35.014  72.037  0.00  0.00    +0.000 HD
ENDROOT
BRANCH  11  13
ATOM     13  C   UNL     1      59.205  35.087  73.942  0.00  0.00    +0.000 A 
ATOM     14  C   UNL     1      57.884  35.386  74.297  0.00  0.00    +0.000 A 
ATOM     15  C   UNL     1      57.586  35.958  75.531  0.00  0.00    +0.000 A 
ATOM     16 CL   UNL     1      55.950  36.333  75.897  0.00  0.00    +0.000 Cl
ATOM     17  C   UNL     1      58.606  36.213  76.440  0.00  0.00    +0.000 A 
ATOM     18  F   UNL     1      58.340  36.764  77.633  0.00  0.00    +0.000 F 
ATOM     19  C   UNL     1      59.921  35.891  76.128  0.00  0.00    +0.000 A 
ATOM     20  C   UNL     1      60.207  35.315  74.892  0.00  0.00    +0.000 A 
ENDBRANCH  11  13
BRANCH   6  21
ATOM     21  O   UNL     1      59.798  30.746  67.469  0.00  0.00    +0.000 OA
ATOM     22  C   UNL     1      58.762  29.838  67.222  0.00  0.00    +0.000 C 
ENDBRANCH   6  21
BRANCH   3  23
ATOM     23  O   UNL     1      59.061  33.292  67.704  0.00  0.00    +0.000 OA
BRANCH  23  24
ATOM     24  C   UNL     1      58.337  34.391  67.907  0.00  0.00    +0.000 C 
ATOM     25  C   UNL     1      57.516  35.661  68.153  0.00  0.00    +0.000 C 
BRANCH  25  26
ATOM     26  C   UNL     1      56.722  36.945  68.417  0.00  0.00    +0.000 C 
BRANCH  26  27
ATOM     27  N   UNL     1      55.956  38.159  68.663  0.00  0.00    +0.000 N 
ATOM     28  C   UNL     1      54.547  37.730  68.921  0.00  0.00    +0.000 C 
ATOM     29  C   UNL     1      53.743  37.760  70.261  0.00  0.00    +0.000 C 
ATOM     30  O   UNL     1      54.022  38.141  71.527  0.00  0.00    +0.000 OA
ATOM     31  C   UNL     1      55.293  38.527  71.296  0.00  0.00    +0.000 C 
ATOM     32  C   UNL     1      56.250  38.575  70.067  0.00  0.00    +0.000 C 
ENDBRANCH  26  27
ENDBRANCH  25  26
ENDBRANCH  23  24
ENDBRANCH   3  23
TORSDOF 6
ENDMDL
MODEL 2
REMARK VINA RESULT:      -6.0      1.550      1.892
REMARK  Name = Gefitinib.pdbqt.pdb
REMARK  6 active torsions:
REMARK  status: ('A' for Active; 'I' for Inactive)
REMARK    1  A    between atoms: C_3  and  O_11
REMARK    2  A    between atoms: C_6  and  O_21
REMARK    3  A    between atoms: O_11  and  C_12
REMARK    4  A    between atoms: C_13  and  C_14
REMARK    5  A    between atoms: C_14  and  N_15
REMARK    6  A    between atoms: N_23  and  C_25
REMARK                            x       y       z     vdW  Elec       q    Type
REMARK                         _______ _______ _______ _____ _____    ______ ____
ROOT
ATOM      1  N   UNL     1      60.648  30.578  72.557  0.00  0.00    +0.000 NA
ATOM      2  N   UNL     1      60.704  32.288  74.215  0.00  0.00    +0.000 NA
ATOM      3  C   UNL     1      59.410  33.301  69.666  0.00  0.00    +0.000 A 
ATOM      4  C   UNL     1      60.077  32.825  71.970  0.00  0.00    +0.000 A 
ATOM      5  C   UNL     1      59.652  33.722  70.974  0.00  0.00    +0.000 A 
ATOM      6  C   UNL     1      59.600  31.957  69.345  0.00  0.00    +0.000 A 
ATOM      7  C   UNL     1      60.259  31.476  71.653  0.00  0.00    +0.000 A 
ATOM      8  C   UNL     1      60.019  31.072  70.346  0.00  0.00    +0.000 A 
ATOM      9  C   UNL     1      60.328  33.194  73.298  0.00  0.00    +0.000 A 
ATOM     10  C   UNL     1      60.849  31.023  73.804  0.00  0.00    +0.000 A 
ATOM     11  N   UNL     1      60.139  34.546  73.683  0.00  0.00    +0.000 N 
ATOM     12  H   UNL     1      60.563  35.180  73.012  0.00  0.00    +0.000 HD
ENDROOT
BRANCH  11  13
ATOM     13  C   UNL     1      60.138  35.084  74.989  0.00  0.00    +0.000 A 
ATOM     14  C   UNL     1      58.926  35.506  75.547  0.00  0.00    +0.000 A 
ATOM     15  C   UNL     1      58.859  35.945  76.867  0.00  0.00    +0.000 A 
ATOM     16 CL   UNL     1      57.348  36.482  77.485  0.00  0.00    +0.000 Cl
ATOM     17  C   UNL     1      60.003  35.941  77.656  0.00  0.00    +0.000 A 
ATOM     18  F   UNL     1      59.959  36.360  78.929  0.00  0.00    +0.000 F 
ATOM     19  C   UNL     1      61.211  35.491  77.139  0.00  0.00    +0.000 A 
ATOM     20  C   UNL     1      61.266  35.051  75.818  0.00  0.00    +0.000 A 
ENDBRANCH  11  13
BRANCH   6  21
ATOM     21  O   UNL     1      59.349  31.584  68.045  0.00  0.00    +0.000 OA
ATOM     22  C   UNL     1      60.478  31.318  67.261  0.00  0.00    +0.000 C 
ENDBRANCH   6  21
BRANCH   3  23
ATOM     23  O   UNL     1      58.994  34.147  68.667  0.00  0.00    +0.000 OA
BRANCH  23  24
ATOM     24  C   UNL     1      58.311  35.209  69.086  0.00  0.00    +0.000 C 
ATOM     25  C   UNL     1      57.527  36.428  69.585  0.00  0.00    +0.000 C 
BRANCH  25  26
ATOM     26  C   UNL     1      56.750  37.637  70.117  0.00  0.00    +0.000 C 
BRANCH  26  27
ATOM     27  N   UNL     1      56.025  38.794  70.622  0.00  0.00    +0.000 N 
ATOM     28  C   UNL     1      55.601  38.458  72.016  0.00  0.00    +0.000 C 
ATOM     29  C   UNL     1      56.124  39.045  73.368  0.00  0.00    +0.000 C 
ATOM     30  O   UNL     1      57.054  39.964  73.707  0.00  0.00    +0.000 OA
ATOM     31  C   UNL     1      57.437  40.266  72.451  0.00  0.00    +0.000 C 
ATOM     32  C   UNL     1      57.051  39.807  71.012  0.00  0.00    +0.000 C 
ENDBRANCH  26  27
ENDBRANCH  25  26
ENDBRANCH  23  24
ENDBRANCH   3  23
TORSDOF 6
ENDMDL
MODEL 3
REMARK VINA RESULT:      -5.3     45.709     47.120
REMARK  Name = Gefitinib.pdbqt.pdb
REMARK  6 active torsions:
REMARK  status: ('A' for Active; 'I' for Inactive)
REMARK    1  A    between atoms: C_3  and  O_11
REMARK    2  A    between atoms: C_6  and  O_21
REMARK    3  A    between atoms: O_11  and  C_12
REMARK    4  A    between atoms: C_13  and  C_14
REMARK    5  A    between atoms: C_14  and  N_15
REMARK    6  A    between atoms: N_23  and  C_25
REMARK                            x       y       z     vdW  Elec       q    Type
REMARK                         _______ _______ _______ _____ _____    ______ ____
ROOT
ATOM      1  N   UNL     1      17.608  20.207  86.291  0.00  0.00    +0.000 NA
ATOM      2  N   UNL     1      18.433  19.501  88.413  0.00  0.00    +0.000 NA
ATOM      3  C   UNL     1      16.152  16.393  85.493  0.00  0.00    +0.000 A 
ATOM      4  C   UNL     1      17.293  17.944  86.999  0.00  0.00    +0.000 A 
ATOM      5  C   UNL     1      16.797  16.663  86.701  0.00  0.00    +0.000 A 
ATOM      6  C   UNL     1      15.996  17.424  84.566  0.00  0.00    +0.000 A 
ATOM      7  C   UNL     1      17.147  18.976  86.068  0.00  0.00    +0.000 A 
ATOM      8  C   UNL     1      16.499  18.694  84.873  0.00  0.00    +0.000 A 
ATOM      9  C   UNL     1      17.952  18.267  88.193  0.00  0.00    +0.000 A 
ATOM     10  C   UNL     1      18.237  20.415  87.455  0.00  0.00    +0.000 A 
ATOM     11  N   UNL     1      18.149  17.254  89.166  0.00  0.00    +0.000 N 
ATOM     12  H   UNL     1      17.296  16.724  89.319  0.00  0.00    +0.000 HD
ENDROOT
BRANCH  11  13
ATOM     13  C   UNL     1      18.950  17.310  90.328  0.00  0.00    +0.000 A 
ATOM     14  C   UNL     1      20.220  16.721  90.303  0.00  0.00    +0.000 A 
ATOM     15  C   UNL     1      21.086  16.841  91.387  0.00  0.00    +0.000 A 
ATOM     16 CL   UNL     1      22.619  16.068  91.312  0.00  0.00    +0.000 Cl
ATOM     17  C   UNL     1      20.702  17.580  92.501  0.00  0.00    +0.000 A 
ATOM     18  F   UNL     1      21.523  17.707  93.554  0.00  0.00    +0.000 F 
ATOM     19  C   UNL     1      19.464  18.206  92.534  0.00  0.00    +0.000 A 
ATOM     20  C   UNL     1      18.606  18.082  91.443  0.00  0.00    +0.000 A 
ENDBRANCH  11  13
BRANCH   6  21
ATOM     21  O   UNL     1      15.357  17.114  83.389  0.00  0.00    +0.000 OA
ATOM     22  C   UNL     1      14.576  18.135  82.835  0.00  0.00    +0.000 C 
ENDBRANCH   6  21
BRANCH   3  23
ATOM     23  O   UNL     1      15.654  15.155  85.165  0.00  0.00    +0.000 OA
BRANCH  23  24
ATOM     24  C   UNL     1      16.545  14.319  84.637  0.00  0.00    +0.000 C 
ATOM     25  C   UNL     1      17.558  13.347  84.022  0.00  0.00    +0.000 C 
BRANCH  25  26
ATOM     26  C   UNL     1      18.544  12.360  83.387  0.00  0.00    +0.000 C 
BRANCH  26  27
ATOM     27  N   UNL     1      19.472  11.412  82.786  0.00  0.00    +0.000 N 
ATOM     28  C   UNL     1      20.591  11.233  83.760  0.00  0.00    +0.000 C 
ATOM     29  C   UNL     1      20.939   9.984  84.634  0.00  0.00    +0.000 C 
ATOM     30  O   UNL     1      20.395   8.758  84.798  0.00  0.00    +0.000 OA
ATOM     31  C   UNL     1      19.385   8.919  83.920  0.00  0.00    +0.000 C 
ATOM     32  C   UNL     1      18.881  10.054  82.978  0.00  0.00    +0.000 C 
ENDBRANCH  26  27
ENDBRANCH  25  26
ENDBRANCH  23  24
ENDBRANCH   3  23
TORSDOF 6
ENDMDL
MODEL 4
REMARK VINA RESULT:      -5.2     17.602     19.955
REMARK  Name = Gefitinib.pdbqt.pdb
REMARK  6 active torsions:
REMARK  status: ('A' for Active; 'I' for Inactive)
REMARK    1  A    between atoms: C_3  and  O_11
REMARK    2  A    between atoms: C_6  and  O_21
REMARK    3  A    between atoms: O_11  and  C_12
REMARK    4  A    between atoms: C_13  and  C_14
REMARK    5  A    between atoms: C_14  and  N_15
REMARK    6  A    between atoms: N_23  and  C_25
REMARK                            x       y       z     vdW  Elec       q    Type
REMARK                         _______ _______ _______ _____ _____    ______ ____
ROOT
ATOM      1  N   UNL     1      48.984  17.938  80.875  0.00  0.00    +0.000 NA
ATOM      2  N   UNL     1      50.193  19.338  79.374  0.00  0.00    +0.000 NA
ATOM      3  C   UNL     1      51.018  19.531  84.135  0.00  0.00    +0.000 A 
ATOM      4  C   UNL     1      50.611  19.470  81.725  0.00  0.00    +0.000 A 
ATOM      5  C   UNL     1      51.288  19.987  82.844  0.00  0.00    +0.000 A 
ATOM      6  C   UNL     1      50.050  18.543  84.313  0.00  0.00    +0.000 A 
ATOM      7  C   UNL     1      49.648  18.473  81.899  0.00  0.00    +0.000 A 
ATOM      8  C   UNL     1      49.387  18.033  83.190  0.00  0.00    +0.000 A 
ATOM      9  C   UNL     1      50.848  19.888  80.408  0.00  0.00    +0.000 A 
ATOM     10  C   UNL     1      49.290  18.391  79.653  0.00  0.00    +0.000 A 
ATOM     11  N   UNL     1      51.831  20.882  80.169  0.00  0.00    +0.000 N 
ATOM     12  H   UNL     1      51.731  21.659  80.815  0.00  0.00    +0.000 HD
ENDROOT
BRANCH  11  13
ATOM     13  C   UNL     1      52.363  21.295  78.927  0.00  0.00    +0.000 A 
ATOM     14  C   UNL     1      52.407  20.377  77.871  0.00  0.00    +0.000 A 
ATOM     15  C   UNL     1      52.824  20.767  76.600  0.00  0.00    +0.000 A 
ATOM     16 CL   UNL     1      52.889  19.589  75.352  0.00  0.00    +0.000 Cl
ATOM     17  C   UNL     1      53.177  22.091  76.364  0.00  0.00    +0.000 A 
ATOM     18  F   UNL     1      53.581  22.485  75.147  0.00  0.00    +0.000 F 
ATOM     19  C   UNL     1      53.105  23.029  77.385  0.00  0.00    +0.000 A 
ATOM     20  C   UNL     1      52.683  22.629  78.651  0.00  0.00    +0.000 A 
ENDBRANCH  11  13
BRANCH   6  21
ATOM     21  O   UNL     1      49.816  18.122  85.601  0.00  0.00    +0.000 OA
ATOM     22  C   UNL     1      48.566  18.462  86.133  0.00  0.00    +0.000 C 
ENDBRANCH   6  21
BRANCH   3  23
ATOM     23  O   UNL     1      51.658  20.011  85.253  0.00  0.00    +0.000 OA
BRANCH  23  24
ATOM     24  C   UNL     1      51.341  21.262  85.581  0.00  0.00    +0.000 C 
ATOM     25  C   UNL     1      50.960  22.698  85.955  0.00  0.00    +0.000 C 
BRANCH  25  26
ATOM     26  C   UNL     1      50.544  24.125  86.327  0.00  0.00    +0.000 C 
BRANCH  26  27
ATOM     27  N   UNL     1      50.135  25.478  86.679  0.00  0.00    +0.000 N 
ATOM     28  C   UNL     1      49.095  25.883  85.685  0.00  0.00    +0.000 C 
ATOM     29  C   UNL     1      47.561  26.089  85.900  0.00  0.00    +0.000 C 
ATOM     30  O   UNL     1      46.726  25.975  86.957  0.00  0.00    +0.000 OA
ATOM     31  C   UNL     1      47.663  25.608  87.854  0.00  0.00    +0.000 C 
ATOM     32  C   UNL     1      49.201  25.355  87.838  0.00  0.00    +0.000 C 
ENDBRANCH  26  27
ENDBRANCH  25  26
ENDBRANCH  23  24
ENDBRANCH   3  23
TORSDOF 6
ENDMDL
MODEL 5
REMARK VINA RESULT:      -5.2      3.145      3.972
REMARK  Name = Gefitinib.pdbqt.pdb
REMARK  6 active torsions:
REMARK  status: ('A' for Active; 'I' for Inactive)
REMARK    1  A    between atoms: C_3  and  O_11
REMARK    2  A    between atoms: C_6  and  O_21
REMARK    3  A    between atoms: O_11  and  C_12
REMARK    4  A    between atoms: C_13  and  C_14
REMARK    5  A    between atoms: C_14  and  N_15
REMARK    6  A    between atoms: N_23  and  C_25
REMARK                            x       y       z     vdW  Elec       q    Type
REMARK                         _______ _______ _______ _____ _____    ______ ____
ROOT
ATOM      1  N   UNL     1      60.552  30.414  72.180  0.00  0.00    +0.000 NA
ATOM      2  N   UNL     1      60.168  32.317  73.561  0.00  0.00    +0.000 NA
ATOM      3  C   UNL     1      59.428  32.543  68.788  0.00  0.00    +0.000 A 
ATOM      4  C   UNL     1      59.810  32.466  71.201  0.00  0.00    +0.000 A 
ATOM      5  C   UNL     1      59.429  33.159  70.039  0.00  0.00    +0.000 A 
ATOM      6  C   UNL     1      59.820  31.207  68.693  0.00  0.00    +0.000 A 
ATOM      7  C   UNL     1      60.193  31.125  71.111  0.00  0.00    +0.000 A 
ATOM      8  C   UNL     1      60.192  30.526  69.858  0.00  0.00    +0.000 A 
ATOM      9  C   UNL     1      59.823  33.036  72.481  0.00  0.00    +0.000 A 
ATOM     10  C   UNL     1      60.519  31.041  73.363  0.00  0.00    +0.000 A 
ATOM     11  N   UNL     1      59.423  34.388  72.636  0.00  0.00    +0.000 N 
ATOM     12  H   UNL     1      59.861  34.981  71.938  0.00  0.00    +0.000 HD
ENDROOT
BRANCH  11  13
ATOM     13  C   UNL     1      59.171  35.086  73.838  0.00  0.00    +0.000 A 
ATOM     14  C   UNL     1      57.846  35.354  74.201  0.00  0.00    +0.000 A 
ATOM     15  C   UNL     1      57.544  35.946  75.425  0.00  0.00    +0.000 A 
ATOM     16 CL   UNL     1      55.902  36.280  75.801  0.00  0.00    +0.000 Cl
ATOM     17  C   UNL     1      58.567  36.251  76.317  0.00  0.00    +0.000 A 
ATOM     18  F   UNL     1      58.296  36.821  77.500  0.00  0.00    +0.000 F 
ATOM     19  C   UNL     1      59.886  35.960  75.997  0.00  0.00    +0.000 A 
ATOM     20  C   UNL     1      60.176  35.365  74.771  0.00  0.00    +0.000 A 
ENDBRANCH  11  13
BRANCH   6  21
ATOM     21  O   UNL     1      59.803  30.638  67.442  0.00  0.00    +0.000 OA
ATOM     22  C   UNL     1      58.707  29.811  67.166  0.00  0.00    +0.000 C 
ENDBRANCH   6  21
BRANCH   3  23
ATOM     23  O   UNL     1      59.063  33.187  67.630  0.00  0.00    +0.000 OA
BRANCH  23  24
ATOM     24  C   UNL     1      59.923  34.114  67.214  0.00  0.00    +0.000 C 
ATOM     25  C   UNL     1      60.902  35.194  66.742  0.00  0.00    +0.000 C 
BRANCH  25  26
ATOM     26  C   UNL     1      61.863  36.298  66.288  0.00  0.00    +0.000 C 
BRANCH  26  27
ATOM     27  N   UNL     1      62.779  37.351  65.871  0.00  0.00    +0.000 N 
ATOM     28  C   UNL     1      61.969  38.602  65.760  0.00  0.00    +0.000 C 
ATOM     29  C   UNL     1      61.997  39.872  66.671  0.00  0.00    +0.000 C 
ATOM     30  O   UNL     1      62.692  40.235  67.772  0.00  0.00    +0.000 OA
ATOM     31  C   UNL     1      63.422  39.107  67.873  0.00  0.00    +0.000 C 
ATOM     32  C   UNL     1      63.539  37.765  67.088  0.00  0.00    +0.000 C 
ENDBRANCH  26  27
ENDBRANCH  25  26
ENDBRANCH  23  24
ENDBRANCH   3  23
TORSDOF 6
ENDMDL
MODEL 6
REMARK VINA RESULT:      -5.2     53.897     55.868
REMARK  Name = Gefitinib.pdbqt.pdb
REMARK  6 active torsions:
REMARK  status: ('A' for Active; 'I' for Inactive)
REMARK    1  A    between atoms: C_3  and  O_11
REMARK    2  A    between atoms: C_6  and  O_21
REMARK    3  A    between atoms: O_11  and  C_12
REMARK    4  A    between atoms: C_13  and  C_14
REMARK    5  A    between atoms: C_14  and  N_15
REMARK    6  A    between atoms: N_23  and  C_25
REMARK                            x       y       z     vdW  Elec       q    Type
REMARK                         _______ _______ _______ _____ _____    ______ ____
ROOT
ATOM      1  N   UNL     1      17.549  14.265 100.943  0.00  0.00    +0.000 NA
ATOM      2  N   UNL     1      16.033  12.491 100.464  0.00  0.00    +0.000 NA
ATOM      3  C   UNL     1      20.811  11.788 100.215  0.00  0.00    +0.000 A 
ATOM      4  C   UNL     1      18.391  12.117 100.314  0.00  0.00    +0.000 A 
ATOM      5  C   UNL     1      19.511  11.300 100.080  0.00  0.00    +0.000 A 
ATOM      6  C   UNL     1      20.996  13.120 100.587  0.00  0.00    +0.000 A 
ATOM      7  C   UNL     1      18.573  13.448 100.696  0.00  0.00    +0.000 A 
ATOM      8  C   UNL     1      19.872  13.922 100.821  0.00  0.00    +0.000 A 
ATOM      9  C   UNL     1      17.065  11.675 100.199  0.00  0.00    +0.000 A 
ATOM     10  C   UNL     1      16.320  13.748 100.821  0.00  0.00    +0.000 A 
ATOM     11  N   UNL     1      16.820  10.326  99.836  0.00  0.00    +0.000 N 
ATOM     12  H   UNL     1      17.396  10.049  99.046  0.00  0.00    +0.000 HD
ENDROOT
BRANCH  11  13
ATOM     13  C   UNL     1      15.590   9.631  99.860  0.00  0.00    +0.000 A 
ATOM     14  C   UNL     1      15.152   8.989  98.695  0.00  0.00    +0.000 A 
ATOM     15  C   UNL     1      14.000   8.206  98.699  0.00  0.00    +0.000 A 
ATOM     16 CL   UNL     1      13.494   7.470  97.231  0.00  0.00    +0.000 Cl
ATOM     17  C   UNL     1      13.286   8.032  99.879  0.00  0.00    +0.000 A 
ATOM     18  F   UNL     1      12.175   7.282  99.903  0.00  0.00    +0.000 F 
ATOM     19  C   UNL     1      13.721   8.626 101.056  0.00  0.00    +0.000 A 
ATOM     20  C   UNL     1      14.876   9.405 101.042  0.00  0.00    +0.000 A 
ENDBRANCH  11  13
BRANCH   6  21
ATOM     21  O   UNL     1      22.293  13.560 100.709  0.00  0.00    +0.000 OA
ATOM     22  C   UNL     1      22.472  14.948 100.652  0.00  0.00    +0.000 C 
ENDBRANCH   6  21
BRANCH   3  23
ATOM     23  O   UNL     1      21.931  11.023  99.996  0.00  0.00    +0.000 OA
BRANCH  23  24
ATOM     24  C   UNL     1      21.806   9.743 100.340  0.00  0.00    +0.000 C 
ATOM     25  C   UNL     1      21.649   8.274 100.749  0.00  0.00    +0.000 C 
BRANCH  25  26
ATOM     26  C   UNL     1      21.464   6.814 101.176  0.00  0.00    +0.000 C 
BRANCH  26  27
ATOM     27  N   UNL     1      21.301   5.424 101.579  0.00  0.00    +0.000 N 
ATOM     28  C   UNL     1      19.967   5.325 102.244  0.00  0.00    +0.000 C 
ATOM     29  C   UNL     1      18.666   4.622 101.734  0.00  0.00    +0.000 C 
ATOM     30  O   UNL     1      18.334   3.936 100.618  0.00  0.00    +0.000 OA
ATOM     31  C   UNL     1      19.537   4.026 100.018  0.00  0.00    +0.000 C 
ATOM     32  C   UNL     1      20.919   4.664 100.352  0.00  0.00    +0.000 C 
ENDBRANCH  26  27
ENDBRANCH  25  26
ENDBRANCH  23  24
ENDBRANCH   3  23
TORSDOF 6
ENDMDL
MODEL 7
REMARK VINA RESULT:      -5.1     60.799     62.625
REMARK  Name = Gefitinib.pdbqt.pdb
REMARK  6 active torsions:
REMARK  status: ('A' for Active; 'I' for Inactive)
REMARK    1  A    between atoms: C_3  and  O_11
REMARK    2  A    between atoms: C_6  and  O_21
REMARK    3  A    between atoms: O_11  and  C_12
REMARK    4  A    between atoms: C_13  and  C_14
REMARK    5  A    between atoms: C_14  and  N_15
REMARK    6  A    between atoms: N_23  and  C_25
REMARK                            x       y       z     vdW  Elec       q    Type
REMARK                         _______ _______ _______ _____ _____    ______ ____
ROOT
ATOM      1  N   UNL     1       9.211   9.094 101.571  0.00  0.00    +0.000 NA
ATOM      2  N   UNL     1      11.095   8.753 100.152  0.00  0.00    +0.000 NA
ATOM      3  C   UNL     1       9.963   5.524 103.570  0.00  0.00    +0.000 A 
ATOM      4  C   UNL     1      10.572   7.146 101.846  0.00  0.00    +0.000 A 
ATOM      5  C   UNL     1      10.799   5.942 102.534  0.00  0.00    +0.000 A 
ATOM      6  C   UNL     1       8.881   6.328 103.930  0.00  0.00    +0.000 A 
ATOM      7  C   UNL     1       9.483   7.948 102.196  0.00  0.00    +0.000 A 
ATOM      8  C   UNL     1       8.663   7.523 103.233  0.00  0.00    +0.000 A 
ATOM      9  C   UNL     1      11.376   7.608 100.795  0.00  0.00    +0.000 A 
ATOM     10  C   UNL     1      10.028   9.444 100.570  0.00  0.00    +0.000 A 
ATOM     11  N   UNL     1      12.483   6.824 100.380  0.00  0.00    +0.000 N 
ATOM     12  H   UNL     1      13.025   6.506 101.178  0.00  0.00    +0.000 HD
ENDROOT
BRANCH  11  13
ATOM     13  C   UNL     1      13.288   6.998  99.233  0.00  0.00    +0.000 A 
ATOM     14  C   UNL     1      13.335   5.975  98.278  0.00  0.00    +0.000 A 
ATOM     15  C   UNL     1      14.030   6.143  97.083  0.00  0.00    +0.000 A 
ATOM     16 CL   UNL     1      14.080   4.841  95.963  0.00  0.00    +0.000 Cl
ATOM     17  C   UNL     1      14.665   7.351  96.815  0.00  0.00    +0.000 A 
ATOM     18  F   UNL     1      15.340   7.532  95.670  0.00  0.00    +0.000 F 
ATOM     19  C   UNL     1      14.602   8.394  97.729  0.00  0.00    +0.000 A 
ATOM     20  C   UNL     1      13.901   8.217  98.920  0.00  0.00    +0.000 A 
ENDBRANCH  11  13
BRANCH   6  21
ATOM     21  O   UNL     1       8.082   5.879 104.955  0.00  0.00    +0.000 OA
ATOM     22  C   UNL     1       6.748   6.301 104.914  0.00  0.00    +0.000 C 
ENDBRANCH   6  21
BRANCH   3  23
ATOM     23  O   UNL     1      10.152   4.355 104.267  0.00  0.00    +0.000 OA
BRANCH  23  24
ATOM     24  C   UNL     1      10.816   3.412 103.601  0.00  0.00    +0.000 C 
ATOM     25  C   UNL     1      11.588   2.340 102.826  0.00  0.00    +0.000 C 
BRANCH  25  26
ATOM     26  C   UNL     1      12.381   1.293 102.036  0.00  0.00    +0.000 C 
BRANCH  26  27
ATOM     27  N   UNL     1      13.123   0.288 101.287  0.00  0.00    +0.000 N 
ATOM     28  C   UNL     1      12.725   0.443  99.854  0.00  0.00    +0.000 C 
ATOM     29  C   UNL     1      13.570   0.984  98.655  0.00  0.00    +0.000 C 
ATOM     30  O   UNL     1      14.828   1.459  98.517  0.00  0.00    +0.000 OA
ATOM     31  C   UNL     1      15.187   1.320  99.809  0.00  0.00    +0.000 C 
ATOM     32  C   UNL     1      14.511   0.816 101.120  0.00  0.00    +0.000 C 
ENDBRANCH  26  27
ENDBRANCH  25  26
ENDBRANCH  23  24
ENDBRANCH   3  23
TORSDOF 6
ENDMDL
MODEL 8
REMARK VINA RESULT:      -5.0     16.726     20.049
REMARK  Name = Gefitinib.pdbqt.pdb
REMARK  6 active torsions:
REMARK  status: ('A' for Active; 'I' for Inactive)
REMARK    1  A    between atoms: C_3  and  O_11
REMARK    2  A    between atoms: C_6  and  O_21
REMARK    3  A    between atoms: O_11  and  C_12
REMARK    4  A    between atoms: C_13  and  C_14
REMARK    5  A    between atoms: C_14  and  N_15
REMARK    6  A    between atoms: N_23  and  C_25
REMARK                            x       y       z     vdW  Elec       q    Type
REMARK                         _______ _______ _______ _____ _____    ______ ____
ROOT
ATOM      1  N   UNL     1      49.207  18.358  81.229  0.00  0.00    +0.000 NA
ATOM      2  N   UNL     1      50.292  19.604  79.513  0.00  0.00    +0.000 NA
ATOM      3  C   UNL     1      52.233  19.279  83.931  0.00  0.00    +0.000 A 
ATOM      4  C   UNL     1      51.268  19.477  81.693  0.00  0.00    +0.000 A 
ATOM      5  C   UNL     1      52.280  19.768  82.625  0.00  0.00    +0.000 A 
ATOM      6  C   UNL     1      51.151  18.487  84.316  0.00  0.00    +0.000 A 
ATOM      7  C   UNL     1      50.189  18.676  82.073  0.00  0.00    +0.000 A 
ATOM      8  C   UNL     1      50.152  18.201  83.377  0.00  0.00    +0.000 A 
ATOM      9  C   UNL     1      51.271  19.937  80.369  0.00  0.00    +0.000 A 
ATOM     10  C   UNL     1      49.305  18.832  79.981  0.00  0.00    +0.000 A 
ATOM     11  N   UNL     1      52.354  20.736  79.921  0.00  0.00    +0.000 N 
ATOM     12  H   UNL     1      52.570  21.468  80.591  0.00  0.00    +0.000 HD
ENDROOT
BRANCH  11  13
ATOM     13  C   UNL     1      52.653  21.129  78.598  0.00  0.00    +0.000 A 
ATOM     14  C   UNL     1      52.564  20.179  77.573  0.00  0.00    +0.000 A 
ATOM     15  C   UNL     1      52.747  20.543  76.241  0.00  0.00    +0.000 A 
ATOM     16 CL   UNL     1      52.658  19.327  75.031  0.00  0.00    +0.000 Cl
ATOM     17  C   UNL     1      52.993  21.872  75.915  0.00  0.00    +0.000 A 
ATOM     18  F   UNL     1      53.173  22.241  74.638  0.00  0.00    +0.000 F 
ATOM     19  C   UNL     1      53.049  22.840  76.909  0.00  0.00    +0.000 A 
ATOM     20  C   UNL     1      52.861  22.465  78.237  0.00  0.00    +0.000 A 
ENDBRANCH  11  13
BRANCH   6  21
ATOM     21  O   UNL     1      51.144  18.026  85.611  0.00  0.00    +0.000 OA
ATOM     22  C   UNL     1      50.111  18.510  86.423  0.00  0.00    +0.000 C 
ENDBRANCH   6  21
BRANCH   3  23
ATOM     23  O   UNL     1      53.202  19.541  84.870  0.00  0.00    +0.000 OA
BRANCH  23  24
ATOM     24  C   UNL     1      54.423  19.721  84.373  0.00  0.00    +0.000 C 
ATOM     25  C   UNL     1      55.823  19.933  83.785  0.00  0.00    +0.000 C 
BRANCH  25  26
ATOM     26  C   UNL     1      57.207  20.154  83.166  0.00  0.00    +0.000 C 
BRANCH  26  27
ATOM     27  N   UNL     1      58.517  20.363  82.565  0.00  0.00    +0.000 N 
ATOM     28  C   UNL     1      59.453  19.413  83.240  0.00  0.00    +0.000 C 
ATOM     29  C   UNL     1      60.140  18.135  82.659  0.00  0.00    +0.000 C 
ATOM     30  O   UNL     1      60.118  17.506  81.463  0.00  0.00    +0.000 OA
ATOM     31  C   UNL     1      59.273  18.362  80.854  0.00  0.00    +0.000 C 
ATOM     32  C   UNL     1      58.502  19.657  81.249  0.00  0.00    +0.000 C 
ENDBRANCH  26  27
ENDBRANCH  25  26
ENDBRANCH  23  24
ENDBRANCH   3  23
TORSDOF 6
ENDMDL
MODEL 9
REMARK VINA RESULT:      -4.9     58.079     59.863
REMARK  Name = Gefitinib.pdbqt.pdb
REMARK  6 active torsions:
REMARK  status: ('A' for Active; 'I' for Inactive)
REMARK    1  A    between atoms: C_3  and  O_11
REMARK    2  A    between atoms: C_6  and  O_21
REMARK    3  A    between atoms: O_11  and  C_12
REMARK    4  A    between atoms: C_13  and  C_14
REMARK    5  A    between atoms: C_14  and  N_15
REMARK    6  A    between atoms: N_23  and  C_25
REMARK                            x       y       z     vdW  Elec       q    Type
REMARK                         _______ _______ _______ _____ _____    ______ ____
ROOT
ATOM      1  N   UNL     1      13.158  12.685 104.392  0.00  0.00    +0.000 NA
ATOM      2  N   UNL     1      13.336  10.883 102.844  0.00  0.00    +0.000 NA
ATOM      3  C   UNL     1      11.883  15.258 101.382  0.00  0.00    +0.000 A 
ATOM      4  C   UNL     1      12.597  13.030 102.093  0.00  0.00    +0.000 A 
ATOM      5  C   UNL     1      12.170  13.923 101.094  0.00  0.00    +0.000 A 
ATOM      6  C   UNL     1      12.021  15.710 102.694  0.00  0.00    +0.000 A 
ATOM      7  C   UNL     1      12.745  13.483 103.407  0.00  0.00    +0.000 A 
ATOM      8  C   UNL     1      12.451  14.812 103.679  0.00  0.00    +0.000 A 
ATOM      9  C   UNL     1      12.903  11.683 101.857  0.00  0.00    +0.000 A 
ATOM     10  C   UNL     1      13.441  11.418 104.066  0.00  0.00    +0.000 A 
ATOM     11  N   UNL     1      12.792  11.174 100.538  0.00  0.00    +0.000 N 
ATOM     12  H   UNL     1      11.917  11.458 100.109  0.00  0.00    +0.000 HD
ENDROOT
BRANCH  11  13
ATOM     13  C   UNL     1      13.237   9.925 100.050  0.00  0.00    +0.000 A 
ATOM     14  C   UNL     1      12.468   8.784 100.308  0.00  0.00    +0.000 A 
ATOM     15  C   UNL     1      12.811   7.551  99.759  0.00  0.00    +0.000 A 
ATOM     16 CL   UNL     1      11.847   6.180 100.139  0.00  0.00    +0.000 Cl
ATOM     17  C   UNL     1      13.915   7.449  98.920  0.00  0.00    +0.000 A 
ATOM     18  F   UNL     1      14.261   6.270  98.383  0.00  0.00    +0.000 F 
ATOM     19  C   UNL     1      14.672   8.573  98.618  0.00  0.00    +0.000 A 
ATOM     20  C   UNL     1      14.318   9.803  99.169  0.00  0.00    +0.000 A 
ENDBRANCH  11  13
BRANCH   6  21
ATOM     21  O   UNL     1      11.729  17.032 102.933  0.00  0.00    +0.000 OA
ATOM     22  C   UNL     1      10.584  17.271 103.703  0.00  0.00    +0.000 C 
ENDBRANCH   6  21
BRANCH   3  23
ATOM     23  O   UNL     1      11.464  16.160 100.434  0.00  0.00    +0.000 OA
BRANCH  23  24
ATOM     24  C   UNL     1      10.274  15.894  99.900  0.00  0.00    +0.000 C 
ATOM     25  C   UNL     1       8.897  15.584  99.303  0.00  0.00    +0.000 C 
BRANCH  25  26
ATOM     26  C   UNL     1       7.506  15.275  98.738  0.00  0.00    +0.000 C 
BRANCH  26  27
ATOM     27  N   UNL     1       6.189  14.967  98.199  0.00  0.00    +0.000 N 
ATOM     28  C   UNL     1       6.339  14.908  96.713  0.00  0.00    +0.000 C 
ATOM     29  C   UNL     1       6.271  13.663  95.769  0.00  0.00    +0.000 C 
ATOM     30  O   UNL     1       6.079  12.339  95.957  0.00  0.00    +0.000 OA
ATOM     31  C   UNL     1       5.945  12.391  97.297  0.00  0.00    +0.000 C 
ATOM     32  C   UNL     1       5.979  13.500  98.391  0.00  0.00    +0.000 C 
ENDBRANCH  26  27
ENDBRANCH  25  26
ENDBRANCH  23  24
ENDBRANCH   3  23
TORSDOF 6
ENDMDL
