MODEL 1
REMARK VINA RESULT:      -7.1      0.000      0.000
REMARK  Name = Genistein.pdbqt.pdb
REMARK  4 active torsions:
REMARK  status: ('A' for Active; 'I' for Inactive)
REMARK    1  A    between atoms: C_4  and  C_12
REMARK    2  A    between atoms: C_7  and  O_20
REMARK    3  A    between atoms: C_11  and  O_22
REMARK    4  A    between atoms: C_17  and  O_18
REMARK                            x       y       z     vdW  Elec       q    Type
REMARK                         _______ _______ _______ _____ _____    ______ ____
ROOT
ATOM      1  O   UNL     1      57.864  38.115  78.377  0.00  0.00    +0.000 OA
ATOM      2  O   UNL     1      55.543  36.424  75.334  0.00  0.00    +0.000 OA
ATOM      3  C   UNL     1      56.368  36.310  77.562  0.00  0.00    +0.000 A 
ATOM      4  C   UNL     1      56.990  38.233  76.021  0.00  0.00    +0.000 A 
ATOM      5  C   UNL     1      57.170  36.922  78.569  0.00  0.00    +0.000 A 
ATOM      6  C   UNL     1      56.233  36.951  76.200  0.00  0.00    +0.000 A 
ATOM      7  C   UNL     1      55.707  35.112  77.848  0.00  0.00    +0.000 A 
ATOM      8  C   UNL     1      57.602  38.483  77.135  0.00  0.00    +0.000 A 
ATOM      9  C   UNL     1      57.295  36.332  79.824  0.00  0.00    +0.000 A 
ATOM     10  C   UNL     1      55.837  34.527  79.106  0.00  0.00    +0.000 A 
ATOM     11  C   UNL     1      56.625  35.140  80.079  0.00  0.00    +0.000 A 
ENDROOT
BRANCH   4  12
ATOM     12  C   UNL     1      57.041  39.060  74.817  0.00  0.00    +0.000 A 
ATOM     13  C   UNL     1      58.197  39.128  74.036  0.00  0.00    +0.000 A 
ATOM     14  C   UNL     1      55.925  39.805  74.419  0.00  0.00    +0.000 A 
ATOM     15  C   UNL     1      58.246  39.915  72.888  0.00  0.00    +0.000 A 
ATOM     16  C   UNL     1      55.960  40.598  73.272  0.00  0.00    +0.000 A 
ATOM     17  C   UNL     1      57.123  40.645  72.515  0.00  0.00    +0.000 A 
BRANCH  17  18
ATOM     18  O   UNL     1      57.139  41.426  71.397  0.00  0.00    +0.000 OA
ATOM     19  H   UNL     1      56.619  40.978  70.706  0.00  0.00    +0.000 HD
ENDBRANCH  17  18
ENDBRANCH   4  12
BRANCH   7  20
ATOM     20  O   UNL     1      54.917  34.454  76.945  0.00  0.00    +0.000 OA
ATOM     21  H   UNL     1      53.975  34.571  77.206  0.00  0.00    +0.000 HD
ENDBRANCH   7  20
BRANCH  11  22
ATOM     22  O   UNL     1      56.759  34.576  81.315  0.00  0.00    +0.000 OA
ATOM     23  H   UNL     1      57.627  34.137  81.356  0.00  0.00    +0.000 HD
ENDBRANCH  11  22
TORSDOF 4
ENDMDL
MODEL 2
REMARK VINA RESULT:      -6.4      1.748      6.966
REMARK  Name = Genistein.pdbqt.pdb
REMARK  4 active torsions:
REMARK  status: ('A' for Active; 'I' for Inactive)
REMARK    1  A    between atoms: C_4  and  C_12
REMARK    2  A    between atoms: C_7  and  O_20
REMARK    3  A    between atoms: C_11  and  O_22
REMARK    4  A    between atoms: C_17  and  O_18
REMARK                            x       y       z     vdW  Elec       q    Type
REMARK                         _______ _______ _______ _____ _____    ______ ____
ROOT
ATOM      1  O   UNL     1      56.707  36.447  74.064  0.00  0.00    +0.000 OA
ATOM      2  O   UNL     1      56.551  38.536  77.686  0.00  0.00    +0.000 OA
ATOM      3  C   UNL     1      56.314  38.552  75.320  0.00  0.00    +0.000 A 
ATOM      4  C   UNL     1      56.956  36.434  76.567  0.00  0.00    +0.000 A 
ATOM      5  C   UNL     1      56.380  37.801  74.109  0.00  0.00    +0.000 A 
ATOM      6  C   UNL     1      56.607  37.890  76.646  0.00  0.00    +0.000 A 
ATOM      7  C   UNL     1      55.977  39.907  75.266  0.00  0.00    +0.000 A 
ATOM      8  C   UNL     1      56.918  36.090  75.319  0.00  0.00    +0.000 A 
ATOM      9  C   UNL     1      56.110  38.412  72.887  0.00  0.00    +0.000 A 
ATOM     10  C   UNL     1      55.709  40.511  74.039  0.00  0.00    +0.000 A 
ATOM     11  C   UNL     1      55.777  39.762  72.866  0.00  0.00    +0.000 A 
ENDROOT
BRANCH   4  12
ATOM     12  C   UNL     1      57.283  35.549  77.684  0.00  0.00    +0.000 A 
ATOM     13  C   UNL     1      58.606  35.363  78.094  0.00  0.00    +0.000 A 
ATOM     14  C   UNL     1      56.272  34.867  78.371  0.00  0.00    +0.000 A 
ATOM     15  C   UNL     1      58.919  34.521  79.159  0.00  0.00    +0.000 A 
ATOM     16  C   UNL     1      56.572  34.021  79.438  0.00  0.00    +0.000 A 
ATOM     17  C   UNL     1      57.895  33.856  79.823  0.00  0.00    +0.000 A 
BRANCH  17  18
ATOM     18  O   UNL     1      58.168  33.024  80.869  0.00  0.00    +0.000 OA
ATOM     19  H   UNL     1      58.510  32.185  80.511  0.00  0.00    +0.000 HD
ENDBRANCH  17  18
ENDBRANCH   4  12
BRANCH   7  20
ATOM     20  O   UNL     1      55.889  40.706  76.374  0.00  0.00    +0.000 OA
ATOM     21  H   UNL     1      54.945  40.768  76.645  0.00  0.00    +0.000 HD
ENDBRANCH   7  20
BRANCH  11  22
ATOM     22  O   UNL     1      55.516  40.343  71.659  0.00  0.00    +0.000 OA
ATOM     23  H   UNL     1      55.835  41.262  71.688  0.00  0.00    +0.000 HD
ENDBRANCH  11  22
TORSDOF 4
ENDMDL
MODEL 3
REMARK VINA RESULT:      -6.0     55.506     58.483
REMARK  Name = Genistein.pdbqt.pdb
REMARK  4 active torsions:
REMARK  status: ('A' for Active; 'I' for Inactive)
REMARK    1  A    between atoms: C_4  and  C_12
REMARK    2  A    between atoms: C_7  and  O_20
REMARK    3  A    between atoms: C_11  and  O_22
REMARK    4  A    between atoms: C_17  and  O_18
REMARK                            x       y       z     vdW  Elec       q    Type
REMARK                         _______ _______ _______ _____ _____    ______ ____
ROOT
ATOM      1  O   UNL     1      12.288   5.825  99.791  0.00  0.00    +0.000 OA
ATOM      2  O   UNL     1      14.876   5.448  96.525  0.00  0.00    +0.000 OA
ATOM      3  C   UNL     1      13.858   6.843  98.160  0.00  0.00    +0.000 A 
ATOM      4  C   UNL     1      13.367   4.352  98.061  0.00  0.00    +0.000 A 
ATOM      5  C   UNL     1      12.967   6.924  99.271  0.00  0.00    +0.000 A 
ATOM      6  C   UNL     1      14.110   5.518  97.480  0.00  0.00    +0.000 A 
ATOM      7  C   UNL     1      14.495   8.002  97.709  0.00  0.00    +0.000 A 
ATOM      8  C   UNL     1      12.657   4.794  99.050  0.00  0.00    +0.000 A 
ATOM      9  C   UNL     1      12.734   8.146  99.898  0.00  0.00    +0.000 A 
ATOM     10  C   UNL     1      14.257   9.221  98.341  0.00  0.00    +0.000 A 
ATOM     11  C   UNL     1      13.384   9.282  99.425  0.00  0.00    +0.000 A 
ENDROOT
BRANCH   4  12
ATOM     12  C   UNL     1      13.420   2.964  97.605  0.00  0.00    +0.000 A 
ATOM     13  C   UNL     1      13.102   2.624  96.288  0.00  0.00    +0.000 A 
ATOM     14  C   UNL     1      13.794   1.941  98.484  0.00  0.00    +0.000 A 
ATOM     15  C   UNL     1      13.152   1.301  95.852  0.00  0.00    +0.000 A 
ATOM     16  C   UNL     1      13.848   0.613  98.062  0.00  0.00    +0.000 A 
ATOM     17  C   UNL     1      13.526   0.305  96.746  0.00  0.00    +0.000 A 
BRANCH  17  18
ATOM     18  O   UNL     1      13.586  -1.000  96.352  0.00  0.00    +0.000 OA
ATOM     19  H   UNL     1      12.769  -1.443  96.642  0.00  0.00    +0.000 HD
ENDBRANCH  17  18
ENDBRANCH   4  12
BRANCH   7  20
ATOM     20  O   UNL     1      15.365   8.020  96.652  0.00  0.00    +0.000 OA
ATOM     21  H   UNL     1      14.846   8.069  95.817  0.00  0.00    +0.000 HD
ENDBRANCH   7  20
BRANCH  11  22
ATOM     22  O   UNL     1      13.143  10.470 100.052  0.00  0.00    +0.000 OA
ATOM     23  H   UNL     1      13.939  10.714 100.556  0.00  0.00    +0.000 HD
ENDBRANCH  11  22
TORSDOF 4
ENDMDL
MODEL 4
REMARK VINA RESULT:      -5.8      3.877      4.658
REMARK  Name = Genistein.pdbqt.pdb
REMARK  4 active torsions:
REMARK  status: ('A' for Active; 'I' for Inactive)
REMARK    1  A    between atoms: C_4  and  C_12
REMARK    2  A    between atoms: C_7  and  O_20
REMARK    3  A    between atoms: C_11  and  O_22
REMARK    4  A    between atoms: C_17  and  O_18
REMARK                            x       y       z     vdW  Elec       q    Type
REMARK                         _______ _______ _______ _____ _____    ______ ____
ROOT
ATOM      1  O   UNL     1      59.666  35.454  79.309  0.00  0.00    +0.000 OA
ATOM      2  O   UNL     1      57.715  36.184  75.680  0.00  0.00    +0.000 OA
ATOM      3  C   UNL     1      57.619  36.084  78.054  0.00  0.00    +0.000 A 
ATOM      4  C   UNL     1      59.764  35.562  76.797  0.00  0.00    +0.000 A 
ATOM      5  C   UNL     1      58.324  35.825  79.267  0.00  0.00    +0.000 A 
ATOM      6  C   UNL     1      58.321  35.962  76.722  0.00  0.00    +0.000 A 
ATOM      7  C   UNL     1      56.271  36.451  78.112  0.00  0.00    +0.000 A 
ATOM      8  C   UNL     1      60.063  35.412  78.049  0.00  0.00    +0.000 A 
ATOM      9  C   UNL     1      57.676  35.937  80.494  0.00  0.00    +0.000 A 
ATOM     10  C   UNL     1      55.630  36.560  79.344  0.00  0.00    +0.000 A 
ATOM     11  C   UNL     1      56.335  36.304  80.519  0.00  0.00    +0.000 A 
ENDROOT
BRANCH   4  12
ATOM     12  C   UNL     1      60.680  35.369  75.675  0.00  0.00    +0.000 A 
ATOM     13  C   UNL     1      61.493  36.410  75.220  0.00  0.00    +0.000 A 
ATOM     14  C   UNL     1      60.763  34.130  75.029  0.00  0.00    +0.000 A 
ATOM     15  C   UNL     1      62.367  36.228  74.150  0.00  0.00    +0.000 A 
ATOM     16  C   UNL     1      61.632  33.934  73.957  0.00  0.00    +0.000 A 
ATOM     17  C   UNL     1      62.429  34.987  73.526  0.00  0.00    +0.000 A 
BRANCH  17  18
ATOM     18  O   UNL     1      63.274  34.775  72.476  0.00  0.00    +0.000 OA
ATOM     19  H   UNL     1      63.248  35.561  71.902  0.00  0.00    +0.000 HD
ENDBRANCH  17  18
ENDBRANCH   4  12
BRANCH   7  20
ATOM     20  O   UNL     1      55.516  36.718  77.002  0.00  0.00    +0.000 OA
ATOM     21  H   UNL     1      55.879  37.518  76.558  0.00  0.00    +0.000 HD
ENDBRANCH   7  20
BRANCH  11  22
ATOM     22  O   UNL     1      55.717  36.409  81.732  0.00  0.00    +0.000 OA
ATOM     23  H   UNL     1      54.919  35.851  81.716  0.00  0.00    +0.000 HD
ENDBRANCH  11  22
TORSDOF 4
ENDMDL
MODEL 5
REMARK VINA RESULT:      -5.8     16.714     19.711
REMARK  Name = Genistein.pdbqt.pdb
REMARK  4 active torsions:
REMARK  status: ('A' for Active; 'I' for Inactive)
REMARK    1  A    between atoms: C_4  and  C_12
REMARK    2  A    between atoms: C_7  and  O_20
REMARK    3  A    between atoms: C_11  and  O_22
REMARK    4  A    between atoms: C_17  and  O_18
REMARK                            x       y       z     vdW  Elec       q    Type
REMARK                         _______ _______ _______ _____ _____    ______ ____
ROOT
ATOM      1  O   UNL     1      52.794  17.404  78.579  0.00  0.00    +0.000 OA
ATOM      2  O   UNL     1      50.316  19.013  75.616  0.00  0.00    +0.000 OA
ATOM      3  C   UNL     1      50.878  17.175  77.017  0.00  0.00    +0.000 A 
ATOM      4  C   UNL     1      52.197  19.346  77.096  0.00  0.00    +0.000 A 
ATOM      5  C   UNL     1      51.748  16.668  78.028  0.00  0.00    +0.000 A 
ATOM      6  C   UNL     1      51.063  18.577  76.485  0.00  0.00    +0.000 A 
ATOM      7  C   UNL     1      49.854  16.362  76.525  0.00  0.00    +0.000 A 
ATOM      8  C   UNL     1      52.764  18.577  77.971  0.00  0.00    +0.000 A 
ATOM      9  C   UNL     1      51.577  15.375  78.517  0.00  0.00    +0.000 A 
ATOM     10  C   UNL     1      49.690  15.069  77.020  0.00  0.00    +0.000 A 
ATOM     11  C   UNL     1      50.548  14.590  78.007  0.00  0.00    +0.000 A 
ENDROOT
BRANCH   4  12
ATOM     12  C   UNL     1      52.603  20.712  76.774  0.00  0.00    +0.000 A 
ATOM     13  C   UNL     1      52.704  21.689  77.768  0.00  0.00    +0.000 A 
ATOM     14  C   UNL     1      52.902  21.073  75.455  0.00  0.00    +0.000 A 
ATOM     15  C   UNL     1      53.092  22.992  77.462  0.00  0.00    +0.000 A 
ATOM     16  C   UNL     1      53.291  22.373  75.135  0.00  0.00    +0.000 A 
ATOM     17  C   UNL     1      53.383  23.323  76.144  0.00  0.00    +0.000 A 
BRANCH  17  18
ATOM     18  O   UNL     1      53.766  24.589  75.811  0.00  0.00    +0.000 OA
ATOM     19  H   UNL     1      53.388  25.203  76.465  0.00  0.00    +0.000 HD
ENDBRANCH  17  18
ENDBRANCH   4  12
BRANCH   7  20
ATOM     20  O   UNL     1      48.973  16.763  75.557  0.00  0.00    +0.000 OA
ATOM     21  H   UNL     1      49.028  17.742  75.467  0.00  0.00    +0.000 HD
ENDBRANCH   7  20
BRANCH  11  22
ATOM     22  O   UNL     1      50.397  13.326  78.500  0.00  0.00    +0.000 OA
ATOM     23  H   UNL     1      50.961  13.239  79.290  0.00  0.00    +0.000 HD
ENDBRANCH  11  22
TORSDOF 4
ENDMDL
MODEL 6
REMARK VINA RESULT:      -5.7      4.298      5.260
REMARK  Name = Genistein.pdbqt.pdb
REMARK  4 active torsions:
REMARK  status: ('A' for Active; 'I' for Inactive)
REMARK    1  A    between atoms: C_4  and  C_12
REMARK    2  A    between atoms: C_7  and  O_20
REMARK    3  A    between atoms: C_11  and  O_22
REMARK    4  A    between atoms: C_17  and  O_18
REMARK                            x       y       z     vdW  Elec       q    Type
REMARK                         _______ _______ _______ _____ _____    ______ ____
ROOT
ATOM      1  O   UNL     1      59.330  35.455  78.831  0.00  0.00    +0.000 OA
ATOM      2  O   UNL     1      59.303  36.357  74.746  0.00  0.00    +0.000 OA
ATOM      3  C   UNL     1      58.090  35.765  76.703  0.00  0.00    +0.000 A 
ATOM      4  C   UNL     1      60.610  36.082  76.758  0.00  0.00    +0.000 A 
ATOM      5  C   UNL     1      58.147  35.463  78.096  0.00  0.00    +0.000 A 
ATOM      6  C   UNL     1      59.352  36.099  75.943  0.00  0.00    +0.000 A 
ATOM      7  C   UNL     1      56.855  35.749  76.050  0.00  0.00    +0.000 A 
ATOM      8  C   UNL     1      60.285  35.769  77.973  0.00  0.00    +0.000 A 
ATOM      9  C   UNL     1      56.983  35.156  78.797  0.00  0.00    +0.000 A 
ATOM     10  C   UNL     1      55.695  35.440  76.758  0.00  0.00    +0.000 A 
ATOM     11  C   UNL     1      55.769  35.148  78.119  0.00  0.00    +0.000 A 
ENDROOT
BRANCH   4  12
ATOM     12  C   UNL     1      61.965  36.362  76.286  0.00  0.00    +0.000 A 
ATOM     13  C   UNL     1      63.025  35.501  76.581  0.00  0.00    +0.000 A 
ATOM     14  C   UNL     1      62.229  37.505  75.523  0.00  0.00    +0.000 A 
ATOM     15  C   UNL     1      64.316  35.768  76.130  0.00  0.00    +0.000 A 
ATOM     16  C   UNL     1      63.517  37.784  75.066  0.00  0.00    +0.000 A 
ATOM     17  C   UNL     1      64.551  36.911  75.375  0.00  0.00    +0.000 A 
BRANCH  17  18
ATOM     18  O   UNL     1      65.804  37.200  74.918  0.00  0.00    +0.000 OA
ATOM     19  H   UNL     1      66.440  36.997  75.626  0.00  0.00    +0.000 HD
ENDBRANCH  17  18
ENDBRANCH   4  12
BRANCH   7  20
ATOM     20  O   UNL     1      56.704  36.026  74.718  0.00  0.00    +0.000 OA
ATOM     21  H   UNL     1      56.527  36.988  74.613  0.00  0.00    +0.000 HD
ENDBRANCH   7  20
BRANCH  11  22
ATOM     22  O   UNL     1      54.639  34.845  78.823  0.00  0.00    +0.000 OA
ATOM     23  H   UNL     1      54.185  34.113  78.368  0.00  0.00    +0.000 HD
ENDBRANCH  11  22
TORSDOF 4
ENDMDL
MODEL 7
REMARK VINA RESULT:      -5.4      8.565      9.386
REMARK  Name = Genistein.pdbqt.pdb
REMARK  4 active torsions:
REMARK  status: ('A' for Active; 'I' for Inactive)
REMARK    1  A    between atoms: C_4  and  C_12
REMARK    2  A    between atoms: C_7  and  O_20
REMARK    3  A    between atoms: C_11  and  O_22
REMARK    4  A    between atoms: C_17  and  O_18
REMARK                            x       y       z     vdW  Elec       q    Type
REMARK                         _______ _______ _______ _____ _____    ______ ____
ROOT
ATOM      1  O   UNL     1      60.978  34.344  70.790  0.00  0.00    +0.000 OA
ATOM      2  O   UNL     1      59.587  30.450  71.428  0.00  0.00    +0.000 OA
ATOM      3  C   UNL     1      60.620  32.407  72.300  0.00  0.00    +0.000 A 
ATOM      4  C   UNL     1      59.885  32.273  69.871  0.00  0.00    +0.000 A 
ATOM      5  C   UNL     1      61.080  33.731  72.037  0.00  0.00    +0.000 A 
ATOM      6  C   UNL     1      59.982  31.588  71.202  0.00  0.00    +0.000 A 
ATOM      7  C   UNL     1      60.765  31.875  73.584  0.00  0.00    +0.000 A 
ATOM      8  C   UNL     1      60.399  33.455  70.002  0.00  0.00    +0.000 A 
ATOM      9  C   UNL     1      61.669  34.484  73.049  0.00  0.00    +0.000 A 
ATOM     10  C   UNL     1      61.356  32.635  74.592  0.00  0.00    +0.000 A 
ATOM     11  C   UNL     1      61.799  33.927  74.317  0.00  0.00    +0.000 A 
ENDROOT
BRANCH   4  12
ATOM     12  C   UNL     1      59.318  31.723  68.641  0.00  0.00    +0.000 A 
ATOM     13  C   UNL     1      58.617  32.533  67.744  0.00  0.00    +0.000 A 
ATOM     14  C   UNL     1      59.469  30.366  68.334  0.00  0.00    +0.000 A 
ATOM     15  C   UNL     1      58.078  32.009  66.571  0.00  0.00    +0.000 A 
ATOM     16  C   UNL     1      58.934  29.829  67.164  0.00  0.00    +0.000 A 
ATOM     17  C   UNL     1      58.242  30.657  66.291  0.00  0.00    +0.000 A 
BRANCH  17  18
ATOM     18  O   UNL     1      57.726  30.113  65.151  0.00  0.00    +0.000 OA
ATOM     19  H   UNL     1      57.802  30.772  64.438  0.00  0.00    +0.000 HD
ENDBRANCH  17  18
ENDBRANCH   4  12
BRANCH   7  20
ATOM     20  O   UNL     1      60.354  30.615  73.928  0.00  0.00    +0.000 OA
ATOM     21  H   UNL     1      61.148  30.060  74.101  0.00  0.00    +0.000 HD
ENDBRANCH   7  20
BRANCH  11  22
ATOM     22  O   UNL     1      62.378  34.682  75.296  0.00  0.00    +0.000 OA
ATOM     23  H   UNL     1      63.170  35.109  74.922  0.00  0.00    +0.000 HD
ENDBRANCH  11  22
TORSDOF 4
ENDMDL
MODEL 8
REMARK VINA RESULT:      -5.3     17.575     18.790
REMARK  Name = Genistein.pdbqt.pdb
REMARK  4 active torsions:
REMARK  status: ('A' for Active; 'I' for Inactive)
REMARK    1  A    between atoms: C_4  and  C_12
REMARK    2  A    between atoms: C_7  and  O_20
REMARK    3  A    between atoms: C_11  and  O_22
REMARK    4  A    between atoms: C_17  and  O_18
REMARK                            x       y       z     vdW  Elec       q    Type
REMARK                         _______ _______ _______ _____ _____    ______ ____
ROOT
ATOM      1  O   UNL     1      46.477  27.959  86.277  0.00  0.00    +0.000 OA
ATOM      2  O   UNL     1      46.548  24.224  84.393  0.00  0.00    +0.000 OA
ATOM      3  C   UNL     1      45.485  26.331  84.687  0.00  0.00    +0.000 A 
ATOM      4  C   UNL     1      47.599  25.729  85.962  0.00  0.00    +0.000 A 
ATOM      5  C   UNL     1      45.500  27.592  85.353  0.00  0.00    +0.000 A 
ATOM      6  C   UNL     1      46.561  25.307  84.965  0.00  0.00    +0.000 A 
ATOM      7  C   UNL     1      44.463  26.052  83.775  0.00  0.00    +0.000 A 
ATOM      8  C   UNL     1      47.297  26.925  86.358  0.00  0.00    +0.000 A 
ATOM      9  C   UNL     1      44.508  28.534  85.097  0.00  0.00    +0.000 A 
ATOM     10  C   UNL     1      43.474  27.000  83.524  0.00  0.00    +0.000 A 
ATOM     11  C   UNL     1      43.505  28.227  84.184  0.00  0.00    +0.000 A 
ENDROOT
BRANCH   4  12
ATOM     12  C   UNL     1      48.745  24.946  86.419  0.00  0.00    +0.000 A 
ATOM     13  C   UNL     1      49.813  24.663  85.563  0.00  0.00    +0.000 A 
ATOM     14  C   UNL     1      48.799  24.462  87.731  0.00  0.00    +0.000 A 
ATOM     15  C   UNL     1      50.906  23.917  85.997  0.00  0.00    +0.000 A 
ATOM     16  C   UNL     1      49.887  23.714  88.178  0.00  0.00    +0.000 A 
ATOM     17  C   UNL     1      50.934  23.448  87.305  0.00  0.00    +0.000 A 
BRANCH  17  18
ATOM     18  O   UNL     1      51.990  22.715  87.762  0.00  0.00    +0.000 OA
ATOM     19  H   UNL     1      51.922  21.818  87.389  0.00  0.00    +0.000 HD
ENDBRANCH  17  18
ENDBRANCH   4  12
BRANCH   7  20
ATOM     20  O   UNL     1      44.368  24.871  83.090  0.00  0.00    +0.000 OA
ATOM     21  H   UNL     1      43.923  24.207  83.665  0.00  0.00    +0.000 HD
ENDBRANCH   7  20
BRANCH  11  22
ATOM     22  O   UNL     1      42.541  29.164  83.946  0.00  0.00    +0.000 OA
ATOM     23  H   UNL     1      42.977  30.029  83.840  0.00  0.00    +0.000 HD
ENDBRANCH  11  22
TORSDOF 4
ENDMDL
MODEL 9
REMARK VINA RESULT:      -5.3     18.704     22.055
REMARK  Name = Genistein.pdbqt.pdb
REMARK  4 active torsions:
REMARK  status: ('A' for Active; 'I' for Inactive)
REMARK    1  A    between atoms: C_4  and  C_12
REMARK    2  A    between atoms: C_7  and  O_20
REMARK    3  A    between atoms: C_11  and  O_22
REMARK    4  A    between atoms: C_17  and  O_18
REMARK                            x       y       z     vdW  Elec       q    Type
REMARK                         _______ _______ _______ _____ _____    ______ ____
ROOT
ATOM      1  O   UNL     1      39.599  23.937  85.275  0.00  0.00    +0.000 OA
ATOM      2  O   UNL     1      41.287  24.684  81.520  0.00  0.00    +0.000 OA
ATOM      3  C   UNL     1      39.599  23.619  82.814  0.00  0.00    +0.000 A 
ATOM      4  C   UNL     1      41.383  25.063  83.904  0.00  0.00    +0.000 A 
ATOM      5  C   UNL     1      39.057  23.392  84.113  0.00  0.00    +0.000 A 
ATOM      6  C   UNL     1      40.822  24.489  82.637  0.00  0.00    +0.000 A 
ATOM      7  C   UNL     1      38.986  23.029  81.705  0.00  0.00    +0.000 A 
ATOM      8  C   UNL     1      40.642  24.648  84.883  0.00  0.00    +0.000 A 
ATOM      9  C   UNL     1      37.931  22.590  84.275  0.00  0.00    +0.000 A 
ATOM     10  C   UNL     1      37.859  22.227  81.875  0.00  0.00    +0.000 A 
ATOM     11  C   UNL     1      37.343  22.017  83.153  0.00  0.00    +0.000 A 
ENDROOT
BRANCH   4  12
ATOM     12  C   UNL     1      42.552  25.931  84.031  0.00  0.00    +0.000 A 
ATOM     13  C   UNL     1      42.437  27.226  84.544  0.00  0.00    +0.000 A 
ATOM     14  C   UNL     1      43.818  25.481  83.639  0.00  0.00    +0.000 A 
ATOM     15  C   UNL     1      43.551  28.054  84.666  0.00  0.00    +0.000 A 
ATOM     16  C   UNL     1      44.941  26.299  83.754  0.00  0.00    +0.000 A 
ATOM     17  C   UNL     1      44.797  27.581  84.268  0.00  0.00    +0.000 A 
BRANCH  17  18
ATOM     18  O   UNL     1      45.907  28.367  84.374  0.00  0.00    +0.000 OA
ATOM     19  H   UNL     1      45.726  29.212  83.925  0.00  0.00    +0.000 HD
ENDBRANCH  17  18
ENDBRANCH   4  12
BRANCH   7  20
ATOM     20  O   UNL     1      39.434  23.191  80.422  0.00  0.00    +0.000 OA
ATOM     21  H   UNL     1      40.406  23.346  80.444  0.00  0.00    +0.000 HD
ENDBRANCH   7  20
BRANCH  11  22
ATOM     22  O   UNL     1      36.239  21.234  83.332  0.00  0.00    +0.000 OA
ATOM     23  H   UNL     1      36.429  20.599  84.045  0.00  0.00    +0.000 HD
ENDBRANCH  11  22
TORSDOF 4
ENDMDL
