MODEL 1
REMARK VINA RESULT:      -5.0      0.000      0.000
REMARK  Name = Hyoscyamine.pdbqt.pdb
REMARK  6 active torsions:
REMARK  status: ('A' for Active; 'I' for Inactive)
REMARK    1  A    between atoms: C_2  and  O_3
REMARK    2  A    between atoms: C_2  and  C_13
REMARK    3  A    between atoms: O_3  and  C_4
REMARK    4  A    between atoms: C_13  and  C_14
REMARK    5  A    between atoms: C_13  and  C_20
REMARK    6  A    between atoms: C_20  and  O_21
REMARK                            x       y       z     vdW  Elec       q    Type
REMARK                         _______ _______ _______ _____ _____    ______ ____
ROOT
ATOM      1  O   UNL     1      42.317  23.546  84.939  0.00  0.00    +0.000 OA
ATOM      2  C   UNL     1      41.374  24.326  84.970  0.00  0.00    +0.000 C 
ENDROOT
BRANCH   2   3
ATOM      3  O   UNL     1      41.249  25.429  85.764  0.00  0.00    +0.000 OA
BRANCH   3   4
ATOM      4  C   UNL     1      42.240  26.383  85.528  0.00  0.00    +0.000 C 
ATOM      5  C   UNL     1      42.573  26.793  84.176  0.00  0.00    +0.000 C 
ATOM      6  C   UNL     1      43.916  27.047  83.639  0.00  0.00    +0.000 C 
ATOM      7  N   UNL     1      44.778  25.929  84.242  0.00  0.00    +0.000 NA
ATOM      8  C   UNL     1      44.513  28.269  84.150  0.00  0.00    +0.000 C 
ATOM      9  C   UNL     1      44.846  26.495  85.669  0.00  0.00    +0.000 C 
ATOM     10  C   UNL     1      46.109  25.880  83.619  0.00  0.00    +0.000 C 
ATOM     11  C   UNL     1      45.138  27.912  85.499  0.00  0.00    +0.000 C 
ATOM     12  C   UNL     1      43.505  26.243  86.220  0.00  0.00    +0.000 C 
ENDBRANCH   3   4
ENDBRANCH   2   3
BRANCH   2  13
ATOM     13  C   UNL     1      40.150  24.150  84.132  0.00  0.00    +0.000 C 
BRANCH  13  14
ATOM     14  C   UNL     1      38.854  23.686  84.661  0.00  0.00    +0.000 A 
ATOM     15  C   UNL     1      38.809  22.697  85.651  0.00  0.00    +0.000 A 
ATOM     16  C   UNL     1      37.591  22.222  86.134  0.00  0.00    +0.000 A 
ATOM     17  C   UNL     1      36.398  22.725  85.625  0.00  0.00    +0.000 A 
ATOM     18  C   UNL     1      36.425  23.700  84.633  0.00  0.00    +0.000 A 
ATOM     19  C   UNL     1      37.647  24.171  84.154  0.00  0.00    +0.000 A 
ENDBRANCH  13  14
BRANCH  13  20
ATOM     20  C   UNL     1      40.251  24.524  82.755  0.00  0.00    +0.000 C 
BRANCH  20  21
ATOM     21  O   UNL     1      40.345  24.870  81.476  0.00  0.00    +0.000 OA
ATOM     22  H   UNL     1      39.571  24.551  80.978  0.00  0.00    +0.000 HD
ENDBRANCH  20  21
ENDBRANCH  13  20
ENDBRANCH   2  13
TORSDOF 6
ENDMDL
MODEL 2
REMARK VINA RESULT:      -4.9     38.994     41.525
REMARK  Name = Hyoscyamine.pdbqt.pdb
REMARK  6 active torsions:
REMARK  status: ('A' for Active; 'I' for Inactive)
REMARK    1  A    between atoms: C_2  and  O_3
REMARK    2  A    between atoms: C_2  and  C_13
REMARK    3  A    between atoms: O_3  and  C_4
REMARK    4  A    between atoms: C_13  and  C_14
REMARK    5  A    between atoms: C_13  and  C_20
REMARK    6  A    between atoms: C_20  and  O_21
REMARK                            x       y       z     vdW  Elec       q    Type
REMARK                         _______ _______ _______ _____ _____    ______ ____
ROOT
ATOM      1  O   UNL     1       2.290  15.997  97.182  0.00  0.00    +0.000 OA
ATOM      2  C   UNL     1       3.047  15.953  96.220  0.00  0.00    +0.000 C 
ENDROOT
BRANCH   2   3
ATOM      3  O   UNL     1       3.067  16.806  95.155  0.00  0.00    +0.000 OA
BRANCH   3   4
ATOM      4  C   UNL     1       1.901  16.751  94.391  0.00  0.00    +0.000 C 
ATOM      5  C   UNL     1       1.721  15.724  93.380  0.00  0.00    +0.000 C 
ATOM      6  C   UNL     1       1.129  15.897  92.047  0.00  0.00    +0.000 C 
ATOM      7  N   UNL     1       1.689  17.240  91.559  0.00  0.00    +0.000 NA
ATOM      8  C   UNL     1      -0.308  16.104  92.084  0.00  0.00    +0.000 C 
ATOM      9  C   UNL     1       0.825  18.139  92.458  0.00  0.00    +0.000 C 
ATOM     10  C   UNL     1       1.394  17.461  90.136  0.00  0.00    +0.000 C 
ATOM     11  C   UNL     1      -0.521  17.594  92.353  0.00  0.00    +0.000 C 
ATOM     12  C   UNL     1       1.411  17.979  93.797  0.00  0.00    +0.000 C 
ENDBRANCH   3   4
ENDBRANCH   2   3
BRANCH   2  13
ATOM     13  C   UNL     1       4.078  14.887  96.049  0.00  0.00    +0.000 C 
BRANCH  13  14
ATOM     14  C   UNL     1       3.776  13.444  96.067  0.00  0.00    +0.000 A 
ATOM     15  C   UNL     1       2.492  12.988  95.747  0.00  0.00    +0.000 A 
ATOM     16  C   UNL     1       2.182  11.629  95.795  0.00  0.00    +0.000 A 
ATOM     17  C   UNL     1       3.153  10.708  96.173  0.00  0.00    +0.000 A 
ATOM     18  C   UNL     1       4.430  11.145  96.505  0.00  0.00    +0.000 A 
ATOM     19  C   UNL     1       4.735  12.505  96.455  0.00  0.00    +0.000 A 
ENDBRANCH  13  14
BRANCH  13  20
ATOM     20  C   UNL     1       5.418  15.319  95.790  0.00  0.00    +0.000 C 
BRANCH  20  21
ATOM     21  O   UNL     1       6.662  15.719  95.550  0.00  0.00    +0.000 OA
ATOM     22  H   UNL     1       6.686  16.679  95.391  0.00  0.00    +0.000 HD
ENDBRANCH  20  21
ENDBRANCH  13  20
ENDBRANCH   2  13
TORSDOF 6
ENDMDL
MODEL 3
REMARK VINA RESULT:      -4.8     21.090     24.326
REMARK  Name = Hyoscyamine.pdbqt.pdb
REMARK  6 active torsions:
REMARK  status: ('A' for Active; 'I' for Inactive)
REMARK    1  A    between atoms: C_2  and  O_3
REMARK    2  A    between atoms: C_2  and  C_13
REMARK    3  A    between atoms: O_3  and  C_4
REMARK    4  A    between atoms: C_13  and  C_14
REMARK    5  A    between atoms: C_13  and  C_20
REMARK    6  A    between atoms: C_20  and  O_21
REMARK                            x       y       z     vdW  Elec       q    Type
REMARK                         _______ _______ _______ _____ _____    ______ ____
ROOT
ATOM      1  O   UNL     1      23.748  11.110  84.893  0.00  0.00    +0.000 OA
ATOM      2  C   UNL     1      23.352  11.427  86.009  0.00  0.00    +0.000 C 
ENDROOT
BRANCH   2   3
ATOM      3  O   UNL     1      22.075  11.332  86.481  0.00  0.00    +0.000 OA
BRANCH   3   4
ATOM      4  C   UNL     1      21.572  10.032  86.433  0.00  0.00    +0.000 C 
ATOM      5  C   UNL     1      22.309   8.926  87.018  0.00  0.00    +0.000 C 
ATOM      6  C   UNL     1      22.468   7.578  86.455  0.00  0.00    +0.000 C 
ATOM      7  N   UNL     1      22.684   7.823  84.955  0.00  0.00    +0.000 NA
ATOM      8  C   UNL     1      21.249   6.790  86.513  0.00  0.00    +0.000 C 
ATOM      9  C   UNL     1      21.231   8.189  84.614  0.00  0.00    +0.000 C 
ATOM     10  C   UNL     1      23.105   6.594  84.265  0.00  0.00    +0.000 C 
ATOM     11  C   UNL     1      20.421   7.186  85.290  0.00  0.00    +0.000 C 
ATOM     12  C   UNL     1      21.061   9.540  85.169  0.00  0.00    +0.000 C 
ENDBRANCH   3   4
ENDBRANCH   2   3
BRANCH   2  13
ATOM     13  C   UNL     1      24.245  12.025  87.045  0.00  0.00    +0.000 C 
BRANCH  13  14
ATOM     14  C   UNL     1      24.897  11.245  88.114  0.00  0.00    +0.000 A 
ATOM     15  C   UNL     1      25.700  10.145  87.796  0.00  0.00    +0.000 A 
ATOM     16  C   UNL     1      26.293   9.377  88.797  0.00  0.00    +0.000 A 
ATOM     17  C   UNL     1      26.082   9.696  90.134  0.00  0.00    +0.000 A 
ATOM     18  C   UNL     1      25.278  10.781  90.468  0.00  0.00    +0.000 A 
ATOM     19  C   UNL     1      24.687  11.545  89.462  0.00  0.00    +0.000 A 
ENDBRANCH  13  14
BRANCH  13  20
ATOM     20  C   UNL     1      24.518  13.425  86.933  0.00  0.00    +0.000 C 
BRANCH  20  21
ATOM     21  O   UNL     1      24.773  14.725  86.829  0.00  0.00    +0.000 OA
ATOM     22  H   UNL     1      25.222  15.050  87.629  0.00  0.00    +0.000 HD
ENDBRANCH  20  21
ENDBRANCH  13  20
ENDBRANCH   2  13
TORSDOF 6
ENDMDL
MODEL 4
REMARK VINA RESULT:      -4.7      3.226      7.065
REMARK  Name = Hyoscyamine.pdbqt.pdb
REMARK  6 active torsions:
REMARK  status: ('A' for Active; 'I' for Inactive)
REMARK    1  A    between atoms: C_2  and  O_3
REMARK    2  A    between atoms: C_2  and  C_13
REMARK    3  A    between atoms: O_3  and  C_4
REMARK    4  A    between atoms: C_13  and  C_14
REMARK    5  A    between atoms: C_13  and  C_20
REMARK    6  A    between atoms: C_20  and  O_21
REMARK                            x       y       z     vdW  Elec       q    Type
REMARK                         _______ _______ _______ _____ _____    ______ ____
ROOT
ATOM      1  O   UNL     1      43.628  24.037  82.309  0.00  0.00    +0.000 OA
ATOM      2  C   UNL     1      42.616  24.669  82.589  0.00  0.00    +0.000 C 
ENDROOT
BRANCH   2   3
ATOM      3  O   UNL     1      41.535  24.881  81.785  0.00  0.00    +0.000 OA
BRANCH   3   4
ATOM      4  C   UNL     1      41.239  23.787  80.971  0.00  0.00    +0.000 C 
ATOM      5  C   UNL     1      41.517  23.820  79.546  0.00  0.00    +0.000 C 
ATOM      6  C   UNL     1      40.664  23.298  78.470  0.00  0.00    +0.000 C 
ATOM      7  N   UNL     1      39.243  23.691  78.895  0.00  0.00    +0.000 NA
ATOM      8  C   UNL     1      40.632  21.846  78.423  0.00  0.00    +0.000 C 
ATOM      9  C   UNL     1      39.089  22.651  80.016  0.00  0.00    +0.000 C 
ATOM     10  C   UNL     1      38.275  23.461  77.812  0.00  0.00    +0.000 C 
ATOM     11  C   UNL     1      39.583  21.406  79.446  0.00  0.00    +0.000 C 
ATOM     12  C   UNL     1      39.936  23.166  81.103  0.00  0.00    +0.000 C 
ENDBRANCH   3   4
ENDBRANCH   2   3
BRANCH   2  13
ATOM     13  C   UNL     1      42.432  25.362  83.898  0.00  0.00    +0.000 C 
BRANCH  13  14
ATOM     14  C   UNL     1      43.411  26.303  84.473  0.00  0.00    +0.000 A 
ATOM     15  C   UNL     1      43.903  26.106  85.768  0.00  0.00    +0.000 A 
ATOM     16  C   UNL     1      44.802  27.007  86.338  0.00  0.00    +0.000 A 
ATOM     17  C   UNL     1      45.214  28.125  85.620  0.00  0.00    +0.000 A 
ATOM     18  C   UNL     1      44.727  28.341  84.335  0.00  0.00    +0.000 A 
ATOM     19  C   UNL     1      43.828  27.437  83.771  0.00  0.00    +0.000 A 
ENDBRANCH  13  14
BRANCH  13  20
ATOM     20  C   UNL     1      41.196  25.134  84.582  0.00  0.00    +0.000 C 
BRANCH  20  21
ATOM     21  O   UNL     1      40.048  24.921  85.217  0.00  0.00    +0.000 OA
ATOM     22  H   UNL     1      39.867  23.967  85.284  0.00  0.00    +0.000 HD
ENDBRANCH  20  21
ENDBRANCH  13  20
ENDBRANCH   2  13
TORSDOF 6
ENDMDL
MODEL 5
REMARK VINA RESULT:      -4.7     39.217     41.724
REMARK  Name = Hyoscyamine.pdbqt.pdb
REMARK  6 active torsions:
REMARK  status: ('A' for Active; 'I' for Inactive)
REMARK    1  A    between atoms: C_2  and  O_3
REMARK    2  A    between atoms: C_2  and  C_13
REMARK    3  A    between atoms: O_3  and  C_4
REMARK    4  A    between atoms: C_13  and  C_14
REMARK    5  A    between atoms: C_13  and  C_20
REMARK    6  A    between atoms: C_20  and  O_21
REMARK                            x       y       z     vdW  Elec       q    Type
REMARK                         _______ _______ _______ _____ _____    ______ ____
ROOT
ATOM      1  O   UNL     1       0.600  14.469  94.887  0.00  0.00    +0.000 OA
ATOM      2  C   UNL     1       1.629  14.858  94.349  0.00  0.00    +0.000 C 
ENDROOT
BRANCH   2   3
ATOM      3  O   UNL     1       1.857  14.980  93.009  0.00  0.00    +0.000 OA
BRANCH   3   4
ATOM      4  C   UNL     1       0.995  15.887  92.391  0.00  0.00    +0.000 C 
ATOM      5  C   UNL     1      -0.146  15.425  91.622  0.00  0.00    +0.000 C 
ATOM      6  C   UNL     1      -0.628  15.972  90.347  0.00  0.00    +0.000 C 
ATOM      7  N   UNL     1       0.655  16.259  89.554  0.00  0.00    +0.000 NA
ATOM      8  C   UNL     1      -1.257  17.274  90.486  0.00  0.00    +0.000 C 
ATOM      9  C   UNL     1       1.087  17.505  90.343  0.00  0.00    +0.000 C 
ATOM     10  C   UNL     1       0.359  16.586  88.151  0.00  0.00    +0.000 C 
ATOM     11  C   UNL     1      -0.125  18.302  90.481  0.00  0.00    +0.000 C 
ATOM     12  C   UNL     1       1.576  16.970  91.622  0.00  0.00    +0.000 C 
ENDBRANCH   3   4
ENDBRANCH   2   3
BRANCH   2  13
ATOM     13  C   UNL     1       2.852  15.236  95.119  0.00  0.00    +0.000 C 
BRANCH  13  14
ATOM     14  C   UNL     1       3.895  14.275  95.523  0.00  0.00    +0.000 A 
ATOM     15  C   UNL     1       3.541  13.051  96.103  0.00  0.00    +0.000 A 
ATOM     16  C   UNL     1       4.517  12.149  96.523  0.00  0.00    +0.000 A 
ATOM     17  C   UNL     1       5.864  12.465  96.377  0.00  0.00    +0.000 A 
ATOM     18  C   UNL     1       6.233  13.681  95.813  0.00  0.00    +0.000 A 
ATOM     19  C   UNL     1       5.252  14.579  95.395  0.00  0.00    +0.000 A 
ENDBRANCH  13  14
BRANCH  13  20
ATOM     20  C   UNL     1       3.029  16.625  95.410  0.00  0.00    +0.000 C 
BRANCH  20  21
ATOM     21  O   UNL     1       3.194  17.916  95.681  0.00  0.00    +0.000 OA
ATOM     22  H   UNL     1       4.140  18.128  95.768  0.00  0.00    +0.000 HD
ENDBRANCH  20  21
ENDBRANCH  13  20
ENDBRANCH   2  13
TORSDOF 6
ENDMDL
MODEL 6
REMARK VINA RESULT:      -4.7      4.154      7.501
REMARK  Name = Hyoscyamine.pdbqt.pdb
REMARK  6 active torsions:
REMARK  status: ('A' for Active; 'I' for Inactive)
REMARK    1  A    between atoms: C_2  and  O_3
REMARK    2  A    between atoms: C_2  and  C_13
REMARK    3  A    between atoms: O_3  and  C_4
REMARK    4  A    between atoms: C_13  and  C_14
REMARK    5  A    between atoms: C_13  and  C_20
REMARK    6  A    between atoms: C_20  and  O_21
REMARK                            x       y       z     vdW  Elec       q    Type
REMARK                         _______ _______ _______ _____ _____    ______ ____
ROOT
ATOM      1  O   UNL     1      45.201  23.309  85.490  0.00  0.00    +0.000 OA
ATOM      2  C   UNL     1      45.775  23.404  84.412  0.00  0.00    +0.000 C 
ENDROOT
BRANCH   2   3
ATOM      3  O   UNL     1      45.236  23.832  83.233  0.00  0.00    +0.000 OA
BRANCH   3   4
ATOM      4  C   UNL     1      44.798  25.155  83.285  0.00  0.00    +0.000 C 
ATOM      5  C   UNL     1      45.691  26.221  83.702  0.00  0.00    +0.000 C 
ATOM      6  C   UNL     1      45.358  27.361  84.566  0.00  0.00    +0.000 C 
ATOM      7  N   UNL     1      44.467  26.755  85.658  0.00  0.00    +0.000 NA
ATOM      8  C   UNL     1      44.505  28.340  83.914  0.00  0.00    +0.000 C 
ATOM      9  C   UNL     1      43.209  26.576  84.794  0.00  0.00    +0.000 C 
ATOM     10  C   UNL     1      44.235  27.708  86.754  0.00  0.00    +0.000 C 
ATOM     11  C   UNL     1      43.071  27.828  84.064  0.00  0.00    +0.000 C 
ATOM     12  C   UNL     1      43.528  25.432  83.926  0.00  0.00    +0.000 C 
ENDBRANCH   3   4
ENDBRANCH   2   3
BRANCH   2  13
ATOM     13  C   UNL     1      47.201  23.008  84.216  0.00  0.00    +0.000 C 
BRANCH  13  14
ATOM     14  C   UNL     1      48.333  23.651  84.910  0.00  0.00    +0.000 A 
ATOM     15  C   UNL     1      48.300  25.021  85.194  0.00  0.00    +0.000 A 
ATOM     16  C   UNL     1      49.378  25.649  85.817  0.00  0.00    +0.000 A 
ATOM     17  C   UNL     1      50.509  24.914  86.156  0.00  0.00    +0.000 A 
ATOM     18  C   UNL     1      50.562  23.554  85.871  0.00  0.00    +0.000 A 
ATOM     19  C   UNL     1      49.481  22.931  85.248  0.00  0.00    +0.000 A 
ENDBRANCH  13  14
BRANCH  13  20
ATOM     20  C   UNL     1      47.451  21.897  83.350  0.00  0.00    +0.000 C 
BRANCH  20  21
ATOM     21  O   UNL     1      47.682  20.865  82.546  0.00  0.00    +0.000 OA
ATOM     22  H   UNL     1      46.845  20.451  82.272  0.00  0.00    +0.000 HD
ENDBRANCH  20  21
ENDBRANCH  13  20
ENDBRANCH   2  13
TORSDOF 6
ENDMDL
MODEL 7
REMARK VINA RESULT:      -4.5     22.361     24.981
REMARK  Name = Hyoscyamine.pdbqt.pdb
REMARK  6 active torsions:
REMARK  status: ('A' for Active; 'I' for Inactive)
REMARK    1  A    between atoms: C_2  and  O_3
REMARK    2  A    between atoms: C_2  and  C_13
REMARK    3  A    between atoms: O_3  and  C_4
REMARK    4  A    between atoms: C_13  and  C_14
REMARK    5  A    between atoms: C_13  and  C_20
REMARK    6  A    between atoms: C_20  and  O_21
REMARK                            x       y       z     vdW  Elec       q    Type
REMARK                         _______ _______ _______ _____ _____    ______ ____
ROOT
ATOM      1  O   UNL     1      24.297   9.951  85.698  0.00  0.00    +0.000 OA
ATOM      2  C   UNL     1      23.787  10.123  86.798  0.00  0.00    +0.000 C 
ENDROOT
BRANCH   2   3
ATOM      3  O   UNL     1      22.460  10.038  87.108  0.00  0.00    +0.000 OA
BRANCH   3   4
ATOM      4  C   UNL     1      21.935   8.761  86.904  0.00  0.00    +0.000 C 
ATOM      5  C   UNL     1      22.776   7.583  87.018  0.00  0.00    +0.000 C 
ATOM      6  C   UNL     1      22.754   6.399  86.149  0.00  0.00    +0.000 C 
ATOM      7  N   UNL     1      22.577   6.975  84.737  0.00  0.00    +0.000 NA
ATOM      8  C   UNL     1      21.576   5.571  86.344  0.00  0.00    +0.000 C 
ATOM      9  C   UNL     1      21.094   7.351  84.873  0.00  0.00    +0.000 C 
ATOM     10  C   UNL     1      22.778   5.944  83.707  0.00  0.00    +0.000 C 
ATOM     11  C   UNL     1      20.466   6.194  85.496  0.00  0.00    +0.000 C 
ATOM     12  C   UNL     1      21.102   8.540  85.739  0.00  0.00    +0.000 C 
ENDBRANCH   3   4
ENDBRANCH   2   3
BRANCH   2  13
ATOM     13  C   UNL     1      24.577  10.506  88.006  0.00  0.00    +0.000 C 
BRANCH  13  14
ATOM     14  C   UNL     1      25.574   9.627  88.646  0.00  0.00    +0.000 A 
ATOM     15  C   UNL     1      26.082   9.941  89.911  0.00  0.00    +0.000 A 
ATOM     16  C   UNL     1      27.052   9.139  90.512  0.00  0.00    +0.000 A 
ATOM     17  C   UNL     1      27.533   8.016  89.848  0.00  0.00    +0.000 A 
ATOM     18  C   UNL     1      27.046   7.696  88.585  0.00  0.00    +0.000 A 
ATOM     19  C   UNL     1      26.077   8.501  87.989  0.00  0.00    +0.000 A 
ENDBRANCH  13  14
BRANCH  13  20
ATOM     20  C   UNL     1      24.383  11.830  88.512  0.00  0.00    +0.000 C 
BRANCH  20  21
ATOM     21  O   UNL     1      24.203  13.060  88.981  0.00  0.00    +0.000 OA
ATOM     22  H   UNL     1      23.597  13.049  89.743  0.00  0.00    +0.000 HD
ENDBRANCH  20  21
ENDBRANCH  13  20
ENDBRANCH   2  13
TORSDOF 6
ENDMDL
MODEL 8
REMARK VINA RESULT:      -4.5     21.676     25.470
REMARK  Name = Hyoscyamine.pdbqt.pdb
REMARK  6 active torsions:
REMARK  status: ('A' for Active; 'I' for Inactive)
REMARK    1  A    between atoms: C_2  and  O_3
REMARK    2  A    between atoms: C_2  and  C_13
REMARK    3  A    between atoms: O_3  and  C_4
REMARK    4  A    between atoms: C_13  and  C_14
REMARK    5  A    between atoms: C_13  and  C_20
REMARK    6  A    between atoms: C_20  and  O_21
REMARK                            x       y       z     vdW  Elec       q    Type
REMARK                         _______ _______ _______ _____ _____    ______ ____
ROOT
ATOM      1  O   UNL     1      61.912  39.374  73.703  0.00  0.00    +0.000 OA
ATOM      2  C   UNL     1      62.117  38.451  74.481  0.00  0.00    +0.000 C 
ENDROOT
BRANCH   2   3
ATOM      3  O   UNL     1      61.368  38.119  75.573  0.00  0.00    +0.000 OA
BRANCH   3   4
ATOM      4  C   UNL     1      60.041  37.828  75.254  0.00  0.00    +0.000 C 
ATOM      5  C   UNL     1      58.975  38.759  75.581  0.00  0.00    +0.000 C 
ATOM      6  C   UNL     1      57.643  38.423  76.102  0.00  0.00    +0.000 C 
ATOM      7  N   UNL     1      57.910  37.309  77.123  0.00  0.00    +0.000 NA
ATOM      8  C   UNL     1      56.785  37.798  75.110  0.00  0.00    +0.000 C 
ATOM      9  C   UNL     1      58.194  36.190  76.108  0.00  0.00    +0.000 C 
ATOM     10  C   UNL     1      56.713  37.016  77.925  0.00  0.00    +0.000 C 
ATOM     11  C   UNL     1      57.141  36.311  75.110  0.00  0.00    +0.000 C 
ATOM     12  C   UNL     1      59.530  36.512  75.582  0.00  0.00    +0.000 C 
ENDBRANCH   3   4
ENDBRANCH   2   3
BRANCH   2  13
ATOM     13  C   UNL     1      63.293  37.538  74.363  0.00  0.00    +0.000 C 
BRANCH  13  14
ATOM     14  C   UNL     1      63.399  36.243  75.061  0.00  0.00    +0.000 A 
ATOM     15  C   UNL     1      62.827  35.093  74.506  0.00  0.00    +0.000 A 
ATOM     16  C   UNL     1      62.888  33.870  75.172  0.00  0.00    +0.000 A 
ATOM     17  C   UNL     1      63.515  33.784  76.410  0.00  0.00    +0.000 A 
ATOM     18  C   UNL     1      64.079  34.920  76.981  0.00  0.00    +0.000 A 
ATOM     19  C   UNL     1      64.015  36.140  76.310  0.00  0.00    +0.000 A 
ENDBRANCH  13  14
BRANCH  13  20
ATOM     20  C   UNL     1      64.332  37.936  73.464  0.00  0.00    +0.000 C 
BRANCH  20  21
ATOM     21  O   UNL     1      65.297  38.305  72.628  0.00  0.00    +0.000 OA
ATOM     22  H   UNL     1      64.921  38.593  71.778  0.00  0.00    +0.000 HD
ENDBRANCH  20  21
ENDBRANCH  13  20
ENDBRANCH   2  13
TORSDOF 6
ENDMDL
MODEL 9
REMARK VINA RESULT:      -4.4     36.900     38.460
REMARK  Name = Hyoscyamine.pdbqt.pdb
REMARK  6 active torsions:
REMARK  status: ('A' for Active; 'I' for Inactive)
REMARK    1  A    between atoms: C_2  and  O_3
REMARK    2  A    between atoms: C_2  and  C_13
REMARK    3  A    between atoms: O_3  and  C_4
REMARK    4  A    between atoms: C_13  and  C_14
REMARK    5  A    between atoms: C_13  and  C_20
REMARK    6  A    between atoms: C_20  and  O_21
REMARK                            x       y       z     vdW  Elec       q    Type
REMARK                         _______ _______ _______ _____ _____    ______ ____
ROOT
ATOM      1  O   UNL     1      11.369   1.211  99.528  0.00  0.00    +0.000 OA
ATOM      2  C   UNL     1      11.819   1.969  98.678  0.00  0.00    +0.000 C 
ENDROOT
BRANCH   2   3
ATOM      3  O   UNL     1      11.317   3.185  98.317  0.00  0.00    +0.000 OA
BRANCH   3   4
ATOM      4  C   UNL     1      11.900   4.244  99.013  0.00  0.00    +0.000 C 
ATOM      5  C   UNL     1      13.008   4.991  98.444  0.00  0.00    +0.000 C 
ATOM      6  C   UNL     1      14.201   5.472  99.152  0.00  0.00    +0.000 C 
ATOM      7  N   UNL     1      14.572   4.315 100.090  0.00  0.00    +0.000 NA
ATOM      8  C   UNL     1      13.923   6.580 100.049  0.00  0.00    +0.000 C 
ATOM      9  C   UNL     1      13.438   4.527 101.105  0.00  0.00    +0.000 C 
ATOM     10  C   UNL     1      15.891   4.523 100.705  0.00  0.00    +0.000 C 
ATOM     11  C   UNL     1      13.419   5.962 101.354  0.00  0.00    +0.000 C 
ATOM     12  C   UNL     1      12.236   4.044 100.409  0.00  0.00    +0.000 C 
ENDBRANCH   3   4
ENDBRANCH   2   3
BRANCH   2  13
ATOM     13  C   UNL     1      13.016   1.637  97.849  0.00  0.00    +0.000 C 
BRANCH  13  14
ATOM     14  C   UNL     1      12.994   1.544  96.377  0.00  0.00    +0.000 A 
ATOM     15  C   UNL     1      13.216   2.683  95.595  0.00  0.00    +0.000 A 
ATOM     16  C   UNL     1      13.161   2.618  94.203  0.00  0.00    +0.000 A 
ATOM     17  C   UNL     1      12.875   1.410  93.575  0.00  0.00    +0.000 A 
ATOM     18  C   UNL     1      12.641   0.271  94.338  0.00  0.00    +0.000 A 
ATOM     19  C   UNL     1      12.697   0.343  95.730  0.00  0.00    +0.000 A 
ENDBRANCH  13  14
BRANCH  13  20
ATOM     20  C   UNL     1      14.256   1.468  98.542  0.00  0.00    +0.000 C 
BRANCH  20  21
ATOM     21  O   UNL     1      15.408   1.311  99.187  0.00  0.00    +0.000 OA
ATOM     22  H   UNL     1      16.149   1.630  98.643  0.00  0.00    +0.000 HD
ENDBRANCH  20  21
ENDBRANCH  13  20
ENDBRANCH   2  13
TORSDOF 6
ENDMDL
