MODEL 1
REMARK VINA RESULT:      -7.5      0.000      0.000
REMARK  Name = 
REMARK  21 active torsions:
REMARK  status: ('A' for Active; 'I' for Inactive)
REMARK    1  A    between atoms: O_3  and  C_22
REMARK    2  A    between atoms: O_3  and  C_28
REMARK    3  A    between atoms: O_4  and  C_25
REMARK    4  A    between atoms: O_4  and  C_30
REMARK    5  A    between atoms: O_5  and  C_16
REMARK    6  A    between atoms: O_6  and  C_17
REMARK    7  A    between atoms: O_7  and  C_18
REMARK    8  A    between atoms: O_8  and  C_20
REMARK    9  A    between atoms: O_9  and  C_21
REMARK   10  A    between atoms: O_10  and  C_23
REMARK   11  A    between atoms: O_11  and  C_26
REMARK   12  A    between atoms: O_13  and  C_36
REMARK   13  A    between atoms: O_15  and  C_45
REMARK   14  A    between atoms: O_15  and  C_48
REMARK   15  A    between atoms: C_19  and  C_26
REMARK   16  A    between atoms: C_24  and  C_27
REMARK   17  A    between atoms: C_29  and  C_37
REMARK   18  A    between atoms: C_35  and  C_38
REMARK   19  A    between atoms: C_37  and  C_39
REMARK   20  A    between atoms: C_42  and  C_46
REMARK   21  A    between atoms: C_42  and  C_47
REMARK                            x       y       z     vdW  Elec       q    Type
REMARK                         _______ _______ _______ _____ _____    ______ ____
ROOT
ATOM      1  O   UNL     1      60.147  33.746  73.185  0.00  0.00    +0.000 OA
ATOM      2  O   UNL     1      63.662  33.252  75.155  0.00  0.00    +0.000 OA
ATOM      3  C   UNL     1      59.615  36.096  75.938  0.00  0.00    +0.000 A 
ATOM      4  C   UNL     1      59.385  35.352  74.767  0.00  0.00    +0.000 A 
ATOM      5  C   UNL     1      62.276  32.611  73.332  0.00  0.00    +0.000 A 
ATOM      6  C   UNL     1      60.389  34.463  74.332  0.00  0.00    +0.000 A 
ATOM      7  C   UNL     1      61.582  34.333  75.043  0.00  0.00    +0.000 A 
ATOM      8  C   UNL     1      62.594  33.385  74.559  0.00  0.00    +0.000 A 
ATOM      9  C   UNL     1      60.827  35.995  76.627  0.00  0.00    +0.000 A 
ATOM     10  C   UNL     1      61.078  32.820  72.757  0.00  0.00    +0.000 A 
ATOM     11  C   UNL     1      61.800  35.104  76.187  0.00  0.00    +0.000 A 
ENDROOT
BRANCH  10  12
ATOM     12  C   UNL     1      60.651  32.092  71.552  0.00  0.00    +0.000 A 
ATOM     13  C   UNL     1      60.576  30.695  71.570  0.00  0.00    +0.000 A 
ATOM     14  C   UNL     1      60.324  32.772  70.372  0.00  0.00    +0.000 A 
ATOM     15  C   UNL     1      60.167  29.997  70.431  0.00  0.00    +0.000 A 
ATOM     16  C   UNL     1      59.911  32.071  69.233  0.00  0.00    +0.000 A 
ATOM     17  C   UNL     1      59.825  30.678  69.261  0.00  0.00    +0.000 A 
BRANCH  17  18
ATOM     18  O   UNL     1      59.436  29.876  68.225  0.00  0.00    +0.000 OA
ATOM     19  C   UNL     1      58.657  30.482  67.202  0.00  0.00    +0.000 C 
ENDBRANCH  17  18
ENDBRANCH  10  12
BRANCH  11  20
ATOM     20  O   UNL     1      62.952  35.047  76.924  0.00  0.00    +0.000 OA
ATOM     21  H   UNL     1      62.718  34.794  77.844  0.00  0.00    +0.000 HD
ENDBRANCH  11  20
BRANCH   4  22
ATOM     22  C   UNL     1      58.080  35.465  74.002  0.00  0.00    +0.000 C 
BRANCH  22  23
ATOM     23  C   UNL     1      58.093  36.597  73.008  0.00  0.00    +0.000 C 
ATOM     24  C   UNL     1      57.319  37.700  72.977  0.00  0.00    +0.000 C 
ATOM     25  C   UNL     1      56.243  38.043  73.970  0.00  0.00    +0.000 C 
ATOM     26  C   UNL     1      57.497  38.723  71.886  0.00  0.00    +0.000 C 
ENDBRANCH  22  23
ENDBRANCH   4  22
BRANCH   5  27
ATOM     27  O   UNL     1      63.174  31.663  72.878  0.00  0.00    +0.000 OA
BRANCH  27  33
ATOM     28  O   UNL     1      63.898  32.045  70.655  0.00  0.00    +0.000 OA
ATOM     29  C   UNL     1      65.593  30.128  71.985  0.00  0.00    +0.000 C 
ATOM     30  C   UNL     1      65.214  29.984  70.506  0.00  0.00    +0.000 C 
ATOM     31  C   UNL     1      65.554  31.592  72.424  0.00  0.00    +0.000 C 
ATOM     32  C   UNL     1      63.868  30.671  70.246  0.00  0.00    +0.000 C 
ATOM     33  C   UNL     1      64.197  32.225  72.047  0.00  0.00    +0.000 C 
ATOM     34  C   UNL     1      63.503  30.643  68.766  0.00  0.00    +0.000 C 
BRANCH  29  35
ATOM     35  O   UNL     1      66.917  29.592  72.167  0.00  0.00    +0.000 OA
ATOM     36  H   UNL     1      67.145  29.798  73.098  0.00  0.00    +0.000 HD
ENDBRANCH  29  35
BRANCH  30  37
ATOM     37  O   UNL     1      65.157  28.590  70.178  0.00  0.00    +0.000 OA
ATOM     38  H   UNL     1      64.603  28.539  69.373  0.00  0.00    +0.000 HD
ENDBRANCH  30  37
BRANCH  31  39
ATOM     39  O   UNL     1      66.665  32.265  71.794  0.00  0.00    +0.000 OA
ATOM     40  H   UNL     1      66.320  32.701  70.993  0.00  0.00    +0.000 HD
ENDBRANCH  31  39
ENDBRANCH  27  33
ENDBRANCH   5  27
BRANCH   3  41
ATOM     41  O   UNL     1      58.674  37.006  76.349  0.00  0.00    +0.000 OA
BRANCH  41  47
ATOM     42  O   UNL     1      58.354  35.396  78.054  0.00  0.00    +0.000 OA
ATOM     43  C   UNL     1      56.190  36.909  79.143  0.00  0.00    +0.000 C 
ATOM     44  C   UNL     1      56.437  35.453  79.545  0.00  0.00    +0.000 C 
ATOM     45  C   UNL     1      56.758  37.198  77.755  0.00  0.00    +0.000 C 
ATOM     46  C   UNL     1      57.931  35.130  79.403  0.00  0.00    +0.000 C 
ATOM     47  C   UNL     1      58.238  36.775  77.705  0.00  0.00    +0.000 C 
BRANCH  44  48
ATOM     48  O   UNL     1      55.986  35.255  80.887  0.00  0.00    +0.000 OA
ATOM     49  H   UNL     1      55.026  35.450  80.865  0.00  0.00    +0.000 HD
ENDBRANCH  44  48
BRANCH  45  50
ATOM     50  O   UNL     1      56.587  38.597  77.476  0.00  0.00    +0.000 OA
ATOM     51  H   UNL     1      56.177  38.982  78.276  0.00  0.00    +0.000 HD
ENDBRANCH  45  50
BRANCH  43  52
ATOM     52  O   UNL     1      54.776  37.165  79.166  0.00  0.00    +0.000 OA
ATOM     53  H   UNL     1      54.366  36.309  79.407  0.00  0.00    +0.000 HD
ENDBRANCH  43  52
BRANCH  46  54
ATOM     54  C   UNL     1      58.212  33.654  79.717  0.00  0.00    +0.000 C 
BRANCH  54  55
ATOM     55  O   UNL     1      59.485  33.530  80.355  0.00  0.00    +0.000 OA
ATOM     56  H   UNL     1      59.490  34.155  81.100  0.00  0.00    +0.000 HD
ENDBRANCH  54  55
ENDBRANCH  46  54
ENDBRANCH  41  47
ENDBRANCH   3  41
TORSDOF 17
ENDMDL
MODEL 2
REMARK VINA RESULT:      -7.3      4.589      8.729
REMARK  Name = 
REMARK  21 active torsions:
REMARK  status: ('A' for Active; 'I' for Inactive)
REMARK    1  A    between atoms: O_3  and  C_22
REMARK    2  A    between atoms: O_3  and  C_28
REMARK    3  A    between atoms: O_4  and  C_25
REMARK    4  A    between atoms: O_4  and  C_30
REMARK    5  A    between atoms: O_5  and  C_16
REMARK    6  A    between atoms: O_6  and  C_17
REMARK    7  A    between atoms: O_7  and  C_18
REMARK    8  A    between atoms: O_8  and  C_20
REMARK    9  A    between atoms: O_9  and  C_21
REMARK   10  A    between atoms: O_10  and  C_23
REMARK   11  A    between atoms: O_11  and  C_26
REMARK   12  A    between atoms: O_13  and  C_36
REMARK   13  A    between atoms: O_15  and  C_45
REMARK   14  A    between atoms: O_15  and  C_48
REMARK   15  A    between atoms: C_19  and  C_26
REMARK   16  A    between atoms: C_24  and  C_27
REMARK   17  A    between atoms: C_29  and  C_37
REMARK   18  A    between atoms: C_35  and  C_38
REMARK   19  A    between atoms: C_37  and  C_39
REMARK   20  A    between atoms: C_42  and  C_46
REMARK   21  A    between atoms: C_42  and  C_47
REMARK                            x       y       z     vdW  Elec       q    Type
REMARK                         _______ _______ _______ _____ _____    ______ ____
ROOT
ATOM      1  O   UNL     1      57.556  38.706  73.185  0.00  0.00    +0.000 OA
ATOM      2  O   UNL     1      58.054  35.625  70.588  0.00  0.00    +0.000 OA
ATOM      3  C   UNL     1      59.219  36.324  75.408  0.00  0.00    +0.000 A 
ATOM      4  C   UNL     1      58.594  37.498  74.953  0.00  0.00    +0.000 A 
ATOM      5  C   UNL     1      57.210  37.816  70.964  0.00  0.00    +0.000 A 
ATOM      6  C   UNL     1      58.163  37.550  73.612  0.00  0.00    +0.000 A 
ATOM      7  C   UNL     1      58.362  36.464  72.758  0.00  0.00    +0.000 A 
ATOM      8  C   UNL     1      57.886  36.558  71.371  0.00  0.00    +0.000 A 
ATOM      9  C   UNL     1      59.454  35.252  74.541  0.00  0.00    +0.000 A 
ATOM     10  C   UNL     1      57.065  38.776  71.895  0.00  0.00    +0.000 A 
ATOM     11  C   UNL     1      59.013  35.319  73.225  0.00  0.00    +0.000 A 
ENDROOT
BRANCH  10  12
ATOM     12  C   UNL     1      56.392  40.051  71.607  0.00  0.00    +0.000 A 
ATOM     13  C   UNL     1      57.116  41.115  71.058  0.00  0.00    +0.000 A 
ATOM     14  C   UNL     1      55.031  40.231  71.884  0.00  0.00    +0.000 A 
ATOM     15  C   UNL     1      56.483  42.328  70.778  0.00  0.00    +0.000 A 
ATOM     16  C   UNL     1      54.398  41.447  71.600  0.00  0.00    +0.000 A 
ATOM     17  C   UNL     1      55.121  42.500  71.040  0.00  0.00    +0.000 A 
BRANCH  17  18
ATOM     18  O   UNL     1      54.627  43.731  70.713  0.00  0.00    +0.000 OA
ATOM     19  C   UNL     1      55.325  44.860  71.225  0.00  0.00    +0.000 C 
ENDBRANCH  17  18
ENDBRANCH  10  12
BRANCH  11  20
ATOM     20  O   UNL     1      59.262  34.225  72.441  0.00  0.00    +0.000 OA
ATOM     21  H   UNL     1      58.650  34.250  71.672  0.00  0.00    +0.000 HD
ENDBRANCH  11  20
BRANCH   4  22
ATOM     22  C   UNL     1      58.347  38.673  75.880  0.00  0.00    +0.000 C 
BRANCH  22  23
ATOM     23  C   UNL     1      57.049  38.545  76.635  0.00  0.00    +0.000 C 
ATOM     24  C   UNL     1      55.912  39.251  76.481  0.00  0.00    +0.000 C 
ATOM     25  C   UNL     1      55.694  40.353  75.481  0.00  0.00    +0.000 C 
ATOM     26  C   UNL     1      54.714  38.961  77.346  0.00  0.00    +0.000 C 
ENDBRANCH  22  23
ENDBRANCH   4  22
BRANCH   5  27
ATOM     27  O   UNL     1      56.690  37.922  69.687  0.00  0.00    +0.000 OA
BRANCH  27  33
ATOM     28  O   UNL     1      55.761  36.478  68.054  0.00  0.00    +0.000 OA
ATOM     29  C   UNL     1      53.926  38.597  68.733  0.00  0.00    +0.000 C 
ATOM     30  C   UNL     1      54.070  38.080  67.295  0.00  0.00    +0.000 C 
ATOM     31  C   UNL     1      54.301  37.516  69.747  0.00  0.00    +0.000 C 
ATOM     32  C   UNL     1      55.475  37.501  67.091  0.00  0.00    +0.000 C 
ATOM     33  C   UNL     1      55.690  36.932  69.414  0.00  0.00    +0.000 C 
ATOM     34  C   UNL     1      55.628  36.880  65.706  0.00  0.00    +0.000 C 
BRANCH  29  35
ATOM     35  O   UNL     1      52.561  39.010  68.931  0.00  0.00    +0.000 OA
ATOM     36  H   UNL     1      52.032  38.400  68.375  0.00  0.00    +0.000 HD
ENDBRANCH  29  35
BRANCH  30  37
ATOM     37  O   UNL     1      53.817  39.161  66.389  0.00  0.00    +0.000 OA
ATOM     38  H   UNL     1      52.974  39.556  66.690  0.00  0.00    +0.000 HD
ENDBRANCH  30  37
BRANCH  31  39
ATOM     39  O   UNL     1      53.264  36.513  69.716  0.00  0.00    +0.000 OA
ATOM     40  H   UNL     1      53.239  36.098  70.598  0.00  0.00    +0.000 HD
ENDBRANCH  31  39
ENDBRANCH  27  33
ENDBRANCH   5  27
BRANCH   3  41
ATOM     41  O   UNL     1      59.693  36.273  76.694  0.00  0.00    +0.000 OA
BRANCH  41  47
ATOM     42  O   UNL     1      57.621  35.569  77.594  0.00  0.00    +0.000 OA
ATOM     43  C   UNL     1      58.940  34.383  79.833  0.00  0.00    +0.000 C 
ATOM     44  C   UNL     1      57.430  34.631  79.827  0.00  0.00    +0.000 C 
ATOM     45  C   UNL     1      59.658  35.349  78.892  0.00  0.00    +0.000 C 
ATOM     46  C   UNL     1      56.911  34.597  78.382  0.00  0.00    +0.000 C 
ATOM     47  C   UNL     1      59.015  35.282  77.494  0.00  0.00    +0.000 C 
BRANCH  44  48
ATOM     48  O   UNL     1      56.790  33.641  80.634  0.00  0.00    +0.000 OA
ATOM     49  H   UNL     1      56.062  34.113  81.089  0.00  0.00    +0.000 HD
ENDBRANCH  44  48
BRANCH  45  50
ATOM     50  O   UNL     1      61.053  35.003  78.862  0.00  0.00    +0.000 OA
ATOM     51  H   UNL     1      61.135  34.277  78.213  0.00  0.00    +0.000 HD
ENDBRANCH  45  50
BRANCH  43  52
ATOM     52  O   UNL     1      59.432  34.534  81.174  0.00  0.00    +0.000 OA
ATOM     53  H   UNL     1      58.671  34.872  81.688  0.00  0.00    +0.000 HD
ENDBRANCH  43  52
BRANCH  46  54
ATOM     54  C   UNL     1      55.414  34.924  78.323  0.00  0.00    +0.000 C 
BRANCH  54  55
ATOM     55  O   UNL     1      54.856  34.418  77.107  0.00  0.00    +0.000 OA
ATOM     56  H   UNL     1      53.988  34.841  76.998  0.00  0.00    +0.000 HD
ENDBRANCH  54  55
ENDBRANCH  46  54
ENDBRANCH  41  47
ENDBRANCH   3  41
TORSDOF 17
ENDMDL
MODEL 3
REMARK VINA RESULT:      -6.8      2.139      3.146
REMARK  Name = 
REMARK  21 active torsions:
REMARK  status: ('A' for Active; 'I' for Inactive)
REMARK    1  A    between atoms: O_3  and  C_22
REMARK    2  A    between atoms: O_3  and  C_28
REMARK    3  A    between atoms: O_4  and  C_25
REMARK    4  A    between atoms: O_4  and  C_30
REMARK    5  A    between atoms: O_5  and  C_16
REMARK    6  A    between atoms: O_6  and  C_17
REMARK    7  A    between atoms: O_7  and  C_18
REMARK    8  A    between atoms: O_8  and  C_20
REMARK    9  A    between atoms: O_9  and  C_21
REMARK   10  A    between atoms: O_10  and  C_23
REMARK   11  A    between atoms: O_11  and  C_26
REMARK   12  A    between atoms: O_13  and  C_36
REMARK   13  A    between atoms: O_15  and  C_45
REMARK   14  A    between atoms: O_15  and  C_48
REMARK   15  A    between atoms: C_19  and  C_26
REMARK   16  A    between atoms: C_24  and  C_27
REMARK   17  A    between atoms: C_29  and  C_37
REMARK   18  A    between atoms: C_35  and  C_38
REMARK   19  A    between atoms: C_37  and  C_39
REMARK   20  A    between atoms: C_42  and  C_46
REMARK   21  A    between atoms: C_42  and  C_47
REMARK                            x       y       z     vdW  Elec       q    Type
REMARK                         _______ _______ _______ _____ _____    ______ ____
ROOT
ATOM      1  O   UNL     1      59.536  35.723  72.091  0.00  0.00    +0.000 OA
ATOM      2  O   UNL     1      62.118  33.698  74.483  0.00  0.00    +0.000 OA
ATOM      3  C   UNL     1      58.510  37.065  75.337  0.00  0.00    +0.000 A 
ATOM      4  C   UNL     1      58.559  36.845  73.948  0.00  0.00    +0.000 A 
ATOM      5  C   UNL     1      61.309  34.091  72.281  0.00  0.00    +0.000 A 
ATOM      6  C   UNL     1      59.503  35.924  73.450  0.00  0.00    +0.000 A 
ATOM      7  C   UNL     1      60.371  35.256  74.315  0.00  0.00    +0.000 A 
ATOM      8  C   UNL     1      61.330  34.297  73.752  0.00  0.00    +0.000 A 
ATOM      9  C   UNL     1      59.408  36.426  76.198  0.00  0.00    +0.000 A 
ATOM     10  C   UNL     1      60.405  34.785  71.567  0.00  0.00    +0.000 A 
ATOM     11  C   UNL     1      60.325  35.514  75.687  0.00  0.00    +0.000 A 
ENDROOT
BRANCH  10  12
ATOM     12  C   UNL     1      60.281  34.642  70.109  0.00  0.00    +0.000 A 
ATOM     13  C   UNL     1      61.305  35.104  69.273  0.00  0.00    +0.000 A 
ATOM     14  C   UNL     1      59.146  34.061  69.531  0.00  0.00    +0.000 A 
ATOM     15  C   UNL     1      61.197  34.968  67.887  0.00  0.00    +0.000 A 
ATOM     16  C   UNL     1      59.042  33.923  68.141  0.00  0.00    +0.000 A 
ATOM     17  C   UNL     1      60.071  34.372  67.314  0.00  0.00    +0.000 A 
BRANCH  17  18
ATOM     18  O   UNL     1      60.097  34.297  65.949  0.00  0.00    +0.000 OA
ATOM     19  C   UNL     1      59.323  35.255  65.239  0.00  0.00    +0.000 C 
ENDBRANCH  17  18
ENDBRANCH  10  12
BRANCH  11  20
ATOM     20  O   UNL     1      61.157  34.915  76.592  0.00  0.00    +0.000 OA
ATOM     21  H   UNL     1      61.575  34.137  76.160  0.00  0.00    +0.000 HD
ENDBRANCH  11  20
BRANCH   4  22
ATOM     22  C   UNL     1      57.600  37.543  73.003  0.00  0.00    +0.000 C 
BRANCH  22  23
ATOM     23  C   UNL     1      58.006  38.967  72.724  0.00  0.00    +0.000 C 
ATOM     24  C   UNL     1      57.311  40.101  72.948  0.00  0.00    +0.000 C 
ATOM     25  C   UNL     1      55.937  40.181  73.551  0.00  0.00    +0.000 C 
ATOM     26  C   UNL     1      57.906  41.439  72.594  0.00  0.00    +0.000 C 
ENDBRANCH  22  23
ENDBRANCH   4  22
BRANCH   5  27
ATOM     27  O   UNL     1      62.152  33.151  71.717  0.00  0.00    +0.000 OA
BRANCH  27  33
ATOM     28  O   UNL     1      62.863  30.935  72.163  0.00  0.00    +0.000 OA
ATOM     29  C   UNL     1      61.635  31.129  69.561  0.00  0.00    +0.000 C 
ATOM     30  C   UNL     1      62.856  30.236  69.814  0.00  0.00    +0.000 C 
ATOM     31  C   UNL     1      60.820  31.325  70.840  0.00  0.00    +0.000 C 
ATOM     32  C   UNL     1      63.671  30.795  70.987  0.00  0.00    +0.000 C 
ATOM     33  C   UNL     1      61.736  31.806  71.986  0.00  0.00    +0.000 C 
ATOM     34  C   UNL     1      64.839  29.880  71.342  0.00  0.00    +0.000 C 
BRANCH  29  35
ATOM     35  O   UNL     1      60.823  30.508  68.547  0.00  0.00    +0.000 OA
ATOM     36  H   UNL     1      61.211  29.616  68.426  0.00  0.00    +0.000 HD
ENDBRANCH  29  35
BRANCH  30  37
ATOM     37  O   UNL     1      63.641  30.178  68.618  0.00  0.00    +0.000 OA
ATOM     38  H   UNL     1      64.568  30.097  68.923  0.00  0.00    +0.000 HD
ENDBRANCH  30  37
BRANCH  31  39
ATOM     39  O   UNL     1      60.178  30.069  71.143  0.00  0.00    +0.000 OA
ATOM     40  H   UNL     1      60.642  29.378  70.635  0.00  0.00    +0.000 HD
ENDBRANCH  31  39
ENDBRANCH  27  33
ENDBRANCH   5  27
BRANCH   3  41
ATOM     41  O   UNL     1      57.636  37.996  75.837  0.00  0.00    +0.000 OA
BRANCH  41  47
ATOM     42  O   UNL     1      57.621  37.121  78.035  0.00  0.00    +0.000 OA
ATOM     43  C   UNL     1      55.319  35.538  77.443  0.00  0.00    +0.000 C 
ATOM     44  C   UNL     1      56.171  35.286  78.690  0.00  0.00    +0.000 C 
ATOM     45  C   UNL     1      56.141  36.209  76.344  0.00  0.00    +0.000 C 
ATOM     46  C   UNL     1      56.842  36.597  79.124  0.00  0.00    +0.000 C 
ATOM     47  C   UNL     1      56.822  37.471  76.906  0.00  0.00    +0.000 C 
BRANCH  44  48
ATOM     48  O   UNL     1      55.339  34.758  79.724  0.00  0.00    +0.000 OA
ATOM     49  H   UNL     1      55.652  35.185  80.548  0.00  0.00    +0.000 HD
ENDBRANCH  44  48
BRANCH  45  50
ATOM     50  O   UNL     1      55.269  36.511  75.243  0.00  0.00    +0.000 OA
ATOM     51  H   UNL     1      54.673  35.741  75.155  0.00  0.00    +0.000 HD
ENDBRANCH  45  50
BRANCH  43  52
ATOM     52  O   UNL     1      54.793  34.285  76.977  0.00  0.00    +0.000 OA
ATOM     53  H   UNL     1      55.365  33.602  77.382  0.00  0.00    +0.000 HD
ENDBRANCH  43  52
BRANCH  46  54
ATOM     54  C   UNL     1      57.772  36.372  80.324  0.00  0.00    +0.000 C 
BRANCH  54  55
ATOM     55  O   UNL     1      57.074  36.666  81.537  0.00  0.00    +0.000 OA
ATOM     56  H   UNL     1      56.451  37.384  81.337  0.00  0.00    +0.000 HD
ENDBRANCH  54  55
ENDBRANCH  46  54
ENDBRANCH  41  47
ENDBRANCH   3  41
TORSDOF 17
ENDMDL
MODEL 4
REMARK VINA RESULT:      -6.7      4.878      9.701
REMARK  Name = 
REMARK  21 active torsions:
REMARK  status: ('A' for Active; 'I' for Inactive)
REMARK    1  A    between atoms: O_3  and  C_22
REMARK    2  A    between atoms: O_3  and  C_28
REMARK    3  A    between atoms: O_4  and  C_25
REMARK    4  A    between atoms: O_4  and  C_30
REMARK    5  A    between atoms: O_5  and  C_16
REMARK    6  A    between atoms: O_6  and  C_17
REMARK    7  A    between atoms: O_7  and  C_18
REMARK    8  A    between atoms: O_8  and  C_20
REMARK    9  A    between atoms: O_9  and  C_21
REMARK   10  A    between atoms: O_10  and  C_23
REMARK   11  A    between atoms: O_11  and  C_26
REMARK   12  A    between atoms: O_13  and  C_36
REMARK   13  A    between atoms: O_15  and  C_45
REMARK   14  A    between atoms: O_15  and  C_48
REMARK   15  A    between atoms: C_19  and  C_26
REMARK   16  A    between atoms: C_24  and  C_27
REMARK   17  A    between atoms: C_29  and  C_37
REMARK   18  A    between atoms: C_35  and  C_38
REMARK   19  A    between atoms: C_37  and  C_39
REMARK   20  A    between atoms: C_42  and  C_46
REMARK   21  A    between atoms: C_42  and  C_47
REMARK                            x       y       z     vdW  Elec       q    Type
REMARK                         _______ _______ _______ _____ _____    ______ ____
ROOT
ATOM      1  O   UNL     1      61.549  37.313  74.234  0.00  0.00    +0.000 OA
ATOM      2  O   UNL     1      60.678  34.717  77.232  0.00  0.00    +0.000 OA
ATOM      3  C   UNL     1      64.948  36.510  75.325  0.00  0.00    +0.000 A 
ATOM      4  C   UNL     1      63.889  37.087  74.600  0.00  0.00    +0.000 A 
ATOM      5  C   UNL     1      59.862  36.181  75.546  0.00  0.00    +0.000 A 
ATOM      6  C   UNL     1      62.569  36.740  74.954  0.00  0.00    +0.000 A 
ATOM      7  C   UNL     1      62.323  35.839  75.990  0.00  0.00    +0.000 A 
ATOM      8  C   UNL     1      60.932  35.515  76.332  0.00  0.00    +0.000 A 
ATOM      9  C   UNL     1      64.701  35.576  76.336  0.00  0.00    +0.000 A 
ATOM     10  C   UNL     1      60.239  37.046  74.587  0.00  0.00    +0.000 A 
ATOM     11  C   UNL     1      63.392  35.254  76.675  0.00  0.00    +0.000 A 
ENDROOT
BRANCH  10  12
ATOM     12  C   UNL     1      59.265  37.778  73.764  0.00  0.00    +0.000 A 
ATOM     13  C   UNL     1      59.128  39.163  73.911  0.00  0.00    +0.000 A 
ATOM     14  C   UNL     1      58.454  37.112  72.836  0.00  0.00    +0.000 A 
ATOM     15  C   UNL     1      58.207  39.866  73.131  0.00  0.00    +0.000 A 
ATOM     16  C   UNL     1      57.534  37.820  72.053  0.00  0.00    +0.000 A 
ATOM     17  C   UNL     1      57.411  39.203  72.194  0.00  0.00    +0.000 A 
BRANCH  17  18
ATOM     18  O   UNL     1      56.559  40.010  71.493  0.00  0.00    +0.000 OA
ATOM     19  C   UNL     1      55.363  40.405  72.153  0.00  0.00    +0.000 C 
ENDBRANCH  17  18
ENDBRANCH  10  12
BRANCH  11  20
ATOM     20  O   UNL     1      63.229  34.348  77.687  0.00  0.00    +0.000 OA
ATOM     21  H   UNL     1      62.383  33.870  77.541  0.00  0.00    +0.000 HD
ENDBRANCH  11  20
BRANCH   4  22
ATOM     22  C   UNL     1      64.145  38.089  73.491  0.00  0.00    +0.000 C 
BRANCH  22  23
ATOM     23  C   UNL     1      63.996  39.514  73.960  0.00  0.00    +0.000 C 
ATOM     24  C   UNL     1      64.076  40.650  73.241  0.00  0.00    +0.000 C 
ATOM     25  C   UNL     1      64.334  40.734  71.762  0.00  0.00    +0.000 C 
ATOM     26  C   UNL     1      63.894  41.988  73.910  0.00  0.00    +0.000 C 
ENDBRANCH  22  23
ENDBRANCH   4  22
BRANCH   5  27
ATOM     27  O   UNL     1      58.539  35.954  75.875  0.00  0.00    +0.000 OA
BRANCH  27  33
ATOM     28  O   UNL     1      57.935  36.343  78.133  0.00  0.00    +0.000 OA
ATOM     29  C   UNL     1      55.613  36.331  76.423  0.00  0.00    +0.000 C 
ATOM     30  C   UNL     1      55.584  35.723  77.831  0.00  0.00    +0.000 C 
ATOM     31  C   UNL     1      56.669  37.432  76.320  0.00  0.00    +0.000 C 
ATOM     32  C   UNL     1      56.993  35.265  78.226  0.00  0.00    +0.000 C 
ATOM     33  C   UNL     1      58.033  36.908  76.818  0.00  0.00    +0.000 C 
ATOM     34  C   UNL     1      57.030  34.749  79.661  0.00  0.00    +0.000 C 
BRANCH  29  35
ATOM     35  O   UNL     1      54.308  36.868  76.136  0.00  0.00    +0.000 OA
ATOM     36  H   UNL     1      54.368  37.816  76.379  0.00  0.00    +0.000 HD
ENDBRANCH  29  35
BRANCH  30  37
ATOM     37  O   UNL     1      54.661  34.627  77.841  0.00  0.00    +0.000 OA
ATOM     38  H   UNL     1      54.601  34.333  76.909  0.00  0.00    +0.000 HD
ENDBRANCH  30  37
BRANCH  31  39
ATOM     39  O   UNL     1      56.201  38.558  77.091  0.00  0.00    +0.000 OA
ATOM     40  H   UNL     1      56.308  38.327  78.032  0.00  0.00    +0.000 HD
ENDBRANCH  31  39
ENDBRANCH  27  33
ENDBRANCH   5  27
BRANCH   3  41
ATOM     41  O   UNL     1      66.240  36.793  74.962  0.00  0.00    +0.000 OA
BRANCH  41  47
ATOM     42  O   UNL     1      66.935  39.036  75.252  0.00  0.00    +0.000 OA
ATOM     43  C   UNL     1      69.059  38.207  76.972  0.00  0.00    +0.000 C 
ATOM     44  C   UNL     1      69.011  39.615  76.372  0.00  0.00    +0.000 C 
ATOM     45  C   UNL     1      68.291  37.214  76.102  0.00  0.00    +0.000 C 
ATOM     46  C   UNL     1      67.551  40.011  76.112  0.00  0.00    +0.000 C 
ATOM     47  C   UNL     1      66.867  37.742  75.850  0.00  0.00    +0.000 C 
BRANCH  44  48
ATOM     48  O   UNL     1      69.648  40.527  77.269  0.00  0.00    +0.000 OA
ATOM     49  H   UNL     1      70.206  41.097  76.700  0.00  0.00    +0.000 HD
ENDBRANCH  44  48
BRANCH  45  50
ATOM     50  O   UNL     1      68.284  35.939  76.764  0.00  0.00    +0.000 OA
ATOM     51  H   UNL     1      68.452  35.274  76.067  0.00  0.00    +0.000 HD
ENDBRANCH  45  50
BRANCH  43  52
ATOM     52  O   UNL     1      70.431  37.801  77.101  0.00  0.00    +0.000 OA
ATOM     53  H   UNL     1      70.771  38.294  77.875  0.00  0.00    +0.000 HD
ENDBRANCH  43  52
BRANCH  46  54
ATOM     54  C   UNL     1      67.462  41.384  75.432  0.00  0.00    +0.000 C 
BRANCH  54  55
ATOM     55  O   UNL     1      67.538  42.416  76.418  0.00  0.00    +0.000 OA
ATOM     56  H   UNL     1      66.731  42.951  76.329  0.00  0.00    +0.000 HD
ENDBRANCH  54  55
ENDBRANCH  46  54
ENDBRANCH  41  47
ENDBRANCH   3  41
TORSDOF 17
ENDMDL
MODEL 5
REMARK VINA RESULT:      -6.7      5.143      7.341
REMARK  Name = 
REMARK  21 active torsions:
REMARK  status: ('A' for Active; 'I' for Inactive)
REMARK    1  A    between atoms: O_3  and  C_22
REMARK    2  A    between atoms: O_3  and  C_28
REMARK    3  A    between atoms: O_4  and  C_25
REMARK    4  A    between atoms: O_4  and  C_30
REMARK    5  A    between atoms: O_5  and  C_16
REMARK    6  A    between atoms: O_6  and  C_17
REMARK    7  A    between atoms: O_7  and  C_18
REMARK    8  A    between atoms: O_8  and  C_20
REMARK    9  A    between atoms: O_9  and  C_21
REMARK   10  A    between atoms: O_10  and  C_23
REMARK   11  A    between atoms: O_11  and  C_26
REMARK   12  A    between atoms: O_13  and  C_36
REMARK   13  A    between atoms: O_15  and  C_45
REMARK   14  A    between atoms: O_15  and  C_48
REMARK   15  A    between atoms: C_19  and  C_26
REMARK   16  A    between atoms: C_24  and  C_27
REMARK   17  A    between atoms: C_29  and  C_37
REMARK   18  A    between atoms: C_35  and  C_38
REMARK   19  A    between atoms: C_37  and  C_39
REMARK   20  A    between atoms: C_42  and  C_46
REMARK   21  A    between atoms: C_42  and  C_47
REMARK                            x       y       z     vdW  Elec       q    Type
REMARK                         _______ _______ _______ _____ _____    ______ ____
ROOT
ATOM      1  O   UNL     1      62.372  38.434  74.585  0.00  0.00    +0.000 OA
ATOM      2  O   UNL     1      65.439  36.339  76.223  0.00  0.00    +0.000 OA
ATOM      3  C   UNL     1      60.455  35.879  76.370  0.00  0.00    +0.000 A 
ATOM      4  C   UNL     1      60.750  36.998  75.569  0.00  0.00    +0.000 A 
ATOM      5  C   UNL     1      64.759  38.146  74.834  0.00  0.00    +0.000 A 
ATOM      6  C   UNL     1      62.103  37.338  75.369  0.00  0.00    +0.000 A 
ATOM      7  C   UNL     1      63.121  36.587  75.958  0.00  0.00    +0.000 A 
ATOM      8  C   UNL     1      64.517  36.972  75.711  0.00  0.00    +0.000 A 
ATOM      9  C   UNL     1      61.474  35.153  76.993  0.00  0.00    +0.000 A 
ATOM     10  C   UNL     1      63.685  38.767  74.314  0.00  0.00    +0.000 A 
ATOM     11  C   UNL     1      62.802  35.499  76.773  0.00  0.00    +0.000 A 
ENDROOT
BRANCH  10  12
ATOM     12  C   UNL     1      63.809  39.925  73.415  0.00  0.00    +0.000 A 
ATOM     13  C   UNL     1      63.390  41.189  73.845  0.00  0.00    +0.000 A 
ATOM     14  C   UNL     1      64.329  39.787  72.122  0.00  0.00    +0.000 A 
ATOM     15  C   UNL     1      63.508  42.294  72.999  0.00  0.00    +0.000 A 
ATOM     16  C   UNL     1      64.449  40.897  71.278  0.00  0.00    +0.000 A 
ATOM     17  C   UNL     1      64.043  42.158  71.716  0.00  0.00    +0.000 A 
BRANCH  17  18
ATOM     18  O   UNL     1      64.108  43.318  70.997  0.00  0.00    +0.000 OA
ATOM     19  C   UNL     1      64.284  44.521  71.734  0.00  0.00    +0.000 C 
ENDBRANCH  17  18
ENDBRANCH  10  12
BRANCH  11  20
ATOM     20  O   UNL     1      63.744  34.730  77.401  0.00  0.00    +0.000 OA
ATOM     21  H   UNL     1      64.114  34.097  76.745  0.00  0.00    +0.000 HD
ENDBRANCH  11  20
BRANCH   4  22
ATOM     22  C   UNL     1      59.652  37.803  74.901  0.00  0.00    +0.000 C 
BRANCH  22  23
ATOM     23  C   UNL     1      59.126  37.134  73.658  0.00  0.00    +0.000 C 
ATOM     24  C   UNL     1      58.320  37.642  72.704  0.00  0.00    +0.000 C 
ATOM     25  C   UNL     1      57.762  39.038  72.682  0.00  0.00    +0.000 C 
ATOM     26  C   UNL     1      57.909  36.797  71.527  0.00  0.00    +0.000 C 
ENDBRANCH  22  23
ENDBRANCH   4  22
BRANCH   5  27
ATOM     27  O   UNL     1      66.058  38.503  74.524  0.00  0.00    +0.000 OA
BRANCH  27  33
ATOM     28  O   UNL     1      66.615  40.718  75.155  0.00  0.00    +0.000 OA
ATOM     29  C   UNL     1      68.982  39.177  74.572  0.00  0.00    +0.000 C 
ATOM     30  C   UNL     1      68.862  40.655  74.180  0.00  0.00    +0.000 C 
ATOM     31  C   UNL     1      68.102  38.854  75.780  0.00  0.00    +0.000 C 
ATOM     32  C   UNL     1      67.385  41.020  73.984  0.00  0.00    +0.000 C 
ATOM     33  C   UNL     1      66.656  39.333  75.528  0.00  0.00    +0.000 C 
ATOM     34  C   UNL     1      67.212  42.508  73.695  0.00  0.00    +0.000 C 
BRANCH  29  35
ATOM     35  O   UNL     1      70.362  38.900  74.877  0.00  0.00    +0.000 OA
ATOM     36  H   UNL     1      70.385  38.782  75.850  0.00  0.00    +0.000 HD
ENDBRANCH  29  35
BRANCH  30  37
ATOM     37  O   UNL     1      69.614  40.876  72.981  0.00  0.00    +0.000 OA
ATOM     38  H   UNL     1      70.324  40.202  72.995  0.00  0.00    +0.000 HD
ENDBRANCH  30  37
BRANCH  31  39
ATOM     39  O   UNL     1      68.695  39.488  76.932  0.00  0.00    +0.000 OA
ATOM     40  H   UNL     1      68.035  40.110  77.290  0.00  0.00    +0.000 HD
ENDBRANCH  31  39
ENDBRANCH  27  33
ENDBRANCH   5  27
BRANCH   3  41
ATOM     41  O   UNL     1      59.144  35.563  76.621  0.00  0.00    +0.000 OA
BRANCH  41  47
ATOM     42  O   UNL     1      58.934  34.646  78.792  0.00  0.00    +0.000 OA
ATOM     43  C   UNL     1      56.776  36.420  79.387  0.00  0.00    +0.000 C 
ATOM     44  C   UNL     1      57.078  35.198  80.259  0.00  0.00    +0.000 C 
ATOM     45  C   UNL     1      57.281  36.213  77.960  0.00  0.00    +0.000 C 
ATOM     46  C   UNL     1      58.573  34.862  80.168  0.00  0.00    +0.000 C 
ATOM     47  C   UNL     1      58.769  35.815  77.992  0.00  0.00    +0.000 C 
BRANCH  44  48
ATOM     48  O   UNL     1      56.686  35.476  81.604  0.00  0.00    +0.000 OA
ATOM     49  H   UNL     1      55.707  35.498  81.586  0.00  0.00    +0.000 HD
ENDBRANCH  44  48
BRANCH  45  50
ATOM     50  O   UNL     1      57.062  37.425  77.220  0.00  0.00    +0.000 OA
ATOM     51  H   UNL     1      56.092  37.524  77.148  0.00  0.00    +0.000 HD
ENDBRANCH  45  50
BRANCH  43  52
ATOM     52  O   UNL     1      55.358  36.653  79.386  0.00  0.00    +0.000 OA
ATOM     53  H   UNL     1      55.055  36.374  78.498  0.00  0.00    +0.000 HD
ENDBRANCH  43  52
BRANCH  46  54
ATOM     54  C   UNL     1      58.905  33.591  80.962  0.00  0.00    +0.000 C 
BRANCH  54  55
ATOM     55  O   UNL     1      59.197  33.933  82.319  0.00  0.00    +0.000 OA
ATOM     56  H   UNL     1      59.447  33.109  82.770  0.00  0.00    +0.000 HD
ENDBRANCH  54  55
ENDBRANCH  46  54
ENDBRANCH  41  47
ENDBRANCH   3  41
TORSDOF 17
ENDMDL
MODEL 6
REMARK VINA RESULT:      -6.6      4.249      9.766
REMARK  Name = 
REMARK  21 active torsions:
REMARK  status: ('A' for Active; 'I' for Inactive)
REMARK    1  A    between atoms: O_3  and  C_22
REMARK    2  A    between atoms: O_3  and  C_28
REMARK    3  A    between atoms: O_4  and  C_25
REMARK    4  A    between atoms: O_4  and  C_30
REMARK    5  A    between atoms: O_5  and  C_16
REMARK    6  A    between atoms: O_6  and  C_17
REMARK    7  A    between atoms: O_7  and  C_18
REMARK    8  A    between atoms: O_8  and  C_20
REMARK    9  A    between atoms: O_9  and  C_21
REMARK   10  A    between atoms: O_10  and  C_23
REMARK   11  A    between atoms: O_11  and  C_26
REMARK   12  A    between atoms: O_13  and  C_36
REMARK   13  A    between atoms: O_15  and  C_45
REMARK   14  A    between atoms: O_15  and  C_48
REMARK   15  A    between atoms: C_19  and  C_26
REMARK   16  A    between atoms: C_24  and  C_27
REMARK   17  A    between atoms: C_29  and  C_37
REMARK   18  A    between atoms: C_35  and  C_38
REMARK   19  A    between atoms: C_37  and  C_39
REMARK   20  A    between atoms: C_42  and  C_46
REMARK   21  A    between atoms: C_42  and  C_47
REMARK                            x       y       z     vdW  Elec       q    Type
REMARK                         _______ _______ _______ _____ _____    ______ ____
ROOT
ATOM      1  O   UNL     1      61.645  37.183  74.360  0.00  0.00    +0.000 OA
ATOM      2  O   UNL     1      60.510  34.690  77.357  0.00  0.00    +0.000 OA
ATOM      3  C   UNL     1      64.942  36.021  75.440  0.00  0.00    +0.000 A 
ATOM      4  C   UNL     1      63.949  36.709  74.720  0.00  0.00    +0.000 A 
ATOM      5  C   UNL     1      59.851  36.236  75.675  0.00  0.00    +0.000 A 
ATOM      6  C   UNL     1      62.600  36.503  75.076  0.00  0.00    +0.000 A 
ATOM      7  C   UNL     1      62.262  35.632  76.112  0.00  0.00    +0.000 A 
ATOM      8  C   UNL     1      60.845  35.458  76.457  0.00  0.00    +0.000 A 
ATOM      9  C   UNL     1      64.600  35.117  76.451  0.00  0.00    +0.000 A 
ATOM     10  C   UNL     1      60.315  37.056  74.716  0.00  0.00    +0.000 A 
ATOM     11  C   UNL     1      63.264  34.936  76.794  0.00  0.00    +0.000 A 
ENDROOT
BRANCH  10  12
ATOM     12  C   UNL     1      59.422  37.890  73.897  0.00  0.00    +0.000 A 
ATOM     13  C   UNL     1      59.433  39.281  74.047  0.00  0.00    +0.000 A 
ATOM     14  C   UNL     1      58.543  37.316  72.969  0.00  0.00    +0.000 A 
ATOM     15  C   UNL     1      58.591  40.079  73.269  0.00  0.00    +0.000 A 
ATOM     16  C   UNL     1      57.703  38.119  72.189  0.00  0.00    +0.000 A 
ATOM     17  C   UNL     1      57.727  39.506  72.333  0.00  0.00    +0.000 A 
BRANCH  17  18
ATOM     18  O   UNL     1      56.964  40.400  71.636  0.00  0.00    +0.000 OA
ATOM     19  C   UNL     1      56.874  40.208  70.230  0.00  0.00    +0.000 C 
ENDBRANCH  17  18
ENDBRANCH  10  12
BRANCH  11  20
ATOM     20  O   UNL     1      63.009  34.051  77.805  0.00  0.00    +0.000 OA
ATOM     21  H   UNL     1      62.092  33.712  77.695  0.00  0.00    +0.000 HD
ENDBRANCH  11  20
BRANCH   4  22
ATOM     22  C   UNL     1      64.307  37.680  73.611  0.00  0.00    +0.000 C 
BRANCH  22  23
ATOM     23  C   UNL     1      64.825  38.991  74.143  0.00  0.00    +0.000 C 
ATOM     24  C   UNL     1      64.247  40.207  74.095  0.00  0.00    +0.000 C 
ATOM     25  C   UNL     1      62.909  40.517  73.483  0.00  0.00    +0.000 C 
ATOM     26  C   UNL     1      64.940  41.403  74.695  0.00  0.00    +0.000 C 
ENDBRANCH  22  23
ENDBRANCH   4  22
BRANCH   5  27
ATOM     27  O   UNL     1      58.511  36.150  76.008  0.00  0.00    +0.000 OA
BRANCH  27  33
ATOM     28  O   UNL     1      58.079  36.832  78.235  0.00  0.00    +0.000 OA
ATOM     29  C   UNL     1      55.637  36.642  76.714  0.00  0.00    +0.000 C 
ATOM     30  C   UNL     1      55.708  36.217  78.186  0.00  0.00    +0.000 C 
ATOM     31  C   UNL     1      56.690  37.703  76.395  0.00  0.00    +0.000 C 
ATOM     32  C   UNL     1      57.140  35.790  78.533  0.00  0.00    +0.000 C 
ATOM     33  C   UNL     1      58.084  37.224  76.855  0.00  0.00    +0.000 C 
ATOM     34  C   UNL     1      57.280  35.459  80.016  0.00  0.00    +0.000 C 
BRANCH  29  35
ATOM     35  O   UNL     1      54.318  37.160  76.457  0.00  0.00    +0.000 OA
ATOM     36  H   UNL     1      53.989  36.640  75.693  0.00  0.00    +0.000 HD
ENDBRANCH  29  35
BRANCH  30  37
ATOM     37  O   UNL     1      54.781  35.146  78.403  0.00  0.00    +0.000 OA
ATOM     38  H   UNL     1      55.335  34.352  78.548  0.00  0.00    +0.000 HD
ENDBRANCH  30  37
BRANCH  31  39
ATOM     39  O   UNL     1      56.288  38.925  77.049  0.00  0.00    +0.000 OA
ATOM     40  H   UNL     1      55.363  38.809  77.332  0.00  0.00    +0.000 HD
ENDBRANCH  31  39
ENDBRANCH  27  33
ENDBRANCH   5  27
BRANCH   3  41
ATOM     41  O   UNL     1      66.256  36.165  75.075  0.00  0.00    +0.000 OA
BRANCH  41  47
ATOM     42  O   UNL     1      68.038  34.924  76.014  0.00  0.00    +0.000 OA
ATOM     43  C   UNL     1      68.381  33.477  73.576  0.00  0.00    +0.000 C 
ATOM     44  C   UNL     1      69.442  33.460  74.679  0.00  0.00    +0.000 C 
ATOM     45  C   UNL     1      67.537  34.748  73.648  0.00  0.00    +0.000 C 
ATOM     46  C   UNL     1      68.769  33.686  76.040  0.00  0.00    +0.000 C 
ATOM     47  C   UNL     1      66.968  34.910  75.070  0.00  0.00    +0.000 C 
BRANCH  44  48
ATOM     48  O   UNL     1      70.135  32.211  74.640  0.00  0.00    +0.000 OA
ATOM     49  H   UNL     1      70.996  32.382  75.075  0.00  0.00    +0.000 HD
ENDBRANCH  44  48
BRANCH  45  50
ATOM     50  O   UNL     1      66.499  34.662  72.658  0.00  0.00    +0.000 OA
ATOM     51  H   UNL     1      66.671  33.838  72.160  0.00  0.00    +0.000 HD
ENDBRANCH  45  50
BRANCH  43  52
ATOM     52  O   UNL     1      69.034  33.384  72.299  0.00  0.00    +0.000 OA
ATOM     53  H   UNL     1      68.342  33.074  71.681  0.00  0.00    +0.000 HD
ENDBRANCH  43  52
BRANCH  46  54
ATOM     54  C   UNL     1      69.808  33.758  77.167  0.00  0.00    +0.000 C 
BRANCH  54  55
ATOM     55  O   UNL     1      69.207  34.307  78.343  0.00  0.00    +0.000 OA
ATOM     56  H   UNL     1      68.291  33.983  78.369  0.00  0.00    +0.000 HD
ENDBRANCH  54  55
ENDBRANCH  46  54
ENDBRANCH  41  47
ENDBRANCH   3  41
TORSDOF 17
ENDMDL
MODEL 7
REMARK VINA RESULT:      -6.6     22.476     27.059
REMARK  Name = 
REMARK  21 active torsions:
REMARK  status: ('A' for Active; 'I' for Inactive)
REMARK    1  A    between atoms: O_3  and  C_22
REMARK    2  A    between atoms: O_3  and  C_28
REMARK    3  A    between atoms: O_4  and  C_25
REMARK    4  A    between atoms: O_4  and  C_30
REMARK    5  A    between atoms: O_5  and  C_16
REMARK    6  A    between atoms: O_6  and  C_17
REMARK    7  A    between atoms: O_7  and  C_18
REMARK    8  A    between atoms: O_8  and  C_20
REMARK    9  A    between atoms: O_9  and  C_21
REMARK   10  A    between atoms: O_10  and  C_23
REMARK   11  A    between atoms: O_11  and  C_26
REMARK   12  A    between atoms: O_13  and  C_36
REMARK   13  A    between atoms: O_15  and  C_45
REMARK   14  A    between atoms: O_15  and  C_48
REMARK   15  A    between atoms: C_19  and  C_26
REMARK   16  A    between atoms: C_24  and  C_27
REMARK   17  A    between atoms: C_29  and  C_37
REMARK   18  A    between atoms: C_35  and  C_38
REMARK   19  A    between atoms: C_37  and  C_39
REMARK   20  A    between atoms: C_42  and  C_46
REMARK   21  A    between atoms: C_42  and  C_47
REMARK                            x       y       z     vdW  Elec       q    Type
REMARK                         _______ _______ _______ _____ _____    ______ ____
ROOT
ATOM      1  O   UNL     1      38.264  22.814  82.130  0.00  0.00    +0.000 OA
ATOM      2  O   UNL     1      38.813  20.390  85.340  0.00  0.00    +0.000 OA
ATOM      3  C   UNL     1      41.797  23.501  82.790  0.00  0.00    +0.000 A 
ATOM      4  C   UNL     1      40.527  23.549  82.188  0.00  0.00    +0.000 A 
ATOM      5  C   UNL     1      37.312  21.251  83.710  0.00  0.00    +0.000 A 
ATOM      6  C   UNL     1      39.498  22.754  82.733  0.00  0.00    +0.000 A 
ATOM      7  C   UNL     1      39.739  21.934  83.835  0.00  0.00    +0.000 A 
ATOM      8  C   UNL     1      38.634  21.132  84.376  0.00  0.00    +0.000 A 
ATOM      9  C   UNL     1      42.048  22.649  83.870  0.00  0.00    +0.000 A 
ATOM     10  C   UNL     1      37.213  22.096  82.668  0.00  0.00    +0.000 A 
ATOM     11  C   UNL     1      41.017  21.880  84.398  0.00  0.00    +0.000 A 
ENDROOT
BRANCH  10  12
ATOM     12  C   UNL     1      35.948  22.309  81.949  0.00  0.00    +0.000 A 
ATOM     13  C   UNL     1      35.826  21.903  80.615  0.00  0.00    +0.000 A 
ATOM     14  C   UNL     1      34.855  22.926  82.571  0.00  0.00    +0.000 A 
ATOM     15  C   UNL     1      34.626  22.098  79.927  0.00  0.00    +0.000 A 
ATOM     16  C   UNL     1      33.653  23.117  81.880  0.00  0.00    +0.000 A 
ATOM     17  C   UNL     1      33.532  22.698  80.555  0.00  0.00    +0.000 A 
BRANCH  17  18
ATOM     18  O   UNL     1      32.419  22.821  79.770  0.00  0.00    +0.000 OA
ATOM     19  C   UNL     1      32.103  24.128  79.308  0.00  0.00    +0.000 C 
ENDBRANCH  17  18
ENDBRANCH  10  12
BRANCH  11  20
ATOM     20  O   UNL     1      41.334  21.085  85.466  0.00  0.00    +0.000 OA
ATOM     21  H   UNL     1      41.676  21.659  86.187  0.00  0.00    +0.000 HD
ENDBRANCH  11  20
BRANCH   4  22
ATOM     22  C   UNL     1      40.246  24.459  81.007  0.00  0.00    +0.000 C 
BRANCH  22  23
ATOM     23  C   UNL     1      40.348  23.736  79.689  0.00  0.00    +0.000 C 
ATOM     24  C   UNL     1      39.901  24.123  78.478  0.00  0.00    +0.000 C 
ATOM     25  C   UNL     1      39.183  25.410  78.181  0.00  0.00    +0.000 C 
ATOM     26  C   UNL     1      40.110  23.243  77.274  0.00  0.00    +0.000 C 
ENDBRANCH  22  23
ENDBRANCH   4  22
BRANCH   5  27
ATOM     27  O   UNL     1      36.230  20.562  84.225  0.00  0.00    +0.000 OA
BRANCH  27  33
ATOM     28  O   UNL     1      35.317  19.022  82.674  0.00  0.00    +0.000 OA
ATOM     29  C   UNL     1      34.300  18.548  85.331  0.00  0.00    +0.000 C 
ATOM     30  C   UNL     1      33.413  18.405  84.088  0.00  0.00    +0.000 C 
ATOM     31  C   UNL     1      35.770  18.308  84.990  0.00  0.00    +0.000 C 
ATOM     32  C   UNL     1      33.942  19.308  82.967  0.00  0.00    +0.000 C 
ATOM     33  C   UNL     1      36.191  19.195  83.798  0.00  0.00    +0.000 C 
ATOM     34  C   UNL     1      33.151  19.118  81.676  0.00  0.00    +0.000 C 
BRANCH  29  35
ATOM     35  O   UNL     1      33.857  17.594  86.314  0.00  0.00    +0.000 OA
ATOM     36  H   UNL     1      34.337  16.768  86.095  0.00  0.00    +0.000 HD
ENDBRANCH  29  35
BRANCH  30  37
ATOM     37  O   UNL     1      32.067  18.749  84.439  0.00  0.00    +0.000 OA
ATOM     38  H   UNL     1      31.510  18.053  84.035  0.00  0.00    +0.000 HD
ENDBRANCH  30  37
BRANCH  31  39
ATOM     39  O   UNL     1      35.927  16.902  84.707  0.00  0.00    +0.000 OA
ATOM     40  H   UNL     1      35.545  16.413  85.459  0.00  0.00    +0.000 HD
ENDBRANCH  31  39
ENDBRANCH  27  33
ENDBRANCH   5  27
BRANCH   3  41
ATOM     41  O   UNL     1      42.825  24.226  82.244  0.00  0.00    +0.000 OA
BRANCH  41  47
ATOM     42  O   UNL     1      43.161  26.438  83.015  0.00  0.00    +0.000 OA
ATOM     43  C   UNL     1      45.781  25.771  83.936  0.00  0.00    +0.000 C 
ATOM     44  C   UNL     1      45.324  27.225  83.791  0.00  0.00    +0.000 C 
ATOM     45  C   UNL     1      44.998  24.854  82.999  0.00  0.00    +0.000 C 
ATOM     46  C   UNL     1      43.801  27.303  83.969  0.00  0.00    +0.000 C 
ATOM     47  C   UNL     1      43.487  25.063  83.215  0.00  0.00    +0.000 C 
BRANCH  44  48
ATOM     48  O   UNL     1      46.005  28.027  84.758  0.00  0.00    +0.000 OA
ATOM     49  H   UNL     1      45.295  28.470  85.268  0.00  0.00    +0.000 HD
ENDBRANCH  44  48
BRANCH  45  50
ATOM     50  O   UNL     1      45.396  23.497  83.251  0.00  0.00    +0.000 OA
ATOM     51  H   UNL     1      45.767  23.490  84.156  0.00  0.00    +0.000 HD
ENDBRANCH  45  50
BRANCH  43  52
ATOM     52  O   UNL     1      47.187  25.693  83.650  0.00  0.00    +0.000 OA
ATOM     53  H   UNL     1      47.609  25.478  84.507  0.00  0.00    +0.000 HD
ENDBRANCH  43  52
BRANCH  46  54
ATOM     54  C   UNL     1      43.290  28.733  83.749  0.00  0.00    +0.000 C 
BRANCH  54  55
ATOM     55  O   UNL     1      42.280  29.039  84.714  0.00  0.00    +0.000 OA
ATOM     56  H   UNL     1      42.020  29.963  84.566  0.00  0.00    +0.000 HD
ENDBRANCH  54  55
ENDBRANCH  46  54
ENDBRANCH  41  47
ENDBRANCH   3  41
TORSDOF 17
ENDMDL
MODEL 8
REMARK VINA RESULT:      -6.5      4.191      7.404
REMARK  Name = 
REMARK  21 active torsions:
REMARK  status: ('A' for Active; 'I' for Inactive)
REMARK    1  A    between atoms: O_3  and  C_22
REMARK    2  A    between atoms: O_3  and  C_28
REMARK    3  A    between atoms: O_4  and  C_25
REMARK    4  A    between atoms: O_4  and  C_30
REMARK    5  A    between atoms: O_5  and  C_16
REMARK    6  A    between atoms: O_6  and  C_17
REMARK    7  A    between atoms: O_7  and  C_18
REMARK    8  A    between atoms: O_8  and  C_20
REMARK    9  A    between atoms: O_9  and  C_21
REMARK   10  A    between atoms: O_10  and  C_23
REMARK   11  A    between atoms: O_11  and  C_26
REMARK   12  A    between atoms: O_13  and  C_36
REMARK   13  A    between atoms: O_15  and  C_45
REMARK   14  A    between atoms: O_15  and  C_48
REMARK   15  A    between atoms: C_19  and  C_26
REMARK   16  A    between atoms: C_24  and  C_27
REMARK   17  A    between atoms: C_29  and  C_37
REMARK   18  A    between atoms: C_35  and  C_38
REMARK   19  A    between atoms: C_37  and  C_39
REMARK   20  A    between atoms: C_42  and  C_46
REMARK   21  A    between atoms: C_42  and  C_47
REMARK                            x       y       z     vdW  Elec       q    Type
REMARK                         _______ _______ _______ _____ _____    ______ ____
ROOT
ATOM      1  O   UNL     1      57.432  37.061  72.349  0.00  0.00    +0.000 OA
ATOM      2  O   UNL     1      58.719  37.672  76.151  0.00  0.00    +0.000 OA
ATOM      3  C   UNL     1      55.498  40.061  73.151  0.00  0.00    +0.000 A 
ATOM      4  C   UNL     1      56.009  38.966  72.431  0.00  0.00    +0.000 A 
ATOM      5  C   UNL     1      58.802  36.319  74.198  0.00  0.00    +0.000 A 
ATOM      6  C   UNL     1      56.944  38.125  73.068  0.00  0.00    +0.000 A 
ATOM      7  C   UNL     1      57.357  38.381  74.376  0.00  0.00    +0.000 A 
ATOM      8  C   UNL     1      58.324  37.471  75.004  0.00  0.00    +0.000 A 
ATOM      9  C   UNL     1      55.943  40.340  74.447  0.00  0.00    +0.000 A 
ATOM     10  C   UNL     1      58.305  36.178  72.956  0.00  0.00    +0.000 A 
ATOM     11  C   UNL     1      56.859  39.493  75.060  0.00  0.00    +0.000 A 
ENDROOT
BRANCH  10  12
ATOM     12  C   UNL     1      58.691  35.062  72.079  0.00  0.00    +0.000 A 
ATOM     13  C   UNL     1      58.394  33.746  72.453  0.00  0.00    +0.000 A 
ATOM     14  C   UNL     1      59.367  35.286  70.874  0.00  0.00    +0.000 A 
ATOM     15  C   UNL     1      58.753  32.681  71.624  0.00  0.00    +0.000 A 
ATOM     16  C   UNL     1      59.723  34.217  70.044  0.00  0.00    +0.000 A 
ATOM     17  C   UNL     1      59.412  32.908  70.414  0.00  0.00    +0.000 A 
BRANCH  17  18
ATOM     18  O   UNL     1      59.699  31.780  69.698  0.00  0.00    +0.000 OA
ATOM     19  C   UNL     1      59.333  31.782  68.324  0.00  0.00    +0.000 C 
ENDBRANCH  17  18
ENDBRANCH  10  12
BRANCH  11  20
ATOM     20  O   UNL     1      57.233  39.819  76.335  0.00  0.00    +0.000 OA
ATOM     21  H   UNL     1      57.979  39.236  76.598  0.00  0.00    +0.000 HD
ENDBRANCH  11  20
BRANCH   4  22
ATOM     22  C   UNL     1      55.545  38.662  71.020  0.00  0.00    +0.000 C 
BRANCH  22  23
ATOM     23  C   UNL     1      54.077  38.328  70.958  0.00  0.00    +0.000 C 
ATOM     24  C   UNL     1      53.441  37.475  70.131  0.00  0.00    +0.000 C 
ATOM     25  C   UNL     1      54.092  36.644  69.060  0.00  0.00    +0.000 C 
ATOM     26  C   UNL     1      51.950  37.282  70.237  0.00  0.00    +0.000 C 
ENDBRANCH  22  23
ENDBRANCH   4  22
BRANCH   5  27
ATOM     27  O   UNL     1      59.664  35.402  74.772  0.00  0.00    +0.000 OA
BRANCH  27  33
ATOM     28  O   UNL     1      61.652  34.920  73.576  0.00  0.00    +0.000 OA
ATOM     29  C   UNL     1      61.900  34.173  76.350  0.00  0.00    +0.000 C 
ATOM     30  C   UNL     1      62.506  33.323  75.226  0.00  0.00    +0.000 C 
ATOM     31  C   UNL     1      61.780  35.638  75.930  0.00  0.00    +0.000 C 
ATOM     32  C   UNL     1      61.710  33.532  73.932  0.00  0.00    +0.000 C 
ATOM     33  C   UNL     1      61.042  35.745  74.579  0.00  0.00    +0.000 C 
ATOM     34  C   UNL     1      62.342  32.786  72.761  0.00  0.00    +0.000 C 
BRANCH  29  35
ATOM     35  O   UNL     1      62.745  34.058  77.510  0.00  0.00    +0.000 OA
ATOM     36  H   UNL     1      63.332  33.296  77.319  0.00  0.00    +0.000 HD
ENDBRANCH  29  35
BRANCH  30  37
ATOM     37  O   UNL     1      62.492  31.948  75.628  0.00  0.00    +0.000 OA
ATOM     38  H   UNL     1      63.387  31.611  75.422  0.00  0.00    +0.000 HD
ENDBRANCH  30  37
BRANCH  31  39
ATOM     39  O   UNL     1      63.115  36.184  75.869  0.00  0.00    +0.000 OA
ATOM     40  H   UNL     1      63.279  36.638  76.716  0.00  0.00    +0.000 HD
ENDBRANCH  31  39
ENDBRANCH  27  33
ENDBRANCH   5  27
BRANCH   3  41
ATOM     41  O   UNL     1      54.628  40.922  72.532  0.00  0.00    +0.000 OA
BRANCH  41  47
ATOM     42  O   UNL     1      54.079  43.173  73.012  0.00  0.00    +0.000 OA
ATOM     43  C   UNL     1      55.886  44.094  71.001  0.00  0.00    +0.000 C 
ATOM     44  C   UNL     1      54.832  45.015  71.620  0.00  0.00    +0.000 C 
ATOM     45  C   UNL     1      55.456  42.631  71.090  0.00  0.00    +0.000 C 
ATOM     46  C   UNL     1      54.513  44.544  73.045  0.00  0.00    +0.000 C 
ATOM     47  C   UNL     1      55.096  42.286  72.548  0.00  0.00    +0.000 C 
BRANCH  44  48
ATOM     48  O   UNL     1      55.322  46.358  71.611  0.00  0.00    +0.000 OA
ATOM     49  H   UNL     1      56.287  46.277  71.461  0.00  0.00    +0.000 HD
ENDBRANCH  44  48
BRANCH  45  50
ATOM     50  O   UNL     1      56.524  41.810  70.589  0.00  0.00    +0.000 OA
ATOM     51  H   UNL     1      57.043  42.383  69.990  0.00  0.00    +0.000 HD
ENDBRANCH  45  50
BRANCH  43  52
ATOM     52  O   UNL     1      56.089  44.471  69.630  0.00  0.00    +0.000 OA
ATOM     53  H   UNL     1      56.318  45.423  69.658  0.00  0.00    +0.000 HD
ENDBRANCH  43  52
BRANCH  46  54
ATOM     54  C   UNL     1      53.399  45.391  73.673  0.00  0.00    +0.000 C 
BRANCH  54  55
ATOM     55  O   UNL     1      52.598  45.975  72.643  0.00  0.00    +0.000 OA
ATOM     56  H   UNL     1      51.839  45.383  72.507  0.00  0.00    +0.000 HD
ENDBRANCH  54  55
ENDBRANCH  46  54
ENDBRANCH  41  47
ENDBRANCH   3  41
TORSDOF 17
ENDMDL
MODEL 9
REMARK VINA RESULT:      -6.3     18.975     22.179
REMARK  Name = 
REMARK  21 active torsions:
REMARK  status: ('A' for Active; 'I' for Inactive)
REMARK    1  A    between atoms: O_3  and  C_22
REMARK    2  A    between atoms: O_3  and  C_28
REMARK    3  A    between atoms: O_4  and  C_25
REMARK    4  A    between atoms: O_4  and  C_30
REMARK    5  A    between atoms: O_5  and  C_16
REMARK    6  A    between atoms: O_6  and  C_17
REMARK    7  A    between atoms: O_7  and  C_18
REMARK    8  A    between atoms: O_8  and  C_20
REMARK    9  A    between atoms: O_9  and  C_21
REMARK   10  A    between atoms: O_10  and  C_23
REMARK   11  A    between atoms: O_11  and  C_26
REMARK   12  A    between atoms: O_13  and  C_36
REMARK   13  A    between atoms: O_15  and  C_45
REMARK   14  A    between atoms: O_15  and  C_48
REMARK   15  A    between atoms: C_19  and  C_26
REMARK   16  A    between atoms: C_24  and  C_27
REMARK   17  A    between atoms: C_29  and  C_37
REMARK   18  A    between atoms: C_35  and  C_38
REMARK   19  A    between atoms: C_37  and  C_39
REMARK   20  A    between atoms: C_42  and  C_46
REMARK   21  A    between atoms: C_42  and  C_47
REMARK                            x       y       z     vdW  Elec       q    Type
REMARK                         _______ _______ _______ _____ _____    ______ ____
ROOT
ATOM      1  O   UNL     1      46.653  24.857  84.823  0.00  0.00    +0.000 OA
ATOM      2  O   UNL     1      46.026  28.341  86.810  0.00  0.00    +0.000 OA
ATOM      3  C   UNL     1      43.438  25.802  83.355  0.00  0.00    +0.000 A 
ATOM      4  C   UNL     1      44.610  25.072  83.623  0.00  0.00    +0.000 A 
ATOM      5  C   UNL     1      47.420  26.444  86.478  0.00  0.00    +0.000 A 
ATOM      6  C   UNL     1      45.513  25.584  84.576  0.00  0.00    +0.000 A 
ATOM      7  C   UNL     1      45.253  26.789  85.229  0.00  0.00    +0.000 A 
ATOM      8  C   UNL     1      46.218  27.278  86.223  0.00  0.00    +0.000 A 
ATOM      9  C   UNL     1      43.198  27.030  83.980  0.00  0.00    +0.000 A 
ATOM     10  C   UNL     1      47.536  25.292  85.793  0.00  0.00    +0.000 A 
ATOM     11  C   UNL     1      44.097  27.512  84.924  0.00  0.00    +0.000 A 
ENDROOT
BRANCH  10  12
ATOM     12  C   UNL     1      48.673  24.379  85.983  0.00  0.00    +0.000 A 
ATOM     13  C   UNL     1      48.460  23.096  86.499  0.00  0.00    +0.000 A 
ATOM     14  C   UNL     1      49.980  24.772  85.668  0.00  0.00    +0.000 A 
ATOM     15  C   UNL     1      49.534  22.221  86.678  0.00  0.00    +0.000 A 
ATOM     16  C   UNL     1      51.054  23.892  85.845  0.00  0.00    +0.000 A 
ATOM     17  C   UNL     1      50.834  22.609  86.347  0.00  0.00    +0.000 A 
BRANCH  17  18
ATOM     18  O   UNL     1      51.789  21.656  86.566  0.00  0.00    +0.000 OA
ATOM     19  C   UNL     1      53.141  22.045  86.362  0.00  0.00    +0.000 C 
ENDBRANCH  17  18
ENDBRANCH  10  12
BRANCH  11  20
ATOM     20  O   UNL     1      43.786  28.711  85.507  0.00  0.00    +0.000 OA
ATOM     21  H   UNL     1      44.281  29.419  85.039  0.00  0.00    +0.000 HD
ENDBRANCH  11  20
BRANCH   4  22
ATOM     22  C   UNL     1      44.888  23.746  82.940  0.00  0.00    +0.000 C 
BRANCH  22  23
ATOM     23  C   UNL     1      44.814  22.583  83.895  0.00  0.00    +0.000 C 
ATOM     24  C   UNL     1      45.738  21.633  84.139  0.00  0.00    +0.000 C 
ATOM     25  C   UNL     1      47.090  21.538  83.487  0.00  0.00    +0.000 C 
ATOM     26  C   UNL     1      45.464  20.546  85.145  0.00  0.00    +0.000 C 
ENDBRANCH  22  23
ENDBRANCH   4  22
BRANCH   5  27
ATOM     27  O   UNL     1      48.321  26.835  87.451  0.00  0.00    +0.000 OA
BRANCH  27  33
ATOM     28  O   UNL     1      47.264  26.775  89.571  0.00  0.00    +0.000 OA
ATOM     29  C   UNL     1      50.101  27.219  89.836  0.00  0.00    +0.000 C 
ATOM     30  C   UNL     1      49.083  27.921  90.745  0.00  0.00    +0.000 C 
ATOM     31  C   UNL     1      49.551  25.892  89.315  0.00  0.00    +0.000 C 
ATOM     32  C   UNL     1      47.741  28.052  90.015  0.00  0.00    +0.000 C 
ATOM     33  C   UNL     1      48.163  26.105  88.675  0.00  0.00    +0.000 C 
ATOM     34  C   UNL     1      46.669  28.650  90.920  0.00  0.00    +0.000 C 
BRANCH  29  35
ATOM     35  O   UNL     1      51.304  26.994  90.594  0.00  0.00    +0.000 OA
ATOM     36  H   UNL     1      51.849  26.405  90.031  0.00  0.00    +0.000 HD
ENDBRANCH  29  35
BRANCH  30  37
ATOM     37  O   UNL     1      49.601  29.206  91.112  0.00  0.00    +0.000 OA
ATOM     38  H   UNL     1      50.552  29.175  90.880  0.00  0.00    +0.000 HD
ENDBRANCH  30  37
BRANCH  31  39
ATOM     39  O   UNL     1      49.504  24.974  90.428  0.00  0.00    +0.000 OA
ATOM     40  H   UNL     1      50.397  24.953  90.821  0.00  0.00    +0.000 HD
ENDBRANCH  31  39
ENDBRANCH  27  33
ENDBRANCH   5  27
BRANCH   3  41
ATOM     41  O   UNL     1      42.572  25.349  82.393  0.00  0.00    +0.000 OA
BRANCH  41  47
ATOM     42  O   UNL     1      41.567  24.025  84.076  0.00  0.00    +0.000 OA
ATOM     43  C   UNL     1      39.357  23.438  82.364  0.00  0.00    +0.000 C 
ATOM     44  C   UNL     1      39.618  22.641  83.645  0.00  0.00    +0.000 C 
ATOM     45  C   UNL     1      40.648  24.057  81.832  0.00  0.00    +0.000 C 
ATOM     46  C   UNL     1      40.349  23.529  84.661  0.00  0.00    +0.000 C 
ATOM     47  C   UNL     1      41.331  24.868  82.950  0.00  0.00    +0.000 C 
BRANCH  44  48
ATOM     48  O   UNL     1      38.372  22.171  84.164  0.00  0.00    +0.000 OA
ATOM     49  H   UNL     1      38.031  22.906  84.715  0.00  0.00    +0.000 HD
ENDBRANCH  44  48
BRANCH  45  50
ATOM     50  O   UNL     1      40.326  24.873  80.693  0.00  0.00    +0.000 OA
ATOM     51  H   UNL     1      39.680  24.359  80.170  0.00  0.00    +0.000 HD
ENDBRANCH  45  50
BRANCH  43  52
ATOM     52  O   UNL     1      38.780  22.564  81.380  0.00  0.00    +0.000 OA
ATOM     53  H   UNL     1      39.480  22.440  80.708  0.00  0.00    +0.000 HD
ENDBRANCH  43  52
BRANCH  46  54
ATOM     54  C   UNL     1      40.704  22.744  85.930  0.00  0.00    +0.000 C 
BRANCH  54  55
ATOM     55  O   UNL     1      41.398  23.594  86.847  0.00  0.00    +0.000 OA
ATOM     56  H   UNL     1      41.435  23.122  87.696  0.00  0.00    +0.000 HD
ENDBRANCH  54  55
ENDBRANCH  46  54
ENDBRANCH  41  47
ENDBRANCH   3  41
TORSDOF 17
ENDMDL
