MODEL 1
REMARK VINA RESULT:      -6.8      0.000      0.000
REMARK  Name = 
REMARK  6 active torsions:
REMARK  status: ('A' for Active; 'I' for Inactive)
REMARK    1  A    between atoms: O_3  and  C_16
REMARK    2  A    between atoms: O_4  and  C_17
REMARK    3  A    between atoms: O_4  and  C_22
REMARK    4  A    between atoms: O_5  and  C_19
REMARK    5  A    between atoms: O_5  and  C_23
REMARK    6  A    between atoms: O_6  and  C_21
REMARK                            x       y       z     vdW  Elec       q    Type
REMARK                         _______ _______ _______ _____ _____    ______ ____
ROOT
ATOM      1  O   UNL     1      58.682  36.138  74.913  0.00  0.00    +0.000 OA
ATOM      2  O   UNL     1      61.399  33.305  75.327  0.00  0.00    +0.000 OA
ATOM      3  C   UNL     1      60.940  35.696  75.653  0.00  0.00    +0.000 C 
ATOM      4  C   UNL     1      59.984  35.692  74.456  0.00  0.00    +0.000 C 
ATOM      5  C   UNL     1      59.951  35.592  76.762  0.00  0.00    +0.000 A 
ATOM      6  C   UNL     1      61.973  34.595  75.535  0.00  0.00    +0.000 C 
ATOM      7  C   UNL     1      59.855  34.345  73.777  0.00  0.00    +0.000 A 
ATOM      8  C   UNL     1      58.691  35.893  76.264  0.00  0.00    +0.000 A 
ATOM      9  C   UNL     1      60.552  33.222  74.254  0.00  0.00    +0.000 A 
ATOM     10  C   UNL     1      60.135  35.324  78.108  0.00  0.00    +0.000 A 
ATOM     11  C   UNL     1      59.018  34.218  72.653  0.00  0.00    +0.000 A 
ATOM     12  C   UNL     1      57.588  35.938  77.092  0.00  0.00    +0.000 A 
ATOM     13  C   UNL     1      60.369  31.976  73.638  0.00  0.00    +0.000 A 
ATOM     14  C   UNL     1      59.020  35.352  78.958  0.00  0.00    +0.000 A 
ATOM     15  C   UNL     1      57.744  35.660  78.456  0.00  0.00    +0.000 A 
ATOM     16  C   UNL     1      58.878  32.993  72.008  0.00  0.00    +0.000 A 
ATOM     17  C   UNL     1      59.557  31.889  72.501  0.00  0.00    +0.000 A 
ENDROOT
BRANCH  12  18
ATOM     18  O   UNL     1      56.356  36.245  76.587  0.00  0.00    +0.000 OA
ATOM     19  H   UNL     1      55.915  36.759  77.288  0.00  0.00    +0.000 HD
ENDBRANCH  12  18
BRANCH  13  20
ATOM     20  O   UNL     1      60.971  30.795  74.005  0.00  0.00    +0.000 OA
ATOM     21  C   UNL     1      62.317  30.655  73.556  0.00  0.00    +0.000 C 
ENDBRANCH  13  20
BRANCH  15  22
ATOM     22  O   UNL     1      56.586  35.724  79.192  0.00  0.00    +0.000 OA
ATOM     23  C   UNL     1      56.632  36.488  80.392  0.00  0.00    +0.000 C 
ENDBRANCH  15  22
BRANCH  17  24
ATOM     24  O   UNL     1      59.406  30.693  71.852  0.00  0.00    +0.000 OA
ATOM     25  H   UNL     1      59.537  30.016  72.543  0.00  0.00    +0.000 HD
ENDBRANCH  17  24
TORSDOF 4
ENDMDL
MODEL 2
REMARK VINA RESULT:      -6.8      1.632      2.072
REMARK  Name = 
REMARK  6 active torsions:
REMARK  status: ('A' for Active; 'I' for Inactive)
REMARK    1  A    between atoms: O_3  and  C_16
REMARK    2  A    between atoms: O_4  and  C_17
REMARK    3  A    between atoms: O_4  and  C_22
REMARK    4  A    between atoms: O_5  and  C_19
REMARK    5  A    between atoms: O_5  and  C_23
REMARK    6  A    between atoms: O_6  and  C_21
REMARK                            x       y       z     vdW  Elec       q    Type
REMARK                         _______ _______ _______ _____ _____    ______ ____
ROOT
ATOM      1  O   UNL     1      56.562  35.691  74.563  0.00  0.00    +0.000 OA
ATOM      2  O   UNL     1      60.507  35.811  74.634  0.00  0.00    +0.000 OA
ATOM      3  C   UNL     1      58.464  37.167  74.776  0.00  0.00    +0.000 C 
ATOM      4  C   UNL     1      57.729  36.185  73.858  0.00  0.00    +0.000 C 
ATOM      5  C   UNL     1      57.964  36.696  76.097  0.00  0.00    +0.000 A 
ATOM      6  C   UNL     1      59.959  37.125  74.540  0.00  0.00    +0.000 C 
ATOM      7  C   UNL     1      58.580  35.022  73.397  0.00  0.00    +0.000 A 
ATOM      8  C   UNL     1      56.856  35.886  75.890  0.00  0.00    +0.000 A 
ATOM      9  C   UNL     1      59.913  34.885  73.819  0.00  0.00    +0.000 A 
ATOM     10  C   UNL     1      58.393  36.996  77.379  0.00  0.00    +0.000 A 
ATOM     11  C   UNL     1      58.021  34.060  72.535  0.00  0.00    +0.000 A 
ATOM     12  C   UNL     1      56.148  35.360  76.951  0.00  0.00    +0.000 A 
ATOM     13  C   UNL     1      60.659  33.766  73.420  0.00  0.00    +0.000 A 
ATOM     14  C   UNL     1      57.690  36.456  78.466  0.00  0.00    +0.000 A 
ATOM     15  C   UNL     1      56.566  35.639  78.259  0.00  0.00    +0.000 A 
ATOM     16  C   UNL     1      58.778  32.978  72.095  0.00  0.00    +0.000 A 
ATOM     17  C   UNL     1      60.086  32.846  72.534  0.00  0.00    +0.000 A 
ENDROOT
BRANCH  12  18
ATOM     18  O   UNL     1      55.054  34.572  76.730  0.00  0.00    +0.000 OA
ATOM     19  H   UNL     1      55.358  33.661  76.902  0.00  0.00    +0.000 HD
ENDBRANCH  12  18
BRANCH  13  20
ATOM     20  O   UNL     1      61.962  33.496  73.766  0.00  0.00    +0.000 OA
ATOM     21  C   UNL     1      62.112  32.813  75.009  0.00  0.00    +0.000 C 
ENDBRANCH  13  20
BRANCH  15  22
ATOM     22  O   UNL     1      55.799  35.064  79.243  0.00  0.00    +0.000 OA
ATOM     23  C   UNL     1      56.401  34.928  80.526  0.00  0.00    +0.000 C 
ENDBRANCH  15  22
BRANCH  17  24
ATOM     24  O   UNL     1      60.814  31.774  72.090  0.00  0.00    +0.000 OA
ATOM     25  H   UNL     1      61.663  32.154  71.794  0.00  0.00    +0.000 HD
ENDBRANCH  17  24
TORSDOF 4
ENDMDL
MODEL 3
REMARK VINA RESULT:      -6.2      3.391      4.499
REMARK  Name = 
REMARK  6 active torsions:
REMARK  status: ('A' for Active; 'I' for Inactive)
REMARK    1  A    between atoms: O_3  and  C_16
REMARK    2  A    between atoms: O_4  and  C_17
REMARK    3  A    between atoms: O_4  and  C_22
REMARK    4  A    between atoms: O_5  and  C_19
REMARK    5  A    between atoms: O_5  and  C_23
REMARK    6  A    between atoms: O_6  and  C_21
REMARK                            x       y       z     vdW  Elec       q    Type
REMARK                         _______ _______ _______ _____ _____    ______ ____
ROOT
ATOM      1  O   UNL     1      56.731  38.338  76.486  0.00  0.00    +0.000 OA
ATOM      2  O   UNL     1      59.498  37.459  73.811  0.00  0.00    +0.000 OA
ATOM      3  C   UNL     1      59.103  38.440  76.028  0.00  0.00    +0.000 C 
ATOM      4  C   UNL     1      57.714  38.915  75.588  0.00  0.00    +0.000 C 
ATOM      5  C   UNL     1      58.722  37.203  76.764  0.00  0.00    +0.000 A 
ATOM      6  C   UNL     1      60.032  38.288  74.842  0.00  0.00    +0.000 C 
ATOM      7  C   UNL     1      57.369  38.562  74.157  0.00  0.00    +0.000 A 
ATOM      8  C   UNL     1      57.358  37.238  77.018  0.00  0.00    +0.000 A 
ATOM      9  C   UNL     1      58.266  37.841  73.350  0.00  0.00    +0.000 A 
ATOM     10  C   UNL     1      59.503  36.161  77.235  0.00  0.00    +0.000 A 
ATOM     11  C   UNL     1      56.126  38.959  73.631  0.00  0.00    +0.000 A 
ATOM     12  C   UNL     1      56.741  36.242  77.747  0.00  0.00    +0.000 A 
ATOM     13  C   UNL     1      57.895  37.481  72.047  0.00  0.00    +0.000 A 
ATOM     14  C   UNL     1      58.886  35.135  77.966  0.00  0.00    +0.000 A 
ATOM     15  C   UNL     1      57.506  35.171  78.227  0.00  0.00    +0.000 A 
ATOM     16  C   UNL     1      55.780  38.649  72.319  0.00  0.00    +0.000 A 
ATOM     17  C   UNL     1      56.666  37.921  71.541  0.00  0.00    +0.000 A 
ENDROOT
BRANCH  12  18
ATOM     18  O   UNL     1      55.398  36.297  77.996  0.00  0.00    +0.000 OA
ATOM     19  H   UNL     1      55.070  35.397  77.816  0.00  0.00    +0.000 HD
ENDBRANCH  12  18
BRANCH  13  20
ATOM     20  O   UNL     1      58.661  36.768  71.155  0.00  0.00    +0.000 OA
ATOM     21  C   UNL     1      58.575  35.352  71.304  0.00  0.00    +0.000 C 
ENDBRANCH  13  20
BRANCH  15  22
ATOM     22  O   UNL     1      56.798  34.230  78.934  0.00  0.00    +0.000 OA
ATOM     23  C   UNL     1      57.322  33.857  80.204  0.00  0.00    +0.000 C 
ENDBRANCH  15  22
BRANCH  17  24
ATOM     24  O   UNL     1      56.306  37.626  70.253  0.00  0.00    +0.000 OA
ATOM     25  H   UNL     1      56.839  36.842  70.018  0.00  0.00    +0.000 HD
ENDBRANCH  17  24
TORSDOF 4
ENDMDL
MODEL 4
REMARK VINA RESULT:      -5.8     18.427     20.388
REMARK  Name = 
REMARK  6 active torsions:
REMARK  status: ('A' for Active; 'I' for Inactive)
REMARK    1  A    between atoms: O_3  and  C_16
REMARK    2  A    between atoms: O_4  and  C_17
REMARK    3  A    between atoms: O_4  and  C_22
REMARK    4  A    between atoms: O_5  and  C_19
REMARK    5  A    between atoms: O_5  and  C_23
REMARK    6  A    between atoms: O_6  and  C_21
REMARK                            x       y       z     vdW  Elec       q    Type
REMARK                         _______ _______ _______ _____ _____    ______ ____
ROOT
ATOM      1  O   UNL     1      42.244  27.464  84.484  0.00  0.00    +0.000 OA
ATOM      2  O   UNL     1      45.590  25.376  84.666  0.00  0.00    +0.000 OA
ATOM      3  C   UNL     1      44.655  27.638  84.450  0.00  0.00    +0.000 C 
ATOM      4  C   UNL     1      43.423  27.077  83.732  0.00  0.00    +0.000 C 
ATOM      5  C   UNL     1      44.097  27.789  85.823  0.00  0.00    +0.000 A 
ATOM      6  C   UNL     1      45.852  26.725  84.280  0.00  0.00    +0.000 C 
ATOM      7  C   UNL     1      43.447  25.575  83.554  0.00  0.00    +0.000 A 
ATOM      8  C   UNL     1      42.714  27.712  85.751  0.00  0.00    +0.000 A 
ATOM      9  C   UNL     1      44.515  24.802  84.041  0.00  0.00    +0.000 A 
ATOM     10  C   UNL     1      44.731  28.039  87.028  0.00  0.00    +0.000 A 
ATOM     11  C   UNL     1      42.377  24.943  82.893  0.00  0.00    +0.000 A 
ATOM     12  C   UNL     1      41.930  27.886  86.873  0.00  0.00    +0.000 A 
ATOM     13  C   UNL     1      44.481  23.406  83.911  0.00  0.00    +0.000 A 
ATOM     14  C   UNL     1      43.947  28.204  88.179  0.00  0.00    +0.000 A 
ATOM     15  C   UNL     1      42.546  28.130  88.108  0.00  0.00    +0.000 A 
ATOM     16  C   UNL     1      42.370  23.562  82.715  0.00  0.00    +0.000 A 
ATOM     17  C   UNL     1      43.421  22.811  83.217  0.00  0.00    +0.000 A 
ENDROOT
BRANCH  12  18
ATOM     18  O   UNL     1      40.567  27.816  86.784  0.00  0.00    +0.000 OA
ATOM     19  H   UNL     1      40.379  26.908  86.483  0.00  0.00    +0.000 HD
ENDBRANCH  12  18
BRANCH  13  20
ATOM     20  O   UNL     1      45.444  22.529  84.351  0.00  0.00    +0.000 OA
ATOM     21  C   UNL     1      46.585  22.430  83.500  0.00  0.00    +0.000 C 
ENDBRANCH  13  20
BRANCH  15  22
ATOM     22  O   UNL     1      41.679  28.281  89.163  0.00  0.00    +0.000 OA
ATOM     23  C   UNL     1      41.927  29.373  90.042  0.00  0.00    +0.000 C 
ENDBRANCH  15  22
BRANCH  17  24
ATOM     24  O   UNL     1      43.395  21.455  83.032  0.00  0.00    +0.000 OA
ATOM     25  H   UNL     1      42.482  21.259  82.747  0.00  0.00    +0.000 HD
ENDBRANCH  17  24
TORSDOF 4
ENDMDL
MODEL 5
REMARK VINA RESULT:      -5.7     17.774     20.722
REMARK  Name = 
REMARK  6 active torsions:
REMARK  status: ('A' for Active; 'I' for Inactive)
REMARK    1  A    between atoms: O_3  and  C_16
REMARK    2  A    between atoms: O_4  and  C_17
REMARK    3  A    between atoms: O_4  and  C_22
REMARK    4  A    between atoms: O_5  and  C_19
REMARK    5  A    between atoms: O_5  and  C_23
REMARK    6  A    between atoms: O_6  and  C_21
REMARK                            x       y       z     vdW  Elec       q    Type
REMARK                         _______ _______ _______ _____ _____    ______ ____
ROOT
ATOM      1  O   UNL     1      45.902  27.709  84.739  0.00  0.00    +0.000 OA
ATOM      2  O   UNL     1      42.403  26.725  86.281  0.00  0.00    +0.000 OA
ATOM      3  C   UNL     1      43.533  27.585  84.276  0.00  0.00    +0.000 C 
ATOM      4  C   UNL     1      44.613  28.237  85.144  0.00  0.00    +0.000 C 
ATOM      5  C   UNL     1      44.254  26.347  83.868  0.00  0.00    +0.000 A 
ATOM      6  C   UNL     1      42.238  27.417  85.043  0.00  0.00    +0.000 C 
ATOM      7  C   UNL     1      44.417  28.026  86.630  0.00  0.00    +0.000 A 
ATOM      8  C   UNL     1      45.605  26.512  84.134  0.00  0.00    +0.000 A 
ATOM      9  C   UNL     1      43.337  27.271  87.120  0.00  0.00    +0.000 A 
ATOM     10  C   UNL     1      43.787  25.197  83.255  0.00  0.00    +0.000 A 
ATOM     11  C   UNL     1      45.336  28.591  87.533  0.00  0.00    +0.000 A 
ATOM     12  C   UNL     1      46.524  25.540  83.794  0.00  0.00    +0.000 A 
ATOM     13  C   UNL     1      43.214  27.046  88.499  0.00  0.00    +0.000 A 
ATOM     14  C   UNL     1      44.709  24.195  82.917  0.00  0.00    +0.000 A 
ATOM     15  C   UNL     1      46.078  24.361  83.183  0.00  0.00    +0.000 A 
ATOM     16  C   UNL     1      45.182  28.414  88.905  0.00  0.00    +0.000 A 
ATOM     17  C   UNL     1      44.124  27.651  89.373  0.00  0.00    +0.000 A 
ENDROOT
BRANCH  12  18
ATOM     18  O   UNL     1      47.853  25.722  84.055  0.00  0.00    +0.000 OA
ATOM     19  H   UNL     1      48.088  26.554  83.605  0.00  0.00    +0.000 HD
ENDBRANCH  12  18
BRANCH  13  20
ATOM     20  O   UNL     1      42.222  26.319  89.114  0.00  0.00    +0.000 OA
ATOM     21  C   UNL     1      42.509  24.928  89.253  0.00  0.00    +0.000 C 
ENDBRANCH  13  20
BRANCH  15  22
ATOM     22  O   UNL     1      47.069  23.455  82.891  0.00  0.00    +0.000 OA
ATOM     23  C   UNL     1      46.915  22.145  83.425  0.00  0.00    +0.000 C 
ENDBRANCH  15  22
BRANCH  17  24
ATOM     24  O   UNL     1      43.991  27.488  90.726  0.00  0.00    +0.000 OA
ATOM     25  H   UNL     1      43.056  27.698  90.913  0.00  0.00    +0.000 HD
ENDBRANCH  17  24
TORSDOF 4
ENDMDL
MODEL 6
REMARK VINA RESULT:      -5.5      4.289      6.248
REMARK  Name = 
REMARK  6 active torsions:
REMARK  status: ('A' for Active; 'I' for Inactive)
REMARK    1  A    between atoms: O_3  and  C_16
REMARK    2  A    between atoms: O_4  and  C_17
REMARK    3  A    between atoms: O_4  and  C_22
REMARK    4  A    between atoms: O_5  and  C_19
REMARK    5  A    between atoms: O_5  and  C_23
REMARK    6  A    between atoms: O_6  and  C_21
REMARK                            x       y       z     vdW  Elec       q    Type
REMARK                         _______ _______ _______ _____ _____    ______ ____
ROOT
ATOM      1  O   UNL     1      58.855  39.261  74.925  0.00  0.00    +0.000 OA
ATOM      2  O   UNL     1      56.790  37.101  72.345  0.00  0.00    +0.000 OA
ATOM      3  C   UNL     1      59.010  37.443  73.340  0.00  0.00    +0.000 C 
ATOM      4  C   UNL     1      58.718  38.937  73.518  0.00  0.00    +0.000 C 
ATOM      5  C   UNL     1      58.721  36.966  74.721  0.00  0.00    +0.000 A 
ATOM      6  C   UNL     1      58.189  36.854  72.212  0.00  0.00    +0.000 C 
ATOM      7  C   UNL     1      57.350  39.358  73.026  0.00  0.00    +0.000 A 
ATOM      8  C   UNL     1      58.683  38.061  75.571  0.00  0.00    +0.000 A 
ATOM      9  C   UNL     1      56.454  38.422  72.483  0.00  0.00    +0.000 A 
ATOM     10  C   UNL     1      58.569  35.681  75.213  0.00  0.00    +0.000 A 
ATOM     11  C   UNL     1      56.971  40.709  73.120  0.00  0.00    +0.000 A 
ATOM     12  C   UNL     1      58.497  37.905  76.929  0.00  0.00    +0.000 A 
ATOM     13  C   UNL     1      55.173  38.832  72.087  0.00  0.00    +0.000 A 
ATOM     14  C   UNL     1      58.365  35.508  76.590  0.00  0.00    +0.000 A 
ATOM     15  C   UNL     1      58.330  36.616  77.454  0.00  0.00    +0.000 A 
ATOM     16  C   UNL     1      55.719  41.127  72.677  0.00  0.00    +0.000 A 
ATOM     17  C   UNL     1      54.838  40.189  72.161  0.00  0.00    +0.000 A 
ENDROOT
BRANCH  12  18
ATOM     18  O   UNL     1      58.471  38.994  77.754  0.00  0.00    +0.000 OA
ATOM     19  H   UNL     1      59.303  39.468  77.575  0.00  0.00    +0.000 HD
ENDBRANCH  12  18
BRANCH  13  20
ATOM     20  O   UNL     1      54.193  38.027  71.555  0.00  0.00    +0.000 OA
ATOM     21  C   UNL     1      54.307  37.809  70.151  0.00  0.00    +0.000 C 
ENDBRANCH  13  20
BRANCH  15  22
ATOM     22  O   UNL     1      58.144  36.568  78.814  0.00  0.00    +0.000 OA
ATOM     23  C   UNL     1      56.830  36.273  79.271  0.00  0.00    +0.000 C 
ENDBRANCH  15  22
BRANCH  17  24
ATOM     24  O   UNL     1      53.612  40.621  71.731  0.00  0.00    +0.000 OA
ATOM     25  H   UNL     1      53.241  39.866  71.235  0.00  0.00    +0.000 HD
ENDBRANCH  17  24
TORSDOF 4
ENDMDL
MODEL 7
REMARK VINA RESULT:      -5.4     17.318     19.643
REMARK  Name = 
REMARK  6 active torsions:
REMARK  status: ('A' for Active; 'I' for Inactive)
REMARK    1  A    between atoms: O_3  and  C_16
REMARK    2  A    between atoms: O_4  and  C_17
REMARK    3  A    between atoms: O_4  and  C_22
REMARK    4  A    between atoms: O_5  and  C_19
REMARK    5  A    between atoms: O_5  and  C_23
REMARK    6  A    between atoms: O_6  and  C_21
REMARK                            x       y       z     vdW  Elec       q    Type
REMARK                         _______ _______ _______ _____ _____    ______ ____
ROOT
ATOM      1  O   UNL     1      47.424  25.693  83.602  0.00  0.00    +0.000 OA
ATOM      2  O   UNL     1      44.022  24.140  84.866  0.00  0.00    +0.000 OA
ATOM      3  C   UNL     1      45.959  23.781  83.399  0.00  0.00    +0.000 C 
ATOM      4  C   UNL     1      46.095  25.292  83.182  0.00  0.00    +0.000 C 
ATOM      5  C   UNL     1      47.005  23.584  84.441  0.00  0.00    +0.000 A 
ATOM      6  C   UNL     1      44.537  23.404  83.758  0.00  0.00    +0.000 C 
ATOM      7  C   UNL     1      45.056  26.113  83.914  0.00  0.00    +0.000 A 
ATOM      8  C   UNL     1      47.821  24.705  84.470  0.00  0.00    +0.000 A 
ATOM      9  C   UNL     1      44.088  25.501  84.728  0.00  0.00    +0.000 A 
ATOM     10  C   UNL     1      47.270  22.494  85.253  0.00  0.00    +0.000 A 
ATOM     11  C   UNL     1      45.067  27.513  83.780  0.00  0.00    +0.000 A 
ATOM     12  C   UNL     1      48.920  24.768  85.303  0.00  0.00    +0.000 A 
ATOM     13  C   UNL     1      43.174  26.292  85.438  0.00  0.00    +0.000 A 
ATOM     14  C   UNL     1      48.375  22.550  86.115  0.00  0.00    +0.000 A 
ATOM     15  C   UNL     1      49.205  23.684  86.143  0.00  0.00    +0.000 A 
ATOM     16  C   UNL     1      44.125  28.296  84.441  0.00  0.00    +0.000 A 
ATOM     17  C   UNL     1      43.187  27.680  85.256  0.00  0.00    +0.000 A 
ENDROOT
BRANCH  12  18
ATOM     18  O   UNL     1      49.718  25.877  85.312  0.00  0.00    +0.000 OA
ATOM     19  H   UNL     1      50.311  25.756  86.077  0.00  0.00    +0.000 HD
ENDBRANCH  12  18
BRANCH  13  20
ATOM     20  O   UNL     1      42.187  25.833  86.278  0.00  0.00    +0.000 OA
ATOM     21  C   UNL     1      42.626  25.552  87.606  0.00  0.00    +0.000 C 
ENDBRANCH  13  20
BRANCH  15  22
ATOM     22  O   UNL     1      50.314  23.847  86.937  0.00  0.00    +0.000 OA
ATOM     23  C   UNL     1      51.458  23.069  86.606  0.00  0.00    +0.000 C 
ENDBRANCH  15  22
BRANCH  17  24
ATOM     24  O   UNL     1      42.269  28.468  85.898  0.00  0.00    +0.000 OA
ATOM     25  H   UNL     1      42.584  28.515  86.821  0.00  0.00    +0.000 HD
ENDBRANCH  17  24
TORSDOF 4
ENDMDL
MODEL 8
REMARK VINA RESULT:      -5.2     26.850     31.102
REMARK  Name = 
REMARK  6 active torsions:
REMARK  status: ('A' for Active; 'I' for Inactive)
REMARK    1  A    between atoms: O_3  and  C_16
REMARK    2  A    between atoms: O_4  and  C_17
REMARK    3  A    between atoms: O_4  and  C_22
REMARK    4  A    between atoms: O_5  and  C_19
REMARK    5  A    between atoms: O_5  and  C_23
REMARK    6  A    between atoms: O_6  and  C_21
REMARK                            x       y       z     vdW  Elec       q    Type
REMARK                         _______ _______ _______ _____ _____    ______ ____
ROOT
ATOM      1  O   UNL     1      33.902  27.884  92.296  0.00  0.00    +0.000 OA
ATOM      2  O   UNL     1      31.654  30.468  90.332  0.00  0.00    +0.000 OA
ATOM      3  C   UNL     1      32.893  30.077  92.417  0.00  0.00    +0.000 C 
ATOM      4  C   UNL     1      32.626  28.572  92.313  0.00  0.00    +0.000 C 
ATOM      5  C   UNL     1      34.280  30.122  91.874  0.00  0.00    +0.000 A 
ATOM      6  C   UNL     1      31.833  30.875  91.687  0.00  0.00    +0.000 C 
ATOM      7  C   UNL     1      31.813  28.175  91.100  0.00  0.00    +0.000 A 
ATOM      8  C   UNL     1      34.797  28.835  91.870  0.00  0.00    +0.000 A 
ATOM      9  C   UNL     1      31.385  29.135  90.166  0.00  0.00    +0.000 A 
ATOM     10  C   UNL     1      35.055  31.199  91.478  0.00  0.00    +0.000 A 
ATOM     11  C   UNL     1      31.487  26.821  90.902  0.00  0.00    +0.000 A 
ATOM     12  C   UNL     1      36.097  28.589  91.476  0.00  0.00    +0.000 A 
ATOM     13  C   UNL     1      30.682  28.729  89.023  0.00  0.00    +0.000 A 
ATOM     14  C   UNL     1      36.372  30.961  91.061  0.00  0.00    +0.000 A 
ATOM     15  C   UNL     1      36.900  29.659  91.060  0.00  0.00    +0.000 A 
ATOM     16  C   UNL     1      30.742  26.425  89.796  0.00  0.00    +0.000 A 
ATOM     17  C   UNL     1      30.343  27.380  88.874  0.00  0.00    +0.000 A 
ENDROOT
BRANCH  12  18
ATOM     18  O   UNL     1      36.594  27.316  91.487  0.00  0.00    +0.000 OA
ATOM     19  H   UNL     1      35.961  26.801  92.021  0.00  0.00    +0.000 HD
ENDBRANCH  12  18
BRANCH  13  20
ATOM     20  O   UNL     1      30.217  29.552  88.024  0.00  0.00    +0.000 OA
ATOM     21  C   UNL     1      29.069  30.321  88.380  0.00  0.00    +0.000 C 
ENDBRANCH  13  20
BRANCH  15  22
ATOM     22  O   UNL     1      38.173  29.308  90.682  0.00  0.00    +0.000 OA
ATOM     23  C   UNL     1      39.243  29.917  91.396  0.00  0.00    +0.000 C 
ENDBRANCH  15  22
BRANCH  17  24
ATOM     24  O   UNL     1      29.611  26.969  87.791  0.00  0.00    +0.000 OA
ATOM     25  H   UNL     1      30.009  27.434  87.030  0.00  0.00    +0.000 HD
ENDBRANCH  17  24
TORSDOF 4
ENDMDL
MODEL 9
REMARK VINA RESULT:      -5.1     54.619     57.613
REMARK  Name = 
REMARK  6 active torsions:
REMARK  status: ('A' for Active; 'I' for Inactive)
REMARK    1  A    between atoms: O_3  and  C_16
REMARK    2  A    between atoms: O_4  and  C_17
REMARK    3  A    between atoms: O_4  and  C_22
REMARK    4  A    between atoms: O_5  and  C_19
REMARK    5  A    between atoms: O_5  and  C_23
REMARK    6  A    between atoms: O_6  and  C_21
REMARK                            x       y       z     vdW  Elec       q    Type
REMARK                         _______ _______ _______ _____ _____    ______ ____
ROOT
ATOM      1  O   UNL     1      14.111   8.969  98.204  0.00  0.00    +0.000 OA
ATOM      2  O   UNL     1      14.184   8.263 102.088  0.00  0.00    +0.000 OA
ATOM      3  C   UNL     1      12.718   8.602 100.145  0.00  0.00    +0.000 C 
ATOM      4  C   UNL     1      13.760   9.520  99.499  0.00  0.00    +0.000 C 
ATOM      5  C   UNL     1      13.010   7.339  99.412  0.00  0.00    +0.000 A 
ATOM      6  C   UNL     1      12.863   8.582 101.653  0.00  0.00    +0.000 C 
ATOM      7  C   UNL     1      15.010   9.711 100.331  0.00  0.00    +0.000 A 
ATOM      8  C   UNL     1      13.781   7.639  98.298  0.00  0.00    +0.000 A 
ATOM      9  C   UNL     1      15.166   9.064 101.568  0.00  0.00    +0.000 A 
ATOM     10  C   UNL     1      12.588   6.042  99.653  0.00  0.00    +0.000 A 
ATOM     11  C   UNL     1      16.034  10.548  99.850  0.00  0.00    +0.000 A 
ATOM     12  C   UNL     1      14.145   6.660  97.397  0.00  0.00    +0.000 A 
ATOM     13  C   UNL     1      16.359   9.216 102.288  0.00  0.00    +0.000 A 
ATOM     14  C   UNL     1      12.963   5.035  98.752  0.00  0.00    +0.000 A 
ATOM     15  C   UNL     1      13.741   5.338  97.621  0.00  0.00    +0.000 A 
ATOM     16  C   UNL     1      17.196  10.742 100.592  0.00  0.00    +0.000 A 
ATOM     17  C   UNL     1      17.344  10.082 101.802  0.00  0.00    +0.000 A 
ENDROOT
BRANCH  12  18
ATOM     18  O   UNL     1      14.897   6.975  96.300  0.00  0.00    +0.000 OA
ATOM     19  H   UNL     1      14.643   7.888  96.072  0.00  0.00    +0.000 HD
ENDBRANCH  12  18
BRANCH  13  20
ATOM     20  O   UNL     1      16.653   8.633 103.499  0.00  0.00    +0.000 OA
ATOM     21  C   UNL     1      17.169   7.307 103.405  0.00  0.00    +0.000 C 
ENDBRANCH  13  20
BRANCH  15  22
ATOM     22  O   UNL     1      14.160   4.439  96.671  0.00  0.00    +0.000 OA
ATOM     23  C   UNL     1      13.439   3.215  96.585  0.00  0.00    +0.000 C 
ENDBRANCH  15  22
BRANCH  17  24
ATOM     24  O   UNL     1      18.495  10.287 102.515  0.00  0.00    +0.000 OA
ATOM     25  H   UNL     1      19.137  10.626 101.862  0.00  0.00    +0.000 HD
ENDBRANCH  17  24
TORSDOF 4
ENDMDL
