MODEL 1
REMARK VINA RESULT:      -6.8      0.000      0.000
REMARK  Name = 
REMARK  9 active torsions:
REMARK  status: ('A' for Active; 'I' for Inactive)
REMARK    1  A    between atoms: O_1  and  N_7
REMARK    2  A    between atoms: O_1  and  C_20
REMARK    3  A    between atoms: O_2  and  C_14
REMARK    4  A    between atoms: O_3  and  C_18
REMARK    5  A    between atoms: O_4  and  C_25
REMARK    6  A    between atoms: C_8  and  C_10
REMARK    7  A    between atoms: C_17  and  C_18
REMARK    8  A    between atoms: C_17  and  C_20
REMARK    9  A    between atoms: C_18  and  C_25
REMARK                            x       y       z     vdW  Elec       q    Type
REMARK                         _______ _______ _______ _____ _____    ______ ____
ROOT
ATOM      1  N   UNL     1      56.652  37.091  78.423  0.00  0.00    +0.000 NA
ATOM      2  N   UNL     1      59.165  35.584  76.424  0.00  0.00    +0.000 NA
ATOM      3  C   UNL     1      57.226  36.876  77.265  0.00  0.00    +0.000 C 
ATOM      4  C   UNL     1      58.355  35.870  77.393  0.00  0.00    +0.000 C 
ATOM      5  C   UNL     1      58.306  35.456  78.789  0.00  0.00    +0.000 A 
ATOM      6  C   UNL     1      57.287  36.234  79.338  0.00  0.00    +0.000 A 
ATOM      7  C   UNL     1      59.034  34.550  79.539  0.00  0.00    +0.000 A 
ATOM      8  C   UNL     1      56.969  36.118  80.680  0.00  0.00    +0.000 A 
ATOM      9  C   UNL     1      58.715  34.430  80.894  0.00  0.00    +0.000 A 
ATOM     10  C   UNL     1      57.691  35.208  81.461  0.00  0.00    +0.000 A 
ENDROOT
BRANCH   3  12
ATOM     11  N   UNL     1      55.464  38.372  74.470  0.00  0.00    +0.000 N 
ATOM     12  C   UNL     1      56.779  37.574  76.082  0.00  0.00    +0.000 A 
ATOM     13  C   UNL     1      57.569  38.373  75.189  0.00  0.00    +0.000 A 
ATOM     14  C   UNL     1      56.722  38.847  74.187  0.00  0.00    +0.000 A 
ATOM     15  C   UNL     1      55.476  37.623  75.618  0.00  0.00    +0.000 A 
ATOM     16  C   UNL     1      58.933  38.729  75.130  0.00  0.00    +0.000 A 
ATOM     17  C   UNL     1      57.165  39.656  73.134  0.00  0.00    +0.000 A 
ATOM     18  C   UNL     1      59.395  39.537  74.086  0.00  0.00    +0.000 A 
ATOM     19  C   UNL     1      58.522  39.993  73.102  0.00  0.00    +0.000 A 
ATOM     20  H   UNL     1      54.648  38.581  73.914  0.00  0.00    +0.000 HD
BRANCH  15  21
ATOM     21  O   UNL     1      54.361  37.112  76.129  0.00  0.00    +0.000 OA
ATOM     22  H   UNL     1      53.630  37.185  75.495  0.00  0.00    +0.000 HD
ENDBRANCH  15  21
ENDBRANCH   3  12
BRANCH   2  23
ATOM     23  O   UNL     1      60.145  34.666  76.808  0.00  0.00    +0.000 OA
BRANCH  23  24
ATOM     24  C   UNL     1      60.849  34.246  75.642  0.00  0.00    +0.000 C 
BRANCH  24  25
ATOM     25  C   UNL     1      60.325  35.008  74.434  0.00  0.00    +0.000 C 
BRANCH  25  26
ATOM     26  C   UNL     1      59.959  34.119  73.245  0.00  0.00    +0.000 C 
BRANCH  26  27
ATOM     27  O   UNL     1      60.235  32.758  73.611  0.00  0.00    +0.000 OA
ATOM     28  H   UNL     1      59.634  32.228  73.050  0.00  0.00    +0.000 HD
ENDBRANCH  26  27
BRANCH  26  29
ATOM     29  C   UNL     1      58.488  34.212  72.825  0.00  0.00    +0.000 C 
BRANCH  29  30
ATOM     30  O   UNL     1      57.838  35.153  73.686  0.00  0.00    +0.000 OA
ATOM     31  H   UNL     1      57.237  34.640  74.255  0.00  0.00    +0.000 HD
ENDBRANCH  29  30
ENDBRANCH  26  29
ENDBRANCH  25  26
ENDBRANCH  24  25
ENDBRANCH  23  24
ENDBRANCH   2  23
TORSDOF 9
ENDMDL
MODEL 2
REMARK VINA RESULT:      -6.6      2.182      6.586
REMARK  Name = 
REMARK  9 active torsions:
REMARK  status: ('A' for Active; 'I' for Inactive)
REMARK    1  A    between atoms: O_1  and  N_7
REMARK    2  A    between atoms: O_1  and  C_20
REMARK    3  A    between atoms: O_2  and  C_14
REMARK    4  A    between atoms: O_3  and  C_18
REMARK    5  A    between atoms: O_4  and  C_25
REMARK    6  A    between atoms: C_8  and  C_10
REMARK    7  A    between atoms: C_17  and  C_18
REMARK    8  A    between atoms: C_17  and  C_20
REMARK    9  A    between atoms: C_18  and  C_25
REMARK                            x       y       z     vdW  Elec       q    Type
REMARK                         _______ _______ _______ _____ _____    ______ ____
ROOT
ATOM      1  N   UNL     1      59.921  36.035  73.605  0.00  0.00    +0.000 NA
ATOM      2  N   UNL     1      59.297  35.103  76.971  0.00  0.00    +0.000 NA
ATOM      3  C   UNL     1      59.976  35.171  74.589  0.00  0.00    +0.000 C 
ATOM      4  C   UNL     1      59.273  35.704  75.824  0.00  0.00    +0.000 C 
ATOM      5  C   UNL     1      58.717  36.980  75.394  0.00  0.00    +0.000 A 
ATOM      6  C   UNL     1      59.158  37.116  74.077  0.00  0.00    +0.000 A 
ATOM      7  C   UNL     1      57.946  37.943  76.021  0.00  0.00    +0.000 A 
ATOM      8  C   UNL     1      58.828  38.244  73.347  0.00  0.00    +0.000 A 
ATOM      9  C   UNL     1      57.611  39.082  75.285  0.00  0.00    +0.000 A 
ATOM     10  C   UNL     1      58.049  39.232  73.958  0.00  0.00    +0.000 A 
ENDROOT
BRANCH   3  12
ATOM     11  N   UNL     1      62.087  32.225  74.722  0.00  0.00    +0.000 N 
ATOM     12  C   UNL     1      60.660  33.910  74.423  0.00  0.00    +0.000 A 
ATOM     13  C   UNL     1      60.372  32.879  73.467  0.00  0.00    +0.000 A 
ATOM     14  C   UNL     1      61.287  31.847  73.671  0.00  0.00    +0.000 A 
ATOM     15  C   UNL     1      61.710  33.453  75.201  0.00  0.00    +0.000 A 
ATOM     16  C   UNL     1      59.423  32.731  72.432  0.00  0.00    +0.000 A 
ATOM     17  C   UNL     1      61.303  30.679  72.900  0.00  0.00    +0.000 A 
ATOM     18  C   UNL     1      59.422  31.571  71.651  0.00  0.00    +0.000 A 
ATOM     19  C   UNL     1      60.351  30.560  71.883  0.00  0.00    +0.000 A 
ATOM     20  H   UNL     1      62.828  31.652  75.097  0.00  0.00    +0.000 HD
BRANCH  15  21
ATOM     21  O   UNL     1      62.296  34.000  76.260  0.00  0.00    +0.000 OA
ATOM     22  H   UNL     1      63.012  33.431  76.585  0.00  0.00    +0.000 HD
ENDBRANCH  15  21
ENDBRANCH   3  12
BRANCH   2  23
ATOM     23  O   UNL     1      58.616  35.819  77.958  0.00  0.00    +0.000 OA
BRANCH  23  24
ATOM     24  C   UNL     1      57.840  34.901  78.724  0.00  0.00    +0.000 C 
BRANCH  24  25
ATOM     25  C   UNL     1      56.389  35.359  78.744  0.00  0.00    +0.000 C 
BRANCH  25  26
ATOM     26  C   UNL     1      55.780  35.568  77.357  0.00  0.00    +0.000 C 
BRANCH  26  27
ATOM     27  O   UNL     1      54.890  34.472  77.098  0.00  0.00    +0.000 OA
ATOM     28  H   UNL     1      55.479  33.697  77.002  0.00  0.00    +0.000 HD
ENDBRANCH  26  27
BRANCH  26  29
ATOM     29  C   UNL     1      54.989  36.872  77.213  0.00  0.00    +0.000 C 
BRANCH  29  30
ATOM     30  O   UNL     1      54.312  36.845  75.952  0.00  0.00    +0.000 OA
ATOM     31  H   UNL     1      54.424  35.946  75.596  0.00  0.00    +0.000 HD
ENDBRANCH  29  30
ENDBRANCH  26  29
ENDBRANCH  25  26
ENDBRANCH  24  25
ENDBRANCH  23  24
ENDBRANCH   2  23
TORSDOF 9
ENDMDL
MODEL 3
REMARK VINA RESULT:      -6.4      2.246      5.351
REMARK  Name = 
REMARK  9 active torsions:
REMARK  status: ('A' for Active; 'I' for Inactive)
REMARK    1  A    between atoms: O_1  and  N_7
REMARK    2  A    between atoms: O_1  and  C_20
REMARK    3  A    between atoms: O_2  and  C_14
REMARK    4  A    between atoms: O_3  and  C_18
REMARK    5  A    between atoms: O_4  and  C_25
REMARK    6  A    between atoms: C_8  and  C_10
REMARK    7  A    between atoms: C_17  and  C_18
REMARK    8  A    between atoms: C_17  and  C_20
REMARK    9  A    between atoms: C_18  and  C_25
REMARK                            x       y       z     vdW  Elec       q    Type
REMARK                         _______ _______ _______ _____ _____    ______ ____
ROOT
ATOM      1  N   UNL     1      57.900  35.159  72.706  0.00  0.00    +0.000 NA
ATOM      2  N   UNL     1      59.893  35.881  75.551  0.00  0.00    +0.000 NA
ATOM      3  C   UNL     1      58.293  35.965  73.661  0.00  0.00    +0.000 C 
ATOM      4  C   UNL     1      59.417  35.347  74.471  0.00  0.00    +0.000 C 
ATOM      5  C   UNL     1      59.691  34.086  73.795  0.00  0.00    +0.000 A 
ATOM      6  C   UNL     1      58.742  34.036  72.773  0.00  0.00    +0.000 A 
ATOM      7  C   UNL     1      60.608  33.072  74.005  0.00  0.00    +0.000 A 
ATOM      8  C   UNL     1      58.693  32.946  71.922  0.00  0.00    +0.000 A 
ATOM      9  C   UNL     1      60.561  31.970  73.147  0.00  0.00    +0.000 A 
ATOM     10  C   UNL     1      59.610  31.906  72.114  0.00  0.00    +0.000 A 
ENDROOT
BRANCH   3  12
ATOM     11  N   UNL     1      56.937  39.324  73.475  0.00  0.00    +0.000 N 
ATOM     12  C   UNL     1      57.657  37.248  73.847  0.00  0.00    +0.000 A 
ATOM     13  C   UNL     1      56.912  37.696  74.990  0.00  0.00    +0.000 A 
ATOM     14  C   UNL     1      56.487  38.999  74.732  0.00  0.00    +0.000 A 
ATOM     15  C   UNL     1      57.623  38.275  72.920  0.00  0.00    +0.000 A 
ATOM     16  C   UNL     1      56.570  37.118  76.232  0.00  0.00    +0.000 A 
ATOM     17  C   UNL     1      55.739  39.752  75.645  0.00  0.00    +0.000 A 
ATOM     18  C   UNL     1      55.823  37.855  77.157  0.00  0.00    +0.000 A 
ATOM     19  C   UNL     1      55.415  39.154  76.866  0.00  0.00    +0.000 A 
ATOM     20  H   UNL     1      56.753  40.208  73.025  0.00  0.00    +0.000 HD
BRANCH  15  21
ATOM     21  O   UNL     1      58.098  38.330  71.680  0.00  0.00    +0.000 OA
ATOM     22  H   UNL     1      58.549  37.501  71.451  0.00  0.00    +0.000 HD
ENDBRANCH  15  21
ENDBRANCH   3  12
BRANCH   2  23
ATOM     23  O   UNL     1      60.887  35.094  76.136  0.00  0.00    +0.000 OA
BRANCH  23  24
ATOM     24  C   UNL     1      61.066  35.524  77.483  0.00  0.00    +0.000 C 
BRANCH  24  25
ATOM     25  C   UNL     1      59.714  35.882  78.083  0.00  0.00    +0.000 C 
BRANCH  25  26
ATOM     26  C   UNL     1      59.438  35.229  79.437  0.00  0.00    +0.000 C 
BRANCH  26  27
ATOM     27  O   UNL     1      59.459  36.259  80.436  0.00  0.00    +0.000 OA
ATOM     28  H   UNL     1      58.656  36.097  80.971  0.00  0.00    +0.000 HD
ENDBRANCH  26  27
BRANCH  26  29
ATOM     29  C   UNL     1      58.087  34.510  79.519  0.00  0.00    +0.000 C 
BRANCH  29  30
ATOM     30  O   UNL     1      58.330  33.140  79.853  0.00  0.00    +0.000 OA
ATOM     31  H   UNL     1      58.788  33.140  80.712  0.00  0.00    +0.000 HD
ENDBRANCH  29  30
ENDBRANCH  26  29
ENDBRANCH  25  26
ENDBRANCH  24  25
ENDBRANCH  23  24
ENDBRANCH   2  23
TORSDOF 9
ENDMDL
MODEL 4
REMARK VINA RESULT:      -6.4      2.389      6.880
REMARK  Name = 
REMARK  9 active torsions:
REMARK  status: ('A' for Active; 'I' for Inactive)
REMARK    1  A    between atoms: O_1  and  N_7
REMARK    2  A    between atoms: O_1  and  C_20
REMARK    3  A    between atoms: O_2  and  C_14
REMARK    4  A    between atoms: O_3  and  C_18
REMARK    5  A    between atoms: O_4  and  C_25
REMARK    6  A    between atoms: C_8  and  C_10
REMARK    7  A    between atoms: C_17  and  C_18
REMARK    8  A    between atoms: C_17  and  C_20
REMARK    9  A    between atoms: C_18  and  C_25
REMARK                            x       y       z     vdW  Elec       q    Type
REMARK                         _______ _______ _______ _____ _____    ______ ____
ROOT
ATOM      1  N   UNL     1      59.519  36.160  73.476  0.00  0.00    +0.000 NA
ATOM      2  N   UNL     1      58.772  35.391  76.857  0.00  0.00    +0.000 NA
ATOM      3  C   UNL     1      59.579  35.365  74.515  0.00  0.00    +0.000 C 
ATOM      4  C   UNL     1      58.770  35.918  75.674  0.00  0.00    +0.000 C 
ATOM      5  C   UNL     1      58.149  37.119  75.133  0.00  0.00    +0.000 A 
ATOM      6  C   UNL     1      58.654  37.207  73.835  0.00  0.00    +0.000 A 
ATOM      7  C   UNL     1      57.276  38.058  75.655  0.00  0.00    +0.000 A 
ATOM      8  C   UNL     1      58.286  38.260  73.016  0.00  0.00    +0.000 A 
ATOM      9  C   UNL     1      56.903  39.121  74.829  0.00  0.00    +0.000 A 
ATOM     10  C   UNL     1      57.404  39.222  73.520  0.00  0.00    +0.000 A 
ENDROOT
BRANCH   3  12
ATOM     11  N   UNL     1      61.881  32.597  74.957  0.00  0.00    +0.000 N 
ATOM     12  C   UNL     1      60.361  34.151  74.468  0.00  0.00    +0.000 A 
ATOM     13  C   UNL     1      60.211  33.051  73.559  0.00  0.00    +0.000 A 
ATOM     14  C   UNL     1      61.182  32.103  73.881  0.00  0.00    +0.000 A 
ATOM     15  C   UNL     1      61.386  33.818  75.336  0.00  0.00    +0.000 A 
ATOM     16  C   UNL     1      59.347  32.776  72.477  0.00  0.00    +0.000 A 
ATOM     17  C   UNL     1      61.333  30.898  73.184  0.00  0.00    +0.000 A 
ATOM     18  C   UNL     1      59.482  31.577  71.768  0.00  0.00    +0.000 A 
ATOM     19  C   UNL     1      60.462  30.653  72.118  0.00  0.00    +0.000 A 
ATOM     20  H   UNL     1      62.633  32.102  75.411  0.00  0.00    +0.000 HD
BRANCH  15  21
ATOM     21  O   UNL     1      61.859  34.464  76.396  0.00  0.00    +0.000 OA
ATOM     22  H   UNL     1      62.392  35.227  76.121  0.00  0.00    +0.000 HD
ENDBRANCH  15  21
ENDBRANCH   3  12
BRANCH   2  23
ATOM     23  O   UNL     1      57.985  36.113  77.758  0.00  0.00    +0.000 OA
BRANCH  23  24
ATOM     24  C   UNL     1      56.854  35.318  78.103  0.00  0.00    +0.000 C 
BRANCH  24  25
ATOM     25  C   UNL     1      57.253  34.303  79.164  0.00  0.00    +0.000 C 
BRANCH  25  26
ATOM     26  C   UNL     1      57.675  34.924  80.496  0.00  0.00    +0.000 C 
BRANCH  26  27
ATOM     27  O   UNL     1      56.487  35.173  81.261  0.00  0.00    +0.000 OA
ATOM     28  H   UNL     1      56.167  34.283  81.511  0.00  0.00    +0.000 HD
ENDBRANCH  26  27
BRANCH  26  29
ATOM     29  C   UNL     1      58.605  34.037  81.330  0.00  0.00    +0.000 C 
BRANCH  29  30
ATOM     30  O   UNL     1      59.565  33.444  80.449  0.00  0.00    +0.000 OA
ATOM     31  H   UNL     1      59.996  32.728  80.950  0.00  0.00    +0.000 HD
ENDBRANCH  29  30
ENDBRANCH  26  29
ENDBRANCH  25  26
ENDBRANCH  24  25
ENDBRANCH  23  24
ENDBRANCH   2  23
TORSDOF 9
ENDMDL
MODEL 5
REMARK VINA RESULT:      -6.2      2.669      5.698
REMARK  Name = 
REMARK  9 active torsions:
REMARK  status: ('A' for Active; 'I' for Inactive)
REMARK    1  A    between atoms: O_1  and  N_7
REMARK    2  A    between atoms: O_1  and  C_20
REMARK    3  A    between atoms: O_2  and  C_14
REMARK    4  A    between atoms: O_3  and  C_18
REMARK    5  A    between atoms: O_4  and  C_25
REMARK    6  A    between atoms: C_8  and  C_10
REMARK    7  A    between atoms: C_17  and  C_18
REMARK    8  A    between atoms: C_17  and  C_20
REMARK    9  A    between atoms: C_18  and  C_25
REMARK                            x       y       z     vdW  Elec       q    Type
REMARK                         _______ _______ _______ _____ _____    ______ ____
ROOT
ATOM      1  N   UNL     1      59.064  34.161  73.390  0.00  0.00    +0.000 NA
ATOM      2  N   UNL     1      61.602  34.127  75.869  0.00  0.00    +0.000 NA
ATOM      3  C   UNL     1      59.716  34.725  74.377  0.00  0.00    +0.000 C 
ATOM      4  C   UNL     1      60.881  33.862  74.826  0.00  0.00    +0.000 C 
ATOM      5  C   UNL     1      60.872  32.740  73.896  0.00  0.00    +0.000 A 
ATOM      6  C   UNL     1      59.759  32.978  73.089  0.00  0.00    +0.000 A 
ATOM      7  C   UNL     1      61.679  31.628  73.738  0.00  0.00    +0.000 A 
ATOM      8  C   UNL     1      59.426  32.086  72.085  0.00  0.00    +0.000 A 
ATOM      9  C   UNL     1      61.345  30.727  72.725  0.00  0.00    +0.000 A 
ATOM     10  C   UNL     1      60.226  30.953  71.905  0.00  0.00    +0.000 A 
ENDROOT
BRANCH   3  12
ATOM     11  N   UNL     1      58.727  38.149  75.050  0.00  0.00    +0.000 N 
ATOM     12  C   UNL     1      59.287  35.997  74.910  0.00  0.00    +0.000 A 
ATOM     13  C   UNL     1      58.896  36.290  76.260  0.00  0.00    +0.000 A 
ATOM     14  C   UNL     1      58.564  37.644  76.317  0.00  0.00    +0.000 A 
ATOM     15  C   UNL     1      59.140  37.167  74.186  0.00  0.00    +0.000 A 
ATOM     16  C   UNL     1      58.805  35.532  77.447  0.00  0.00    +0.000 A 
ATOM     17  C   UNL     1      58.147  38.277  77.494  0.00  0.00    +0.000 A 
ATOM     18  C   UNL     1      58.389  36.147  78.633  0.00  0.00    +0.000 A 
ATOM     19  C   UNL     1      58.066  37.501  78.654  0.00  0.00    +0.000 A 
ATOM     20  H   UNL     1      58.536  39.107  74.800  0.00  0.00    +0.000 HD
BRANCH  15  21
ATOM     21  O   UNL     1      59.303  37.402  72.889  0.00  0.00    +0.000 OA
ATOM     22  H   UNL     1      59.506  38.338  72.735  0.00  0.00    +0.000 HD
ENDBRANCH  15  21
ENDBRANCH   3  12
BRANCH   2  23
ATOM     23  O   UNL     1      62.579  33.156  76.097  0.00  0.00    +0.000 OA
BRANCH  23  24
ATOM     24  C   UNL     1      63.665  33.765  76.790  0.00  0.00    +0.000 C 
BRANCH  24  25
ATOM     25  C   UNL     1      63.443  35.269  76.855  0.00  0.00    +0.000 C 
BRANCH  25  26
ATOM     26  C   UNL     1      64.136  36.053  75.740  0.00  0.00    +0.000 C 
BRANCH  26  27
ATOM     27  O   UNL     1      64.280  35.178  74.611  0.00  0.00    +0.000 OA
ATOM     28  H   UNL     1      65.238  35.189  74.415  0.00  0.00    +0.000 HD
ENDBRANCH  26  27
BRANCH  26  29
ATOM     29  C   UNL     1      63.372  37.300  75.285  0.00  0.00    +0.000 C 
BRANCH  29  30
ATOM     30  O   UNL     1      62.184  37.408  76.076  0.00  0.00    +0.000 OA
ATOM     31  H   UNL     1      61.871  38.326  75.984  0.00  0.00    +0.000 HD
ENDBRANCH  29  30
ENDBRANCH  26  29
ENDBRANCH  25  26
ENDBRANCH  24  25
ENDBRANCH  23  24
ENDBRANCH   2  23
TORSDOF 9
ENDMDL
MODEL 6
REMARK VINA RESULT:      -6.2      3.063      5.073
REMARK  Name = 
REMARK  9 active torsions:
REMARK  status: ('A' for Active; 'I' for Inactive)
REMARK    1  A    between atoms: O_1  and  N_7
REMARK    2  A    between atoms: O_1  and  C_20
REMARK    3  A    between atoms: O_2  and  C_14
REMARK    4  A    between atoms: O_3  and  C_18
REMARK    5  A    between atoms: O_4  and  C_25
REMARK    6  A    between atoms: C_8  and  C_10
REMARK    7  A    between atoms: C_17  and  C_18
REMARK    8  A    between atoms: C_17  and  C_20
REMARK    9  A    between atoms: C_18  and  C_25
REMARK                            x       y       z     vdW  Elec       q    Type
REMARK                         _______ _______ _______ _____ _____    ______ ____
ROOT
ATOM      1  N   UNL     1      58.051  35.474  73.128  0.00  0.00    +0.000 NA
ATOM      2  N   UNL     1      60.321  35.461  75.853  0.00  0.00    +0.000 NA
ATOM      3  C   UNL     1      58.606  36.050  74.165  0.00  0.00    +0.000 C 
ATOM      4  C   UNL     1      59.707  35.182  74.748  0.00  0.00    +0.000 C 
ATOM      5  C   UNL     1      59.777  34.042  73.844  0.00  0.00    +0.000 A 
ATOM      6  C   UNL     1      58.756  34.276  72.923  0.00  0.00    +0.000 A 
ATOM      7  C   UNL     1      60.581  32.917  73.791  0.00  0.00    +0.000 A 
ATOM      8  C   UNL     1      58.515  33.367  71.907  0.00  0.00    +0.000 A 
ATOM      9  C   UNL     1      60.339  31.999  72.766  0.00  0.00    +0.000 A 
ATOM     10  C   UNL     1      59.313  32.221  71.832  0.00  0.00    +0.000 A 
ENDROOT
BRANCH   3  12
ATOM     11  N   UNL     1      57.986  39.538  74.941  0.00  0.00    +0.000 N 
ATOM     12  C   UNL     1      58.143  37.338  74.626  0.00  0.00    +0.000 A 
ATOM     13  C   UNL     1      57.011  37.609  75.466  0.00  0.00    +0.000 A 
ATOM     14  C   UNL     1      56.947  38.989  75.655  0.00  0.00    +0.000 A 
ATOM     15  C   UNL     1      58.702  38.561  74.299  0.00  0.00    +0.000 A 
ATOM     16  C   UNL     1      56.038  36.805  76.099  0.00  0.00    +0.000 A 
ATOM     17  C   UNL     1      55.965  39.607  76.437  0.00  0.00    +0.000 A 
ATOM     18  C   UNL     1      55.048  37.405  76.885  0.00  0.00    +0.000 A 
ATOM     19  C   UNL     1      55.014  38.786  77.051  0.00  0.00    +0.000 A 
ATOM     20  H   UNL     1      58.165  40.529  74.885  0.00  0.00    +0.000 HD
BRANCH  15  21
ATOM     21  O   UNL     1      59.716  38.855  73.494  0.00  0.00    +0.000 OA
ATOM     22  H   UNL     1      59.408  39.372  72.732  0.00  0.00    +0.000 HD
ENDBRANCH  15  21
ENDBRANCH   3  12
BRANCH   2  23
ATOM     23  O   UNL     1      61.256  34.483  76.200  0.00  0.00    +0.000 OA
BRANCH  23  24
ATOM     24  C   UNL     1      62.289  35.099  76.964  0.00  0.00    +0.000 C 
BRANCH  24  25
ATOM     25  C   UNL     1      62.847  36.287  76.194  0.00  0.00    +0.000 C 
BRANCH  25  26
ATOM     26  C   UNL     1      63.743  35.904  75.016  0.00  0.00    +0.000 C 
BRANCH  26  27
ATOM     27  O   UNL     1      63.871  34.474  75.007  0.00  0.00    +0.000 OA
ATOM     28  H   UNL     1      64.253  34.269  74.131  0.00  0.00    +0.000 HD
ENDBRANCH  26  27
BRANCH  26  29
ATOM     29  C   UNL     1      63.201  36.344  73.652  0.00  0.00    +0.000 C 
BRANCH  29  30
ATOM     30  O   UNL     1      62.143  37.283  73.873  0.00  0.00    +0.000 OA
ATOM     31  H   UNL     1      62.517  37.997  74.421  0.00  0.00    +0.000 HD
ENDBRANCH  29  30
ENDBRANCH  26  29
ENDBRANCH  25  26
ENDBRANCH  24  25
ENDBRANCH  23  24
ENDBRANCH   2  23
TORSDOF 9
ENDMDL
MODEL 7
REMARK VINA RESULT:      -5.9      2.400      5.320
REMARK  Name = 
REMARK  9 active torsions:
REMARK  status: ('A' for Active; 'I' for Inactive)
REMARK    1  A    between atoms: O_1  and  N_7
REMARK    2  A    between atoms: O_1  and  C_20
REMARK    3  A    between atoms: O_2  and  C_14
REMARK    4  A    between atoms: O_3  and  C_18
REMARK    5  A    between atoms: O_4  and  C_25
REMARK    6  A    between atoms: C_8  and  C_10
REMARK    7  A    between atoms: C_17  and  C_18
REMARK    8  A    between atoms: C_17  and  C_20
REMARK    9  A    between atoms: C_18  and  C_25
REMARK                            x       y       z     vdW  Elec       q    Type
REMARK                         _______ _______ _______ _____ _____    ______ ____
ROOT
ATOM      1  N   UNL     1      59.779  37.527  75.590  0.00  0.00    +0.000 NA
ATOM      2  N   UNL     1      59.656  34.331  74.056  0.00  0.00    +0.000 NA
ATOM      3  C   UNL     1      59.188  36.379  75.369  0.00  0.00    +0.000 C 
ATOM      4  C   UNL     1      60.060  35.468  74.525  0.00  0.00    +0.000 C 
ATOM      5  C   UNL     1      61.297  36.219  74.353  0.00  0.00    +0.000 A 
ATOM      6  C   UNL     1      61.048  37.433  74.994  0.00  0.00    +0.000 A 
ATOM      7  C   UNL     1      62.496  35.947  73.719  0.00  0.00    +0.000 A 
ATOM      8  C   UNL     1      62.018  38.420  75.014  0.00  0.00    +0.000 A 
ATOM      9  C   UNL     1      63.477  36.941  73.738  0.00  0.00    +0.000 A 
ATOM     10  C   UNL     1      63.240  38.169  74.380  0.00  0.00    +0.000 A 
ENDROOT
BRANCH   3  12
ATOM     11  N   UNL     1      55.647  35.971  76.043  0.00  0.00    +0.000 N 
ATOM     12  C   UNL     1      57.866  36.121  75.889  0.00  0.00    +0.000 A 
ATOM     13  C   UNL     1      57.523  35.575  77.172  0.00  0.00    +0.000 A 
ATOM     14  C   UNL     1      56.131  35.506  77.242  0.00  0.00    +0.000 A 
ATOM     15  C   UNL     1      56.677  36.325  75.210  0.00  0.00    +0.000 A 
ATOM     16  C   UNL     1      58.267  35.144  78.291  0.00  0.00    +0.000 A 
ATOM     17  C   UNL     1      55.448  35.028  78.366  0.00  0.00    +0.000 A 
ATOM     18  C   UNL     1      57.602  34.663  79.424  0.00  0.00    +0.000 A 
ATOM     19  C   UNL     1      56.212  34.608  79.459  0.00  0.00    +0.000 A 
ATOM     20  H   UNL     1      54.666  36.013  75.813  0.00  0.00    +0.000 HD
BRANCH  15  21
ATOM     21  O   UNL     1      56.458  36.742  73.968  0.00  0.00    +0.000 OA
ATOM     22  H   UNL     1      57.295  36.838  73.487  0.00  0.00    +0.000 HD
ENDBRANCH  15  21
ENDBRANCH   3  12
BRANCH   2  23
ATOM     23  O   UNL     1      60.628  33.706  73.271  0.00  0.00    +0.000 OA
BRANCH  23  24
ATOM     24  C   UNL     1      60.103  33.534  71.958  0.00  0.00    +0.000 C 
BRANCH  24  25
ATOM     25  C   UNL     1      59.142  32.354  71.948  0.00  0.00    +0.000 C 
BRANCH  25  26
ATOM     26  C   UNL     1      59.802  31.014  71.624  0.00  0.00    +0.000 C 
BRANCH  26  27
ATOM     27  O   UNL     1      60.413  31.125  70.330  0.00  0.00    +0.000 OA
ATOM     28  H   UNL     1      60.252  32.053  70.064  0.00  0.00    +0.000 HD
ENDBRANCH  26  27
BRANCH  26  29
ATOM     29  C   UNL     1      60.879  30.589  72.628  0.00  0.00    +0.000 C 
BRANCH  29  30
ATOM     30  O   UNL     1      60.329  30.700  73.945  0.00  0.00    +0.000 OA
ATOM     31  H   UNL     1      59.397  30.959  73.836  0.00  0.00    +0.000 HD
ENDBRANCH  29  30
ENDBRANCH  26  29
ENDBRANCH  25  26
ENDBRANCH  24  25
ENDBRANCH  23  24
ENDBRANCH   2  23
TORSDOF 9
ENDMDL
MODEL 8
REMARK VINA RESULT:      -5.9     18.821     21.468
REMARK  Name = 
REMARK  9 active torsions:
REMARK  status: ('A' for Active; 'I' for Inactive)
REMARK    1  A    between atoms: O_1  and  N_7
REMARK    2  A    between atoms: O_1  and  C_20
REMARK    3  A    between atoms: O_2  and  C_14
REMARK    4  A    between atoms: O_3  and  C_18
REMARK    5  A    between atoms: O_4  and  C_25
REMARK    6  A    between atoms: C_8  and  C_10
REMARK    7  A    between atoms: C_17  and  C_18
REMARK    8  A    between atoms: C_17  and  C_20
REMARK    9  A    between atoms: C_18  and  C_25
REMARK                            x       y       z     vdW  Elec       q    Type
REMARK                         _______ _______ _______ _____ _____    ______ ____
ROOT
ATOM      1  N   UNL     1      43.937  23.073  83.079  0.00  0.00    +0.000 NA
ATOM      2  N   UNL     1      43.002  26.494  83.136  0.00  0.00    +0.000 NA
ATOM      3  C   UNL     1      43.071  24.032  82.866  0.00  0.00    +0.000 C 
ATOM      4  C   UNL     1      43.683  25.393  83.143  0.00  0.00    +0.000 C 
ATOM      5  C   UNL     1      45.072  25.098  83.470  0.00  0.00    +0.000 A 
ATOM      6  C   UNL     1      45.141  23.705  83.430  0.00  0.00    +0.000 A 
ATOM      7  C   UNL     1      46.163  25.886  83.788  0.00  0.00    +0.000 A 
ATOM      8  C   UNL     1      46.332  23.060  83.713  0.00  0.00    +0.000 A 
ATOM      9  C   UNL     1      47.367  25.237  84.074  0.00  0.00    +0.000 A 
ATOM     10  C   UNL     1      47.451  23.835  84.038  0.00  0.00    +0.000 A 
ENDROOT
BRANCH   3  12
ATOM     11  N   UNL     1      39.971  23.261  81.148  0.00  0.00    +0.000 N 
ATOM     12  C   UNL     1      41.724  23.727  82.442  0.00  0.00    +0.000 A 
ATOM     13  C   UNL     1      40.567  23.549  83.272  0.00  0.00    +0.000 A 
ATOM     14  C   UNL     1      39.486  23.272  82.434  0.00  0.00    +0.000 A 
ATOM     15  C   UNL     1      41.319  23.510  81.136  0.00  0.00    +0.000 A 
ATOM     16  C   UNL     1      40.331  23.613  84.662  0.00  0.00    +0.000 A 
ATOM     17  C   UNL     1      38.188  23.054  82.911  0.00  0.00    +0.000 A 
ATOM     18  C   UNL     1      39.041  23.397  85.158  0.00  0.00    +0.000 A 
ATOM     19  C   UNL     1      37.986  23.122  84.293  0.00  0.00    +0.000 A 
ATOM     20  H   UNL     1      39.403  23.064  80.338  0.00  0.00    +0.000 HD
BRANCH  15  21
ATOM     21  O   UNL     1      42.023  23.485  80.010  0.00  0.00    +0.000 OA
ATOM     22  H   UNL     1      42.595  22.702  79.983  0.00  0.00    +0.000 HD
ENDBRANCH  15  21
ENDBRANCH   3  12
BRANCH   2  23
ATOM     23  O   UNL     1      43.784  27.602  83.469  0.00  0.00    +0.000 OA
BRANCH  23  24
ATOM     24  C   UNL     1      42.975  28.520  84.199  0.00  0.00    +0.000 C 
BRANCH  24  25
ATOM     25  C   UNL     1      42.138  27.759  85.216  0.00  0.00    +0.000 C 
BRANCH  25  26
ATOM     26  C   UNL     1      42.782  27.648  86.598  0.00  0.00    +0.000 C 
BRANCH  26  27
ATOM     27  O   UNL     1      44.069  28.281  86.536  0.00  0.00    +0.000 OA
ATOM     28  H   UNL     1      44.125  28.801  87.363  0.00  0.00    +0.000 HD
ENDBRANCH  26  27
BRANCH  26  29
ATOM     29  C   UNL     1      41.976  28.312  87.719  0.00  0.00    +0.000 C 
BRANCH  29  30
ATOM     30  O   UNL     1      40.584  28.135  87.431  0.00  0.00    +0.000 OA
ATOM     31  H   UNL     1      40.522  27.383  86.815  0.00  0.00    +0.000 HD
ENDBRANCH  29  30
ENDBRANCH  26  29
ENDBRANCH  25  26
ENDBRANCH  24  25
ENDBRANCH  23  24
ENDBRANCH   2  23
TORSDOF 9
ENDMDL
MODEL 9
REMARK VINA RESULT:      -5.7      6.829     10.608
REMARK  Name = 
REMARK  9 active torsions:
REMARK  status: ('A' for Active; 'I' for Inactive)
REMARK    1  A    between atoms: O_1  and  N_7
REMARK    2  A    between atoms: O_1  and  C_20
REMARK    3  A    between atoms: O_2  and  C_14
REMARK    4  A    between atoms: O_3  and  C_18
REMARK    5  A    between atoms: O_4  and  C_25
REMARK    6  A    between atoms: C_8  and  C_10
REMARK    7  A    between atoms: C_17  and  C_18
REMARK    8  A    between atoms: C_17  and  C_20
REMARK    9  A    between atoms: C_18  and  C_25
REMARK                            x       y       z     vdW  Elec       q    Type
REMARK                         _______ _______ _______ _____ _____    ______ ____
ROOT
ATOM      1  N   UNL     1      56.669  38.353  84.621  0.00  0.00    +0.000 NA
ATOM      2  N   UNL     1      55.279  35.589  86.357  0.00  0.00    +0.000 NA
ATOM      3  C   UNL     1      56.513  37.065  84.794  0.00  0.00    +0.000 C 
ATOM      4  C   UNL     1      55.513  36.779  85.900  0.00  0.00    +0.000 C 
ATOM      5  C   UNL     1      55.036  38.096  86.297  0.00  0.00    +0.000 A 
ATOM      6  C   UNL     1      55.778  38.977  85.510  0.00  0.00    +0.000 A 
ATOM      7  C   UNL     1      54.103  38.532  87.222  0.00  0.00    +0.000 A 
ATOM      8  C   UNL     1      55.596  40.343  85.637  0.00  0.00    +0.000 A 
ATOM      9  C   UNL     1      53.918  39.911  87.351  0.00  0.00    +0.000 A 
ATOM     10  C   UNL     1      54.660  40.810  86.565  0.00  0.00    +0.000 A 
ENDROOT
BRANCH   3  12
ATOM     11  N   UNL     1      58.634  34.463  83.419  0.00  0.00    +0.000 N 
ATOM     12  C   UNL     1      57.259  36.120  83.997  0.00  0.00    +0.000 A 
ATOM     13  C   UNL     1      57.237  35.972  82.569  0.00  0.00    +0.000 A 
ATOM     14  C   UNL     1      58.115  34.940  82.239  0.00  0.00    +0.000 A 
ATOM     15  C   UNL     1      58.113  35.147  84.487  0.00  0.00    +0.000 A 
ATOM     16  C   UNL     1      56.562  36.633  81.520  0.00  0.00    +0.000 A 
ATOM     17  C   UNL     1      58.350  34.532  80.920  0.00  0.00    +0.000 A 
ATOM     18  C   UNL     1      56.784  36.239  80.196  0.00  0.00    +0.000 A 
ATOM     19  C   UNL     1      57.666  35.203  79.902  0.00  0.00    +0.000 A 
ATOM     20  H   UNL     1      59.285  33.696  83.475  0.00  0.00    +0.000 HD
BRANCH  15  21
ATOM     21  O   UNL     1      58.417  34.821  85.739  0.00  0.00    +0.000 OA
ATOM     22  H   UNL     1      57.632  34.882  86.307  0.00  0.00    +0.000 HD
ENDBRANCH  15  21
ENDBRANCH   3  12
BRANCH   2  23
ATOM     23  O   UNL     1      54.355  35.598  87.404  0.00  0.00    +0.000 OA
BRANCH  23  24
ATOM     24  C   UNL     1      54.145  34.253  87.828  0.00  0.00    +0.000 C 
BRANCH  24  25
ATOM     25  C   UNL     1      55.428  33.457  87.640  0.00  0.00    +0.000 C 
BRANCH  25  26
ATOM     26  C   UNL     1      56.180  33.168  88.939  0.00  0.00    +0.000 C 
BRANCH  26  27
ATOM     27  O   UNL     1      56.479  31.764  88.971  0.00  0.00    +0.000 OA
ATOM     28  H   UNL     1      57.293  31.701  89.510  0.00  0.00    +0.000 HD
ENDBRANCH  26  27
BRANCH  26  29
ATOM     29  C   UNL     1      57.495  33.941  89.085  0.00  0.00    +0.000 C 
BRANCH  29  30
ATOM     30  O   UNL     1      57.343  35.205  88.431  0.00  0.00    +0.000 OA
ATOM     31  H   UNL     1      58.200  35.405  88.013  0.00  0.00    +0.000 HD
ENDBRANCH  29  30
ENDBRANCH  26  29
ENDBRANCH  25  26
ENDBRANCH  24  25
ENDBRANCH  23  24
ENDBRANCH   2  23
TORSDOF 9
ENDMDL
