MODEL 1
REMARK VINA RESULT:      -7.0      0.000      0.000
REMARK  Name = IPA3.pdbqt.pdb
REMARK  5 active torsions:
REMARK  status: ('A' for Active; 'I' for Inactive)
REMARK    1  A    between atoms: S_1  and  S_2
REMARK    2  A    between atoms: S_1  and  C_15
REMARK    3  A    between atoms: S_2  and  C_3
REMARK    4  A    between atoms: C_10  and  O_13
REMARK    5  A    between atoms: C_22  and  O_25
REMARK                            x       y       z     vdW  Elec       q    Type
REMARK                         _______ _______ _______ _____ _____    ______ ____
ROOT
ATOM      1  S   UNL     1      59.363  35.574  75.519  0.00  0.00    +0.000 S 
ENDROOT
BRANCH   1   2
ATOM      2  C   UNL     1      57.913  35.551  76.584  0.00  0.00    +0.000 A 
ATOM      3  C   UNL     1      58.040  35.575  77.994  0.00  0.00    +0.000 A 
ATOM      4  C   UNL     1      56.868  35.584  78.787  0.00  0.00    +0.000 A 
ATOM      5  C   UNL     1      59.276  35.604  78.662  0.00  0.00    +0.000 A 
ATOM      6  C   UNL     1      55.610  35.552  78.190  0.00  0.00    +0.000 A 
ATOM      7  C   UNL     1      56.954  35.631  80.178  0.00  0.00    +0.000 A 
ATOM      8  C   UNL     1      55.489  35.512  76.807  0.00  0.00    +0.000 A 
ATOM      9  C   UNL     1      56.631  35.513  76.013  0.00  0.00    +0.000 A 
ATOM     10  C   UNL     1      58.194  35.668  80.809  0.00  0.00    +0.000 A 
ATOM     11  C   UNL     1      59.357  35.653  80.052  0.00  0.00    +0.000 A 
BRANCH   9  12
ATOM     12  O   UNL     1      56.432  35.483  74.658  0.00  0.00    +0.000 OA
ATOM     13  H   UNL     1      57.178  34.999  74.259  0.00  0.00    +0.000 HD
ENDBRANCH   9  12
ENDBRANCH   1   2
BRANCH   1  14
ATOM     14  S   UNL     1      59.941  37.548  75.646  0.00  0.00    +0.000 S 
BRANCH  14  15
ATOM     15  C   UNL     1      58.361  38.398  75.534  0.00  0.00    +0.000 A 
ATOM     16  C   UNL     1      57.701  38.555  74.291  0.00  0.00    +0.000 A 
ATOM     17  C   UNL     1      56.446  39.207  74.259  0.00  0.00    +0.000 A 
ATOM     18  C   UNL     1      58.220  38.085  73.071  0.00  0.00    +0.000 A 
ATOM     19  C   UNL     1      55.877  39.701  75.429  0.00  0.00    +0.000 A 
ATOM     20  C   UNL     1      55.757  39.360  73.056  0.00  0.00    +0.000 A 
ATOM     21  C   UNL     1      56.533  39.560  76.646  0.00  0.00    +0.000 A 
ATOM     22  C   UNL     1      57.762  38.913  76.695  0.00  0.00    +0.000 A 
ATOM     23  C   UNL     1      56.293  38.874  71.866  0.00  0.00    +0.000 A 
ATOM     24  C   UNL     1      57.528  38.238  71.872  0.00  0.00    +0.000 A 
BRANCH  22  25
ATOM     25  O   UNL     1      58.343  38.803  77.931  0.00  0.00    +0.000 OA
ATOM     26  H   UNL     1      58.827  37.957  77.956  0.00  0.00    +0.000 HD
ENDBRANCH  22  25
ENDBRANCH  14  15
ENDBRANCH   1  14
TORSDOF 5
ENDMDL
MODEL 2
REMARK VINA RESULT:      -6.5      4.233      5.906
REMARK  Name = IPA3.pdbqt.pdb
REMARK  5 active torsions:
REMARK  status: ('A' for Active; 'I' for Inactive)
REMARK    1  A    between atoms: S_1  and  S_2
REMARK    2  A    between atoms: S_1  and  C_15
REMARK    3  A    between atoms: S_2  and  C_3
REMARK    4  A    between atoms: C_10  and  O_13
REMARK    5  A    between atoms: C_22  and  O_25
REMARK                            x       y       z     vdW  Elec       q    Type
REMARK                         _______ _______ _______ _____ _____    ______ ____
ROOT
ATOM      1  S   UNL     1      60.002  35.551  74.044  0.00  0.00    +0.000 S 
ENDROOT
BRANCH   1   2
ATOM      2  C   UNL     1      59.245  36.811  75.082  0.00  0.00    +0.000 A 
ATOM      3  C   UNL     1      59.047  36.596  76.467  0.00  0.00    +0.000 A 
ATOM      4  C   UNL     1      58.473  37.630  77.245  0.00  0.00    +0.000 A 
ATOM      5  C   UNL     1      59.403  35.408  77.128  0.00  0.00    +0.000 A 
ATOM      6  C   UNL     1      58.093  38.832  76.654  0.00  0.00    +0.000 A 
ATOM      7  C   UNL     1      58.285  37.463  78.617  0.00  0.00    +0.000 A 
ATOM      8  C   UNL     1      58.273  39.034  75.292  0.00  0.00    +0.000 A 
ATOM      9  C   UNL     1      58.846  38.032  74.515  0.00  0.00    +0.000 A 
ATOM     10  C   UNL     1      58.656  36.277  79.243  0.00  0.00    +0.000 A 
ATOM     11  C   UNL     1      59.215  35.246  78.499  0.00  0.00    +0.000 A 
BRANCH   9  12
ATOM     12  O   UNL     1      59.001  38.308  73.182  0.00  0.00    +0.000 OA
ATOM     13  H   UNL     1      58.906  39.270  73.065  0.00  0.00    +0.000 HD
ENDBRANCH   9  12
ENDBRANCH   1   2
BRANCH   1  14
ATOM     14  S   UNL     1      58.349  34.670  73.186  0.00  0.00    +0.000 S 
BRANCH  14  15
ATOM     15  C   UNL     1      58.933  34.349  71.516  0.00  0.00    +0.000 A 
ATOM     16  C   UNL     1      59.383  33.063  71.133  0.00  0.00    +0.000 A 
ATOM     17  C   UNL     1      59.806  32.854  69.800  0.00  0.00    +0.000 A 
ATOM     18  C   UNL     1      59.423  31.961  72.007  0.00  0.00    +0.000 A 
ATOM     19  C   UNL     1      59.798  33.902  68.883  0.00  0.00    +0.000 A 
ATOM     20  C   UNL     1      60.234  31.595  69.380  0.00  0.00    +0.000 A 
ATOM     21  C   UNL     1      59.371  35.168  69.265  0.00  0.00    +0.000 A 
ATOM     22  C   UNL     1      58.942  35.386  70.569  0.00  0.00    +0.000 A 
ATOM     23  C   UNL     1      60.253  30.521  70.267  0.00  0.00    +0.000 A 
ATOM     24  C   UNL     1      59.849  30.705  71.584  0.00  0.00    +0.000 A 
BRANCH  22  25
ATOM     25  O   UNL     1      58.526  36.657  70.869  0.00  0.00    +0.000 OA
ATOM     26  H   UNL     1      57.684  36.810  70.403  0.00  0.00    +0.000 HD
ENDBRANCH  22  25
ENDBRANCH  14  15
ENDBRANCH   1  14
TORSDOF 5
ENDMDL
MODEL 3
REMARK VINA RESULT:      -6.4      4.664      6.802
REMARK  Name = IPA3.pdbqt.pdb
REMARK  5 active torsions:
REMARK  status: ('A' for Active; 'I' for Inactive)
REMARK    1  A    between atoms: S_1  and  S_2
REMARK    2  A    between atoms: S_1  and  C_15
REMARK    3  A    between atoms: S_2  and  C_3
REMARK    4  A    between atoms: C_10  and  O_13
REMARK    5  A    between atoms: C_22  and  O_25
REMARK                            x       y       z     vdW  Elec       q    Type
REMARK                         _______ _______ _______ _____ _____    ______ ____
ROOT
ATOM      1  S   UNL     1      60.231  34.708  73.134  0.00  0.00    +0.000 S 
ENDROOT
BRANCH   1   2
ATOM      2  C   UNL     1      60.390  32.949  72.792  0.00  0.00    +0.000 A 
ATOM      3  C   UNL     1      60.133  32.428  71.501  0.00  0.00    +0.000 A 
ATOM      4  C   UNL     1      60.300  31.041  71.276  0.00  0.00    +0.000 A 
ATOM      5  C   UNL     1      59.729  33.219  70.411  0.00  0.00    +0.000 A 
ATOM      6  C   UNL     1      60.694  30.199  72.313  0.00  0.00    +0.000 A 
ATOM      7  C   UNL     1      60.079  30.497  70.012  0.00  0.00    +0.000 A 
ATOM      8  C   UNL     1      60.930  30.710  73.583  0.00  0.00    +0.000 A 
ATOM      9  C   UNL     1      60.781  32.073  73.818  0.00  0.00    +0.000 A 
ATOM     10  C   UNL     1      59.688  31.308  68.950  0.00  0.00    +0.000 A 
ATOM     11  C   UNL     1      59.511  32.670  69.149  0.00  0.00    +0.000 A 
BRANCH   9  12
ATOM     12  O   UNL     1      61.040  32.504  75.092  0.00  0.00    +0.000 OA
ATOM     13  H   UNL     1      61.237  31.721  75.636  0.00  0.00    +0.000 HD
ENDBRANCH   9  12
ENDBRANCH   1   2
BRANCH   1  14
ATOM     14  S   UNL     1      58.190  34.910  73.331  0.00  0.00    +0.000 S 
BRANCH  14  15
ATOM     15  C   UNL     1      58.033  36.658  73.725  0.00  0.00    +0.000 A 
ATOM     16  C   UNL     1      57.842  37.093  75.058  0.00  0.00    +0.000 A 
ATOM     17  C   UNL     1      57.753  38.480  75.320  0.00  0.00    +0.000 A 
ATOM     18  C   UNL     1      57.746  36.218  76.155  0.00  0.00    +0.000 A 
ATOM     19  C   UNL     1      57.835  39.402  74.281  0.00  0.00    +0.000 A 
ATOM     20  C   UNL     1      57.587  38.947  76.624  0.00  0.00    +0.000 A 
ATOM     21  C   UNL     1      58.007  38.973  72.970  0.00  0.00    +0.000 A 
ATOM     22  C   UNL     1      58.107  37.613  72.698  0.00  0.00    +0.000 A 
ATOM     23  C   UNL     1      57.505  38.055  77.690  0.00  0.00    +0.000 A 
ATOM     24  C   UNL     1      57.583  36.688  77.456  0.00  0.00    +0.000 A 
BRANCH  22  25
ATOM     25  O   UNL     1      58.285  37.267  71.384  0.00  0.00    +0.000 OA
ATOM     26  H   UNL     1      58.325  38.090  70.864  0.00  0.00    +0.000 HD
ENDBRANCH  22  25
ENDBRANCH  14  15
ENDBRANCH   1  14
TORSDOF 5
ENDMDL
MODEL 4
REMARK VINA RESULT:      -6.3      3.919      5.958
REMARK  Name = IPA3.pdbqt.pdb
REMARK  5 active torsions:
REMARK  status: ('A' for Active; 'I' for Inactive)
REMARK    1  A    between atoms: S_1  and  S_2
REMARK    2  A    between atoms: S_1  and  C_15
REMARK    3  A    between atoms: S_2  and  C_3
REMARK    4  A    between atoms: C_10  and  O_13
REMARK    5  A    between atoms: C_22  and  O_25
REMARK                            x       y       z     vdW  Elec       q    Type
REMARK                         _______ _______ _______ _____ _____    ______ ____
ROOT
ATOM      1  S   UNL     1      59.995  35.164  75.690  0.00  0.00    +0.000 S 
ENDROOT
BRANCH   1   2
ATOM      2  C   UNL     1      61.752  35.120  75.305  0.00  0.00    +0.000 A 
ATOM      3  C   UNL     1      62.460  36.302  74.980  0.00  0.00    +0.000 A 
ATOM      4  C   UNL     1      63.847  36.218  74.713  0.00  0.00    +0.000 A 
ATOM      5  C   UNL     1      61.863  37.574  74.920  0.00  0.00    +0.000 A 
ATOM      6  C   UNL     1      64.502  34.989  74.751  0.00  0.00    +0.000 A 
ATOM      7  C   UNL     1      64.582  37.365  74.413  0.00  0.00    +0.000 A 
ATOM      8  C   UNL     1      63.801  33.829  75.054  0.00  0.00    +0.000 A 
ATOM      9  C   UNL     1      62.439  33.896  75.330  0.00  0.00    +0.000 A 
ATOM     10  C   UNL     1      63.963  38.610  74.369  0.00  0.00    +0.000 A 
ATOM     11  C   UNL     1      62.602  38.716  74.621  0.00  0.00    +0.000 A 
BRANCH   9  12
ATOM     12  O   UNL     1      61.819  32.712  75.630  0.00  0.00    +0.000 OA
ATOM     13  H   UNL     1      61.348  32.413  74.831  0.00  0.00    +0.000 HD
ENDBRANCH   9  12
ENDBRANCH   1   2
BRANCH   1  14
ATOM     14  S   UNL     1      60.018  35.705  77.678  0.00  0.00    +0.000 S 
BRANCH  14  15
ATOM     15  C   UNL     1      58.262  35.767  78.059  0.00  0.00    +0.000 A 
ATOM     16  C   UNL     1      57.469  36.874  77.674  0.00  0.00    +0.000 A 
ATOM     17  C   UNL     1      56.086  36.862  77.972  0.00  0.00    +0.000 A 
ATOM     18  C   UNL     1      57.976  37.995  76.992  0.00  0.00    +0.000 A 
ATOM     19  C   UNL     1      55.518  35.787  78.650  0.00  0.00    +0.000 A 
ATOM     20  C   UNL     1      55.268  37.925  77.588  0.00  0.00    +0.000 A 
ATOM     21  C   UNL     1      56.301  34.708  79.041  0.00  0.00    +0.000 A 
ATOM     22  C   UNL     1      57.660  34.700  78.746  0.00  0.00    +0.000 A 
ATOM     23  C   UNL     1      55.800  39.016  76.905  0.00  0.00    +0.000 A 
ATOM     24  C   UNL     1      57.157  39.053  76.608  0.00  0.00    +0.000 A 
BRANCH  22  25
ATOM     25  O   UNL     1      58.365  33.599  79.155  0.00  0.00    +0.000 OA
ATOM     26  H   UNL     1      59.133  33.913  79.667  0.00  0.00    +0.000 HD
ENDBRANCH  22  25
ENDBRANCH  14  15
ENDBRANCH   1  14
TORSDOF 5
ENDMDL
MODEL 5
REMARK VINA RESULT:      -5.9      3.610      5.349
REMARK  Name = IPA3.pdbqt.pdb
REMARK  5 active torsions:
REMARK  status: ('A' for Active; 'I' for Inactive)
REMARK    1  A    between atoms: S_1  and  S_2
REMARK    2  A    between atoms: S_1  and  C_15
REMARK    3  A    between atoms: S_2  and  C_3
REMARK    4  A    between atoms: C_10  and  O_13
REMARK    5  A    between atoms: C_22  and  O_25
REMARK                            x       y       z     vdW  Elec       q    Type
REMARK                         _______ _______ _______ _____ _____    ______ ____
ROOT
ATOM      1  S   UNL     1      60.389  34.800  72.020  0.00  0.00    +0.000 S 
ENDROOT
BRANCH   1   2
ATOM      2  C   UNL     1      61.303  34.284  73.481  0.00  0.00    +0.000 A 
ATOM      3  C   UNL     1      61.853  35.235  74.374  0.00  0.00    +0.000 A 
ATOM      4  C   UNL     1      62.539  34.778  75.524  0.00  0.00    +0.000 A 
ATOM      5  C   UNL     1      61.745  36.625  74.192  0.00  0.00    +0.000 A 
ATOM      6  C   UNL     1      62.686  33.415  75.765  0.00  0.00    +0.000 A 
ATOM      7  C   UNL     1      63.072  35.686  76.438  0.00  0.00    +0.000 A 
ATOM      8  C   UNL     1      62.160  32.483  74.878  0.00  0.00    +0.000 A 
ATOM      9  C   UNL     1      61.474  32.916  73.748  0.00  0.00    +0.000 A 
ATOM     10  C   UNL     1      62.941  37.056  76.234  0.00  0.00    +0.000 A 
ATOM     11  C   UNL     1      62.278  37.528  75.109  0.00  0.00    +0.000 A 
BRANCH   9  12
ATOM     12  O   UNL     1      60.975  31.940  72.926  0.00  0.00    +0.000 OA
ATOM     13  H   UNL     1      60.003  31.976  72.980  0.00  0.00    +0.000 HD
ENDBRANCH   9  12
ENDBRANCH   1   2
BRANCH   1  14
ATOM     14  S   UNL     1      58.451  34.798  72.719  0.00  0.00    +0.000 S 
BRANCH  14  15
ATOM     15  C   UNL     1      58.255  36.504  73.253  0.00  0.00    +0.000 A 
ATOM     16  C   UNL     1      58.344  36.858  74.620  0.00  0.00    +0.000 A 
ATOM     17  C   UNL     1      58.210  38.218  74.987  0.00  0.00    +0.000 A 
ATOM     18  C   UNL     1      58.572  35.928  75.651  0.00  0.00    +0.000 A 
ATOM     19  C   UNL     1      57.978  39.191  74.019  0.00  0.00    +0.000 A 
ATOM     20  C   UNL     1      58.314  38.606  76.322  0.00  0.00    +0.000 A 
ATOM     21  C   UNL     1      57.875  38.840  72.678  0.00  0.00    +0.000 A 
ATOM     22  C   UNL     1      58.014  37.509  72.301  0.00  0.00    +0.000 A 
ATOM     23  C   UNL     1      58.551  37.662  77.318  0.00  0.00    +0.000 A 
ATOM     24  C   UNL     1      58.678  36.320  76.983  0.00  0.00    +0.000 A 
BRANCH  22  25
ATOM     25  O   UNL     1      57.911  37.241  70.962  0.00  0.00    +0.000 OA
ATOM     26  H   UNL     1      58.516  37.845  70.492  0.00  0.00    +0.000 HD
ENDBRANCH  22  25
ENDBRANCH  14  15
ENDBRANCH   1  14
TORSDOF 5
ENDMDL
MODEL 6
REMARK VINA RESULT:      -5.6     58.882     61.290
REMARK  Name = IPA3.pdbqt.pdb
REMARK  5 active torsions:
REMARK  status: ('A' for Active; 'I' for Inactive)
REMARK    1  A    between atoms: S_1  and  S_2
REMARK    2  A    between atoms: S_1  and  C_15
REMARK    3  A    between atoms: S_2  and  C_3
REMARK    4  A    between atoms: C_10  and  O_13
REMARK    5  A    between atoms: C_22  and  O_25
REMARK                            x       y       z     vdW  Elec       q    Type
REMARK                         _______ _______ _______ _____ _____    ______ ____
ROOT
ATOM      1  S   UNL     1       3.388  16.842  97.666  0.00  0.00    +0.000 S 
ENDROOT
BRANCH   1   2
ATOM      2  C   UNL     1       4.970  16.362  98.377  0.00  0.00    +0.000 A 
ATOM      3  C   UNL     1       5.080  15.228  99.217  0.00  0.00    +0.000 A 
ATOM      4  C   UNL     1       6.351  14.876  99.728  0.00  0.00    +0.000 A 
ATOM      5  C   UNL     1       3.991  14.411  99.567  0.00  0.00    +0.000 A 
ATOM      6  C   UNL     1       7.473  15.643  99.425  0.00  0.00    +0.000 A 
ATOM      7  C   UNL     1       6.502  13.751 100.539  0.00  0.00    +0.000 A 
ATOM      8  C   UNL     1       7.359  16.765  98.614  0.00  0.00    +0.000 A 
ATOM      9  C   UNL     1       6.118  17.119  98.095  0.00  0.00    +0.000 A 
ATOM     10  C   UNL     1       5.405  12.958 100.861  0.00  0.00    +0.000 A 
ATOM     11  C   UNL     1       4.146  13.288 100.376  0.00  0.00    +0.000 A 
BRANCH   9  12
ATOM     12  O   UNL     1       6.086  18.231  97.296  0.00  0.00    +0.000 OA
ATOM     13  H   UNL     1       6.814  18.817  97.573  0.00  0.00    +0.000 HD
ENDBRANCH   9  12
ENDBRANCH   1   2
BRANCH   1  14
ATOM     14  S   UNL     1       3.596  16.200  95.719  0.00  0.00    +0.000 S 
BRANCH  14  15
ATOM     15  C   UNL     1       4.448  14.633  95.942  0.00  0.00    +0.000 A 
ATOM     16  C   UNL     1       3.746  13.467  96.333  0.00  0.00    +0.000 A 
ATOM     17  C   UNL     1       4.457  12.252  96.468  0.00  0.00    +0.000 A 
ATOM     18  C   UNL     1       2.363  13.442  96.589  0.00  0.00    +0.000 A 
ATOM     19  C   UNL     1       5.828  12.206  96.235  0.00  0.00    +0.000 A 
ATOM     20  C   UNL     1       3.795  11.079  96.830  0.00  0.00    +0.000 A 
ATOM     21  C   UNL     1       6.519  13.354  95.866  0.00  0.00    +0.000 A 
ATOM     22  C   UNL     1       5.832  14.554  95.720  0.00  0.00    +0.000 A 
ATOM     23  C   UNL     1       2.422  11.085  97.066  0.00  0.00    +0.000 A 
ATOM     24  C   UNL     1       1.705  12.269  96.948  0.00  0.00    +0.000 A 
BRANCH  22  25
ATOM     25  O   UNL     1       6.578  15.640  95.344  0.00  0.00    +0.000 OA
ATOM     26  H   UNL     1       7.203  15.346  94.656  0.00  0.00    +0.000 HD
ENDBRANCH  22  25
ENDBRANCH  14  15
ENDBRANCH   1  14
TORSDOF 5
ENDMDL
MODEL 7
REMARK VINA RESULT:      -5.6     58.876     61.326
REMARK  Name = IPA3.pdbqt.pdb
REMARK  5 active torsions:
REMARK  status: ('A' for Active; 'I' for Inactive)
REMARK    1  A    between atoms: S_1  and  S_2
REMARK    2  A    between atoms: S_1  and  C_15
REMARK    3  A    between atoms: S_2  and  C_3
REMARK    4  A    between atoms: C_10  and  O_13
REMARK    5  A    between atoms: C_22  and  O_25
REMARK                            x       y       z     vdW  Elec       q    Type
REMARK                         _______ _______ _______ _____ _____    ______ ____
ROOT
ATOM      1  S   UNL     1       3.597  16.204  95.719  0.00  0.00    +0.000 S 
ENDROOT
BRANCH   1   2
ATOM      2  C   UNL     1       4.448  14.635  95.942  0.00  0.00    +0.000 A 
ATOM      3  C   UNL     1       3.745  13.471  96.335  0.00  0.00    +0.000 A 
ATOM      4  C   UNL     1       4.456  12.255  96.469  0.00  0.00    +0.000 A 
ATOM      5  C   UNL     1       2.363  13.446  96.590  0.00  0.00    +0.000 A 
ATOM      6  C   UNL     1       5.828  12.207  96.236  0.00  0.00    +0.000 A 
ATOM      7  C   UNL     1       3.793  11.082  96.831  0.00  0.00    +0.000 A 
ATOM      8  C   UNL     1       6.518  13.355  95.867  0.00  0.00    +0.000 A 
ATOM      9  C   UNL     1       5.833  14.556  95.720  0.00  0.00    +0.000 A 
ATOM     10  C   UNL     1       2.421  11.090  97.068  0.00  0.00    +0.000 A 
ATOM     11  C   UNL     1       1.704  12.273  96.949  0.00  0.00    +0.000 A 
BRANCH   9  12
ATOM     12  O   UNL     1       6.578  15.642  95.344  0.00  0.00    +0.000 OA
ATOM     13  H   UNL     1       6.451  15.772  94.387  0.00  0.00    +0.000 HD
ENDBRANCH   9  12
ENDBRANCH   1   2
BRANCH   1  14
ATOM     14  S   UNL     1       3.401  16.851  97.665  0.00  0.00    +0.000 S 
BRANCH  14  15
ATOM     15  C   UNL     1       4.981  16.365  98.372  0.00  0.00    +0.000 A 
ATOM     16  C   UNL     1       5.089  15.230  99.211  0.00  0.00    +0.000 A 
ATOM     17  C   UNL     1       6.360  14.872  99.719  0.00  0.00    +0.000 A 
ATOM     18  C   UNL     1       3.997  14.418  99.565  0.00  0.00    +0.000 A 
ATOM     19  C   UNL     1       7.484  15.634  99.414  0.00  0.00    +0.000 A 
ATOM     20  C   UNL     1       6.508  13.748 100.531  0.00  0.00    +0.000 A 
ATOM     21  C   UNL     1       7.374  16.758  98.602  0.00  0.00    +0.000 A 
ATOM     22  C   UNL     1       6.133  17.116  98.087  0.00  0.00    +0.000 A 
ATOM     23  C   UNL     1       5.408  12.958 100.855  0.00  0.00    +0.000 A 
ATOM     24  C   UNL     1       4.149  13.295 100.373  0.00  0.00    +0.000 A 
BRANCH  22  25
ATOM     25  O   UNL     1       6.104  18.229  97.288  0.00  0.00    +0.000 OA
ATOM     26  H   UNL     1       5.322  18.754  97.540  0.00  0.00    +0.000 HD
ENDBRANCH  22  25
ENDBRANCH  14  15
ENDBRANCH   1  14
TORSDOF 5
ENDMDL
MODEL 8
REMARK VINA RESULT:      -5.5     43.820     46.300
REMARK  Name = IPA3.pdbqt.pdb
REMARK  5 active torsions:
REMARK  status: ('A' for Active; 'I' for Inactive)
REMARK    1  A    between atoms: S_1  and  S_2
REMARK    2  A    between atoms: S_1  and  C_15
REMARK    3  A    between atoms: S_2  and  C_3
REMARK    4  A    between atoms: C_10  and  O_13
REMARK    5  A    between atoms: C_22  and  O_25
REMARK                            x       y       z     vdW  Elec       q    Type
REMARK                         _______ _______ _______ _____ _____    ______ ____
ROOT
ATOM      1  S   UNL     1      23.450  10.200  85.823  0.00  0.00    +0.000 S 
ENDROOT
BRANCH   1   2
ATOM      2  C   UNL     1      24.519  10.003  87.256  0.00  0.00    +0.000 A 
ATOM      3  C   UNL     1      25.262   8.815  87.457  0.00  0.00    +0.000 A 
ATOM      4  C   UNL     1      26.110   8.721  88.586  0.00  0.00    +0.000 A 
ATOM      5  C   UNL     1      25.218   7.714  86.584  0.00  0.00    +0.000 A 
ATOM      6  C   UNL     1      26.199   9.773  89.494  0.00  0.00    +0.000 A 
ATOM      7  C   UNL     1      26.875   7.575  88.804  0.00  0.00    +0.000 A 
ATOM      8  C   UNL     1      25.455  10.931  89.303  0.00  0.00    +0.000 A 
ATOM      9  C   UNL     1      24.625  11.043  88.193  0.00  0.00    +0.000 A 
ATOM     10  C   UNL     1      26.816   6.505  87.916  0.00  0.00    +0.000 A 
ATOM     11  C   UNL     1      25.986   6.572  86.805  0.00  0.00    +0.000 A 
BRANCH   9  12
ATOM     12  O   UNL     1      23.932  12.218  88.067  0.00  0.00    +0.000 OA
ATOM     13  H   UNL     1      22.996  11.995  87.910  0.00  0.00    +0.000 HD
ENDBRANCH   9  12
ENDBRANCH   1   2
BRANCH   1  14
ATOM     14  S   UNL     1      21.615   9.667  86.595  0.00  0.00    +0.000 S 
BRANCH  14  15
ATOM     15  C   UNL     1      20.998   8.549  85.329  0.00  0.00    +0.000 A 
ATOM     16  C   UNL     1      21.134   7.146  85.462  0.00  0.00    +0.000 A 
ATOM     17  C   UNL     1      20.607   6.308  84.452  0.00  0.00    +0.000 A 
ATOM     18  C   UNL     1      21.760   6.526  86.559  0.00  0.00    +0.000 A 
ATOM     19  C   UNL     1      19.980   6.854  83.336  0.00  0.00    +0.000 A 
ATOM     20  C   UNL     1      20.703   4.921  84.560  0.00  0.00    +0.000 A 
ATOM     21  C   UNL     1      19.861   8.232  83.199  0.00  0.00    +0.000 A 
ATOM     22  C   UNL     1      20.365   9.069  84.188  0.00  0.00    +0.000 A 
ATOM     23  C   UNL     1      21.319   4.337  85.664  0.00  0.00    +0.000 A 
ATOM     24  C   UNL     1      21.851   5.141  86.664  0.00  0.00    +0.000 A 
BRANCH  22  25
ATOM     25  O   UNL     1      20.202  10.415  83.989  0.00  0.00    +0.000 OA
ATOM     26  H   UNL     1      20.276  10.853  84.857  0.00  0.00    +0.000 HD
ENDBRANCH  22  25
ENDBRANCH  14  15
ENDBRANCH   1  14
TORSDOF 5
ENDMDL
MODEL 9
REMARK VINA RESULT:      -5.5     56.263     58.823
REMARK  Name = IPA3.pdbqt.pdb
REMARK  5 active torsions:
REMARK  status: ('A' for Active; 'I' for Inactive)
REMARK    1  A    between atoms: S_1  and  S_2
REMARK    2  A    between atoms: S_1  and  C_15
REMARK    3  A    between atoms: S_2  and  C_3
REMARK    4  A    between atoms: C_10  and  O_13
REMARK    5  A    between atoms: C_22  and  O_25
REMARK                            x       y       z     vdW  Elec       q    Type
REMARK                         _______ _______ _______ _____ _____    ______ ____
ROOT
ATOM      1  S   UNL     1      14.123   4.876 100.691  0.00  0.00    +0.000 S 
ENDROOT
BRANCH   1   2
ATOM      2  C   UNL     1      14.175   6.256  99.539  0.00  0.00    +0.000 A 
ATOM      3  C   UNL     1      14.666   7.524  99.936  0.00  0.00    +0.000 A 
ATOM      4  C   UNL     1      14.712   8.569  98.983  0.00  0.00    +0.000 A 
ATOM      5  C   UNL     1      15.129   7.806 101.233  0.00  0.00    +0.000 A 
ATOM      6  C   UNL     1      14.265   8.360  97.681  0.00  0.00    +0.000 A 
ATOM      7  C   UNL     1      15.212   9.824  99.332  0.00  0.00    +0.000 A 
ATOM      8  C   UNL     1      13.768   7.121  97.299  0.00  0.00    +0.000 A 
ATOM      9  C   UNL     1      13.726   6.079  98.220  0.00  0.00    +0.000 A 
ATOM     10  C   UNL     1      15.671  10.069 100.623  0.00  0.00    +0.000 A 
ATOM     11  C   UNL     1      15.629   9.060 101.576  0.00  0.00    +0.000 A 
BRANCH   9  12
ATOM     12  O   UNL     1      13.233   4.884  97.767  0.00  0.00    +0.000 OA
ATOM     13  H   UNL     1      12.856   5.035  96.882  0.00  0.00    +0.000 HD
ENDBRANCH   9  12
ENDBRANCH   1   2
BRANCH   1  14
ATOM     14  S   UNL     1      12.158   4.926 101.312  0.00  0.00    +0.000 S 
BRANCH  14  15
ATOM     15  C   UNL     1      12.118   6.447 102.271  0.00  0.00    +0.000 A 
ATOM     16  C   UNL     1      11.545   7.629 101.745  0.00  0.00    +0.000 A 
ATOM     17  C   UNL     1      11.512   8.792 102.550  0.00  0.00    +0.000 A 
ATOM     18  C   UNL     1      10.986   7.715 100.457  0.00  0.00    +0.000 A 
ATOM     19  C   UNL     1      12.051   8.779 103.833  0.00  0.00    +0.000 A 
ATOM     20  C   UNL     1      10.935   9.968 102.073  0.00  0.00    +0.000 A 
ATOM     21  C   UNL     1      12.629   7.622 104.342  0.00  0.00    +0.000 A 
ATOM     22  C   UNL     1      12.659   6.468 103.567  0.00  0.00    +0.000 A 
ATOM     23  C   UNL     1      10.381  10.019 100.796  0.00  0.00    +0.000 A 
ATOM     24  C   UNL     1      10.408   8.891  99.985  0.00  0.00    +0.000 A 
BRANCH  22  25
ATOM     25  O   UNL     1      13.234   5.364 104.140  0.00  0.00    +0.000 OA
ATOM     26  H   UNL     1      13.124   5.441 105.106  0.00  0.00    +0.000 HD
ENDBRANCH  22  25
ENDBRANCH  14  15
ENDBRANCH   1  14
TORSDOF 5
ENDMDL
