MODEL 1
REMARK VINA RESULT:      -7.2      0.000      0.000
REMARK  Name = 
REMARK  8 active torsions:
REMARK  status: ('A' for Active; 'I' for Inactive)
REMARK    1  A    between atoms: O_1  and  C_21
REMARK    2  A    between atoms: O_1  and  C_38
REMARK    3  A    between atoms: O_4  and  C_26
REMARK    4  A    between atoms: N_7  and  C_11
REMARK    5  A    between atoms: C_26  and  C_33
REMARK    6  A    between atoms: C_29  and  C_37
REMARK    7  A    between atoms: C_33  and  C_42
REMARK    8  A    between atoms: C_37  and  C_43
REMARK                            x       y       z     vdW  Elec       q    Type
REMARK                         _______ _______ _______ _____ _____    ______ ____
ROOT
ATOM      1  O   UNL     1      60.920  29.855  70.764  0.00  0.00    +0.000 OA
ATOM      2  O   UNL     1      60.615  32.229  74.231  0.00  0.00    +0.000 OA
ATOM      3  O   UNL     1      59.837  29.467  68.834  0.00  0.00    +0.000 OA
ATOM      4  N   UNL     1      59.515  33.893  73.096  0.00  0.00    +0.000 N 
ATOM      5  N   UNL     1      57.838  36.531  71.337  0.00  0.00    +0.000 NA
ATOM      6  C   UNL     1      59.042  34.431  71.917  0.00  0.00    +0.000 A 
ATOM      7  C   UNL     1      58.504  35.919  73.592  0.00  0.00    +0.000 A 
ATOM      8  C   UNL     1      59.222  34.767  74.235  0.00  0.00    +0.000 C 
ATOM      9  C   UNL     1      59.888  32.509  70.735  0.00  0.00    +0.000 A 
ATOM     10  C   UNL     1      60.121  31.795  69.427  0.00  0.00    +0.000 C 
ATOM     11  C   UNL     1      58.405  35.707  72.222  0.00  0.00    +0.000 A 
ATOM     12  C   UNL     1      60.353  31.978  71.883  0.00  0.00    +0.000 A 
ATOM     13  C   UNL     1      57.973  37.078  74.139  0.00  0.00    +0.000 A 
ATOM     14  C   UNL     1      59.201  33.796  70.752  0.00  0.00    +0.000 A 
ATOM     15  C   UNL     1      60.178  32.697  73.185  0.00  0.00    +0.000 A 
ATOM     16  C   UNL     1      57.368  37.999  73.235  0.00  0.00    +0.000 A 
ATOM     17  C   UNL     1      61.075  30.678  71.939  0.00  0.00    +0.000 C 
ATOM     18  C   UNL     1      57.329  37.665  71.842  0.00  0.00    +0.000 A 
ATOM     19  C   UNL     1      60.260  30.274  69.663  0.00  0.00    +0.000 C 
ATOM     20  C   UNL     1      56.239  40.093  72.705  0.00  0.00    +0.000 A 
ATOM     21  C   UNL     1      56.805  39.229  73.641  0.00  0.00    +0.000 A 
ATOM     22  C   UNL     1      56.736  38.547  70.949  0.00  0.00    +0.000 A 
ATOM     23  C   UNL     1      56.181  39.758  71.363  0.00  0.00    +0.000 A 
ENDROOT
BRANCH  10  24
ATOM     24  O   UNL     1      58.990  32.018  68.573  0.00  0.00    +0.000 OA
ATOM     25  H   UNL     1      58.302  31.384  68.860  0.00  0.00    +0.000 HD
ENDBRANCH  10  24
BRANCH  10  26
ATOM     26  C   UNL     1      61.388  32.339  68.733  0.00  0.00    +0.000 C 
ATOM     27  C   UNL     1      61.209  32.661  67.252  0.00  0.00    +0.000 C 
ENDBRANCH  10  26
BRANCH  13  28
ATOM     28  C   UNL     1      58.084  37.327  75.623  0.00  0.00    +0.000 C 
ATOM     29  C   UNL     1      56.990  36.619  76.408  0.00  0.00    +0.000 C 
ENDBRANCH  13  28
BRANCH  20  30
ATOM     30  O   UNL     1      55.652  41.280  73.144  0.00  0.00    +0.000 OA
BRANCH  30  38
ATOM     31  O   UNL     1      57.362  42.512  72.182  0.00  0.00    +0.000 OA
ATOM     32  N   UNL     1      55.288  43.466  72.488  0.00  0.00    +0.000 N 
ATOM     33  C   UNL     1      53.838  45.908  73.193  0.00  0.00    +0.000 C 
ATOM     34  C   UNL     1      53.506  44.524  73.806  0.00  0.00    +0.000 C 
ATOM     35  C   UNL     1      55.326  45.905  72.760  0.00  0.00    +0.000 C 
ATOM     36  C   UNL     1      53.895  43.367  72.889  0.00  0.00    +0.000 C 
ATOM     37  C   UNL     1      55.672  44.719  71.866  0.00  0.00    +0.000 C 
ATOM     38  C   UNL     1      56.200  42.424  72.570  0.00  0.00    +0.000 C 
BRANCH  33  39
ATOM     39  N   UNL     1      53.535  47.029  74.138  0.00  0.00    +0.000 NA
ATOM     40  C   UNL     1      53.179  46.537  75.486  0.00  0.00    +0.000 C 
ATOM     41  C   UNL     1      54.649  47.995  74.234  0.00  0.00    +0.000 C 
ATOM     42  C   UNL     1      52.835  47.667  76.459  0.00  0.00    +0.000 C 
ATOM     43  C   UNL     1      54.344  49.162  75.177  0.00  0.00    +0.000 C 
ATOM     44  C   UNL     1      53.968  48.673  76.565  0.00  0.00    +0.000 C 
ENDBRANCH  33  39
ENDBRANCH  30  38
ENDBRANCH  20  30
TORSDOF 6
ENDMDL
MODEL 2
REMARK VINA RESULT:      -7.0     20.195     24.065
REMARK  Name = 
REMARK  8 active torsions:
REMARK  status: ('A' for Active; 'I' for Inactive)
REMARK    1  A    between atoms: O_1  and  C_21
REMARK    2  A    between atoms: O_1  and  C_38
REMARK    3  A    between atoms: O_4  and  C_26
REMARK    4  A    between atoms: N_7  and  C_11
REMARK    5  A    between atoms: C_26  and  C_33
REMARK    6  A    between atoms: C_29  and  C_37
REMARK    7  A    between atoms: C_33  and  C_42
REMARK    8  A    between atoms: C_37  and  C_43
REMARK                            x       y       z     vdW  Elec       q    Type
REMARK                         _______ _______ _______ _____ _____    ______ ____
ROOT
ATOM      1  O   UNL     1      43.983  28.498  85.555  0.00  0.00    +0.000 OA
ATOM      2  O   UNL     1      47.526  27.185  87.419  0.00  0.00    +0.000 OA
ATOM      3  O   UNL     1      42.952  28.430  83.559  0.00  0.00    +0.000 OA
ATOM      4  N   UNL     1      47.684  25.367  86.027  0.00  0.00    +0.000 N 
ATOM      5  N   UNL     1      47.929  22.491  83.899  0.00  0.00    +0.000 NA
ATOM      6  C   UNL     1      47.159  24.568  85.032  0.00  0.00    +0.000 A 
ATOM      7  C   UNL     1      49.178  23.638  85.639  0.00  0.00    +0.000 A 
ATOM      8  C   UNL     1      48.980  24.861  86.487  0.00  0.00    +0.000 C 
ATOM      9  C   UNL     1      45.243  26.025  84.916  0.00  0.00    +0.000 A 
ATOM     10  C   UNL     1      43.890  26.336  84.326  0.00  0.00    +0.000 C 
ATOM     11  C   UNL     1      48.094  23.476  84.784  0.00  0.00    +0.000 A 
ATOM     12  C   UNL     1      45.750  26.809  85.887  0.00  0.00    +0.000 A 
ATOM     13  C   UNL     1      50.214  22.715  85.600  0.00  0.00    +0.000 A 
ATOM     14  C   UNL     1      45.980  24.848  84.468  0.00  0.00    +0.000 A 
ATOM     15  C   UNL     1      47.067  26.487  86.522  0.00  0.00    +0.000 A 
ATOM     16  C   UNL     1      50.081  21.634  84.682  0.00  0.00    +0.000 A 
ATOM     17  C   UNL     1      45.046  28.015  86.403  0.00  0.00    +0.000 C 
ATOM     18  C   UNL     1      48.913  21.580  83.854  0.00  0.00    +0.000 A 
ATOM     19  C   UNL     1      43.591  27.848  84.438  0.00  0.00    +0.000 C 
ATOM     20  C   UNL     1      50.848  19.570  83.637  0.00  0.00    +0.000 A 
ATOM     21  C   UNL     1      51.043  20.609  84.546  0.00  0.00    +0.000 A 
ATOM     22  C   UNL     1      48.772  20.537  82.947  0.00  0.00    +0.000 A 
ATOM     23  C   UNL     1      49.730  19.531  82.820  0.00  0.00    +0.000 A 
ENDROOT
BRANCH  10  24
ATOM     24  O   UNL     1      43.899  25.979  82.937  0.00  0.00    +0.000 OA
ATOM     25  H   UNL     1      44.755  25.533  82.776  0.00  0.00    +0.000 HD
ENDBRANCH  10  24
BRANCH  10  26
ATOM     26  C   UNL     1      42.788  25.527  85.044  0.00  0.00    +0.000 C 
ATOM     27  C   UNL     1      41.546  25.260  84.199  0.00  0.00    +0.000 C 
ENDBRANCH  10  26
BRANCH  13  28
ATOM     28  C   UNL     1      51.392  22.871  86.532  0.00  0.00    +0.000 C 
ATOM     29  C   UNL     1      51.114  22.289  87.909  0.00  0.00    +0.000 C 
ENDBRANCH  13  28
BRANCH  20  30
ATOM     30  O   UNL     1      51.837  18.596  83.495  0.00  0.00    +0.000 OA
BRANCH  30  38
ATOM     31  O   UNL     1      53.673  19.939  83.059  0.00  0.00    +0.000 OA
ATOM     32  N   UNL     1      53.094  18.266  81.585  0.00  0.00    +0.000 N 
ATOM     33  C   UNL     1      52.910  17.491  78.770  0.00  0.00    +0.000 C 
ATOM     34  C   UNL     1      51.762  17.261  79.784  0.00  0.00    +0.000 C 
ATOM     35  C   UNL     1      53.762  18.689  79.261  0.00  0.00    +0.000 C 
ATOM     36  C   UNL     1      52.264  17.132  81.219  0.00  0.00    +0.000 C 
ATOM     37  C   UNL     1      54.219  18.526  80.707  0.00  0.00    +0.000 C 
ATOM     38  C   UNL     1      52.932  19.012  82.743  0.00  0.00    +0.000 C 
BRANCH  33  39
ATOM     39  N   UNL     1      52.398  17.707  77.379  0.00  0.00    +0.000 NA
ATOM     40  C   UNL     1      51.005  18.202  77.372  0.00  0.00    +0.000 C 
ATOM     41  C   UNL     1      53.260  18.620  76.601  0.00  0.00    +0.000 C 
ATOM     42  C   UNL     1      50.451  18.399  75.958  0.00  0.00    +0.000 C 
ATOM     43  C   UNL     1      52.764  18.829  75.168  0.00  0.00    +0.000 C 
ATOM     44  C   UNL     1      51.331  19.331  75.142  0.00  0.00    +0.000 C 
ENDBRANCH  33  39
ENDBRANCH  30  38
ENDBRANCH  20  30
TORSDOF 6
ENDMDL
MODEL 3
REMARK VINA RESULT:      -7.0      4.171     11.741
REMARK  Name = 
REMARK  8 active torsions:
REMARK  status: ('A' for Active; 'I' for Inactive)
REMARK    1  A    between atoms: O_1  and  C_21
REMARK    2  A    between atoms: O_1  and  C_38
REMARK    3  A    between atoms: O_4  and  C_26
REMARK    4  A    between atoms: N_7  and  C_11
REMARK    5  A    between atoms: C_26  and  C_33
REMARK    6  A    between atoms: C_29  and  C_37
REMARK    7  A    between atoms: C_33  and  C_42
REMARK    8  A    between atoms: C_37  and  C_43
REMARK                            x       y       z     vdW  Elec       q    Type
REMARK                         _______ _______ _______ _____ _____    ______ ____
ROOT
ATOM      1  O   UNL     1      53.010  40.871  68.777  0.00  0.00    +0.000 OA
ATOM      2  O   UNL     1      55.324  37.395  68.217  0.00  0.00    +0.000 OA
ATOM      3  O   UNL     1      52.166  42.138  70.429  0.00  0.00    +0.000 OA
ATOM      4  N   UNL     1      56.442  37.719  70.196  0.00  0.00    +0.000 N 
ATOM      5  N   UNL     1      58.238  38.228  73.259  0.00  0.00    +0.000 NA
ATOM      6  C   UNL     1      56.716  38.491  71.306  0.00  0.00    +0.000 A 
ATOM      7  C   UNL     1      58.020  36.597  71.470  0.00  0.00    +0.000 A 
ATOM      8  C   UNL     1      57.224  36.480  70.203  0.00  0.00    +0.000 C 
ATOM      9  C   UNL     1      55.141  40.134  70.518  0.00  0.00    +0.000 A 
ATOM     10  C   UNL     1      54.479  41.478  70.692  0.00  0.00    +0.000 C 
ATOM     11  C   UNL     1      57.711  37.791  72.112  0.00  0.00    +0.000 A 
ATOM     12  C   UNL     1      54.868  39.386  69.431  0.00  0.00    +0.000 A 
ATOM     13  C   UNL     1      58.954  35.744  72.040  0.00  0.00    +0.000 A 
ATOM     14  C   UNL     1      56.111  39.667  71.501  0.00  0.00    +0.000 A 
ATOM     15  C   UNL     1      55.554  38.073  69.213  0.00  0.00    +0.000 A 
ATOM     16  C   UNL     1      59.558  36.170  73.258  0.00  0.00    +0.000 A 
ATOM     17  C   UNL     1      53.901  39.807  68.380  0.00  0.00    +0.000 C 
ATOM     18  C   UNL     1      59.153  37.424  73.820  0.00  0.00    +0.000 A 
ATOM     19  C   UNL     1      53.115  41.502  69.966  0.00  0.00    +0.000 C 
ATOM     20  C   UNL     1      61.102  35.897  75.124  0.00  0.00    +0.000 A 
ATOM     21  C   UNL     1      60.539  35.419  73.942  0.00  0.00    +0.000 A 
ATOM     22  C   UNL     1      59.726  37.850  75.012  0.00  0.00    +0.000 A 
ATOM     23  C   UNL     1      60.693  37.098  75.679  0.00  0.00    +0.000 A 
ENDROOT
BRANCH  10  24
ATOM     24  O   UNL     1      54.251  41.702  72.090  0.00  0.00    +0.000 OA
ATOM     25  H   UNL     1      54.709  40.977  72.561  0.00  0.00    +0.000 HD
ENDBRANCH  10  24
BRANCH  10  26
ATOM     26  C   UNL     1      55.386  42.602  70.146  0.00  0.00    +0.000 C 
ATOM     27  C   UNL     1      56.475  43.062  71.112  0.00  0.00    +0.000 C 
ENDBRANCH  10  26
BRANCH  13  28
ATOM     28  C   UNL     1      59.309  34.450  71.348  0.00  0.00    +0.000 C 
ATOM     29  C   UNL     1      58.508  33.274  71.884  0.00  0.00    +0.000 C 
ENDBRANCH  13  28
BRANCH  20  30
ATOM     30  O   UNL     1      62.037  35.111  75.798  0.00  0.00    +0.000 OA
BRANCH  30  38
ATOM     31  O   UNL     1      64.086  35.679  74.880  0.00  0.00    +0.000 OA
ATOM     32  N   UNL     1      63.224  33.568  74.553  0.00  0.00    +0.000 N 
ATOM     33  C   UNL     1      62.917  31.355  72.664  0.00  0.00    +0.000 C 
ATOM     34  C   UNL     1      61.742  31.916  73.502  0.00  0.00    +0.000 C 
ATOM     35  C   UNL     1      63.967  32.481  72.482  0.00  0.00    +0.000 C 
ATOM     36  C   UNL     1      62.205  32.563  74.805  0.00  0.00    +0.000 C 
ATOM     37  C   UNL     1      64.381  33.112  73.807  0.00  0.00    +0.000 C 
ATOM     38  C   UNL     1      63.192  34.857  75.065  0.00  0.00    +0.000 C 
BRANCH  33  39
ATOM     39  N   UNL     1      62.458  30.805  71.349  0.00  0.00    +0.000 NA
ATOM     40  C   UNL     1      61.069  30.301  71.413  0.00  0.00    +0.000 C 
ATOM     41  C   UNL     1      62.585  31.791  70.256  0.00  0.00    +0.000 C 
ATOM     42  C   UNL     1      60.591  29.706  70.086  0.00  0.00    +0.000 C 
ATOM     43  C   UNL     1      62.144  31.235  68.900  0.00  0.00    +0.000 C 
ATOM     44  C   UNL     1      60.722  30.706  68.950  0.00  0.00    +0.000 C 
ENDBRANCH  33  39
ENDBRANCH  30  38
ENDBRANCH  20  30
TORSDOF 6
ENDMDL
MODEL 4
REMARK VINA RESULT:      -6.9      5.460     13.178
REMARK  Name = 
REMARK  8 active torsions:
REMARK  status: ('A' for Active; 'I' for Inactive)
REMARK    1  A    between atoms: O_1  and  C_21
REMARK    2  A    between atoms: O_1  and  C_38
REMARK    3  A    between atoms: O_4  and  C_26
REMARK    4  A    between atoms: N_7  and  C_11
REMARK    5  A    between atoms: C_26  and  C_33
REMARK    6  A    between atoms: C_29  and  C_37
REMARK    7  A    between atoms: C_33  and  C_42
REMARK    8  A    between atoms: C_37  and  C_43
REMARK                            x       y       z     vdW  Elec       q    Type
REMARK                         _______ _______ _______ _____ _____    ______ ____
ROOT
ATOM      1  O   UNL     1      54.224  51.620  69.700  0.00  0.00    +0.000 OA
ATOM      2  O   UNL     1      53.791  49.690  73.420  0.00  0.00    +0.000 OA
ATOM      3  O   UNL     1      55.352  51.417  67.767  0.00  0.00    +0.000 OA
ATOM      4  N   UNL     1      54.289  47.643  72.509  0.00  0.00    +0.000 N 
ATOM      5  N   UNL     1      55.014  44.423  71.104  0.00  0.00    +0.000 NA
ATOM      6  C   UNL     1      54.552  46.850  71.411  0.00  0.00    +0.000 A 
ATOM      7  C   UNL     1      54.604  45.472  73.257  0.00  0.00    +0.000 A 
ATOM      8  C   UNL     1      54.300  46.858  73.747  0.00  0.00    +0.000 C 
ATOM      9  C   UNL     1      54.352  48.791  69.998  0.00  0.00    +0.000 A 
ATOM     10  C   UNL     1      54.345  49.386  68.612  0.00  0.00    +0.000 C 
ATOM     11  C   UNL     1      54.750  45.481  71.875  0.00  0.00    +0.000 A 
ATOM     12  C   UNL     1      54.094  49.572  71.066  0.00  0.00    +0.000 A 
ATOM     13  C   UNL     1      54.743  44.274  73.945  0.00  0.00    +0.000 A 
ATOM     14  C   UNL     1      54.591  47.363  70.178  0.00  0.00    +0.000 A 
ATOM     15  C   UNL     1      54.044  48.990  72.445  0.00  0.00    +0.000 A 
ATOM     16  C   UNL     1      55.010  43.111  73.167  0.00  0.00    +0.000 A 
ATOM     17  C   UNL     1      53.826  51.031  70.955  0.00  0.00    +0.000 C 
ATOM     18  C   UNL     1      55.139  43.253  71.747  0.00  0.00    +0.000 A 
ATOM     19  C   UNL     1      54.703  50.888  68.671  0.00  0.00    +0.000 C 
ATOM     20  C   UNL     1      55.404  40.720  72.907  0.00  0.00    +0.000 A 
ATOM     21  C   UNL     1      55.155  41.821  73.724  0.00  0.00    +0.000 A 
ATOM     22  C   UNL     1      55.409  42.130  70.975  0.00  0.00    +0.000 A 
ATOM     23  C   UNL     1      55.552  40.861  71.538  0.00  0.00    +0.000 A 
ENDROOT
BRANCH  10  24
ATOM     24  O   UNL     1      55.336  48.717  67.819  0.00  0.00    +0.000 OA
ATOM     25  H   UNL     1      55.096  48.883  66.885  0.00  0.00    +0.000 HD
ENDBRANCH  10  24
BRANCH  10  26
ATOM     26  C   UNL     1      52.963  49.199  67.950  0.00  0.00    +0.000 C 
ATOM     27  C   UNL     1      52.965  48.285  66.727  0.00  0.00    +0.000 C 
ENDBRANCH  10  26
BRANCH  13  28
ATOM     28  C   UNL     1      54.574  44.247  75.445  0.00  0.00    +0.000 C 
ATOM     29  C   UNL     1      53.117  44.383  75.861  0.00  0.00    +0.000 C 
ENDBRANCH  13  28
BRANCH  20  30
ATOM     30  O   UNL     1      55.585  39.467  73.492  0.00  0.00    +0.000 OA
BRANCH  30  38
ATOM     31  O   UNL     1      57.889  39.290  73.332  0.00  0.00    +0.000 OA
ATOM     32  N   UNL     1      56.854  39.023  75.372  0.00  0.00    +0.000 N 
ATOM     33  C   UNL     1      56.853  37.550  77.900  0.00  0.00    +0.000 C 
ATOM     34  C   UNL     1      55.571  37.788  77.063  0.00  0.00    +0.000 C 
ATOM     35  C   UNL     1      58.073  37.585  76.944  0.00  0.00    +0.000 C 
ATOM     36  C   UNL     1      55.660  39.043  76.198  0.00  0.00    +0.000 C 
ATOM     37  C   UNL     1      58.104  38.845  76.085  0.00  0.00    +0.000 C 
ATOM     38  C   UNL     1      56.863  39.265  74.006  0.00  0.00    +0.000 C 
BRANCH  33  39
ATOM     39  N   UNL     1      56.789  36.269  78.673  0.00  0.00    +0.000 NA
ATOM     40  C   UNL     1      57.937  35.386  78.379  0.00  0.00    +0.000 C 
ATOM     41  C   UNL     1      56.693  36.500  80.130  0.00  0.00    +0.000 C 
ATOM     42  C   UNL     1      57.874  34.057  79.137  0.00  0.00    +0.000 C 
ATOM     43  C   UNL     1      56.600  35.201  80.933  0.00  0.00    +0.000 C 
ATOM     44  C   UNL     1      57.768  34.277  80.637  0.00  0.00    +0.000 C 
ENDBRANCH  33  39
ENDBRANCH  30  38
ENDBRANCH  20  30
TORSDOF 6
ENDMDL
MODEL 5
REMARK VINA RESULT:      -6.7     15.156     21.103
REMARK  Name = 
REMARK  8 active torsions:
REMARK  status: ('A' for Active; 'I' for Inactive)
REMARK    1  A    between atoms: O_1  and  C_21
REMARK    2  A    between atoms: O_1  and  C_38
REMARK    3  A    between atoms: O_4  and  C_26
REMARK    4  A    between atoms: N_7  and  C_11
REMARK    5  A    between atoms: C_26  and  C_33
REMARK    6  A    between atoms: C_29  and  C_37
REMARK    7  A    between atoms: C_33  and  C_42
REMARK    8  A    between atoms: C_37  and  C_43
REMARK                            x       y       z     vdW  Elec       q    Type
REMARK                         _______ _______ _______ _____ _____    ______ ____
ROOT
ATOM      1  O   UNL     1      55.520  37.649  85.932  0.00  0.00    +0.000 OA
ATOM      2  O   UNL     1      59.730  37.693  86.081  0.00  0.00    +0.000 OA
ATOM      3  O   UNL     1      53.817  36.225  85.580  0.00  0.00    +0.000 OA
ATOM      4  N   UNL     1      59.812  35.503  86.763  0.00  0.00    +0.000 N 
ATOM      5  N   UNL     1      59.968  32.097  87.876  0.00  0.00    +0.000 NA
ATOM      6  C   UNL     1      59.176  34.349  87.173  0.00  0.00    +0.000 A 
ATOM      7  C   UNL     1      61.437  33.907  87.192  0.00  0.00    +0.000 A 
ATOM      8  C   UNL     1      61.267  35.328  86.738  0.00  0.00    +0.000 C 
ATOM      9  C   UNL     1      57.055  35.465  86.925  0.00  0.00    +0.000 A 
ATOM     10  C   UNL     1      55.554  35.434  87.067  0.00  0.00    +0.000 C 
ATOM     11  C   UNL     1      60.194  33.341  87.447  0.00  0.00    +0.000 A 
ATOM     12  C   UNL     1      57.669  36.595  86.524  0.00  0.00    +0.000 A 
ATOM     13  C   UNL     1      62.581  33.144  87.383  0.00  0.00    +0.000 A 
ATOM     14  C   UNL     1      57.844  34.287  87.267  0.00  0.00    +0.000 A 
ATOM     15  C   UNL     1      59.163  36.662  86.427  0.00  0.00    +0.000 A 
ATOM     16  C   UNL     1      62.397  31.813  87.856  0.00  0.00    +0.000 A 
ATOM     17  C   UNL     1      56.929  37.838  86.174  0.00  0.00    +0.000 C 
ATOM     18  C   UNL     1      61.061  31.346  88.080  0.00  0.00    +0.000 A 
ATOM     19  C   UNL     1      54.903  36.461  86.112  0.00  0.00    +0.000 C 
ATOM     20  C   UNL     1      63.219  29.640  88.590  0.00  0.00    +0.000 A 
ATOM     21  C   UNL     1      63.465  30.927  88.116  0.00  0.00    +0.000 A 
ATOM     22  C   UNL     1      60.864  30.047  88.532  0.00  0.00    +0.000 A 
ATOM     23  C   UNL     1      61.928  29.181  88.784  0.00  0.00    +0.000 A 
ENDROOT
BRANCH  10  24
ATOM     24  O   UNL     1      55.084  34.126  86.712  0.00  0.00    +0.000 OA
ATOM     25  H   UNL     1      55.696  33.492  87.137  0.00  0.00    +0.000 HD
ENDBRANCH  10  24
BRANCH  10  26
ATOM     26  C   UNL     1      55.142  35.736  88.524  0.00  0.00    +0.000 C 
ATOM     27  C   UNL     1      53.932  34.948  89.016  0.00  0.00    +0.000 C 
ENDBRANCH  10  26
BRANCH  13  28
ATOM     28  C   UNL     1      63.939  33.751  87.123  0.00  0.00    +0.000 C 
ATOM     29  C   UNL     1      64.521  34.409  88.365  0.00  0.00    +0.000 C 
ENDBRANCH  13  28
BRANCH  20  30
ATOM     30  O   UNL     1      64.294  28.774  88.796  0.00  0.00    +0.000 OA
BRANCH  30  38
ATOM     31  O   UNL     1      65.052  28.590  86.615  0.00  0.00    +0.000 OA
ATOM     32  N   UNL     1      64.568  26.693  87.829  0.00  0.00    +0.000 N 
ATOM     33  C   UNL     1      63.445  23.993  87.735  0.00  0.00    +0.000 C 
ATOM     34  C   UNL     1      63.071  25.023  88.830  0.00  0.00    +0.000 C 
ATOM     35  C   UNL     1      63.888  24.767  86.468  0.00  0.00    +0.000 C 
ATOM     36  C   UNL     1      64.174  26.051  89.071  0.00  0.00    +0.000 C 
ATOM     37  C   UNL     1      64.973  25.798  86.763  0.00  0.00    +0.000 C 
ATOM     38  C   UNL     1      64.673  28.066  87.659  0.00  0.00    +0.000 C 
BRANCH  33  39
ATOM     39  N   UNL     1      62.321  23.047  87.446  0.00  0.00    +0.000 NA
ATOM     40  C   UNL     1      62.588  22.217  86.252  0.00  0.00    +0.000 C 
ATOM     41  C   UNL     1      62.008  22.180  88.601  0.00  0.00    +0.000 C 
ATOM     42  C   UNL     1      61.436  21.265  85.921  0.00  0.00    +0.000 C 
ATOM     43  C   UNL     1      60.843  21.226  88.329  0.00  0.00    +0.000 C 
ATOM     44  C   UNL     1      61.097  20.371  87.101  0.00  0.00    +0.000 C 
ENDBRANCH  33  39
ENDBRANCH  30  38
ENDBRANCH  20  30
TORSDOF 6
ENDMDL
MODEL 6
REMARK VINA RESULT:      -6.6     20.991     22.643
REMARK  Name = 
REMARK  8 active torsions:
REMARK  status: ('A' for Active; 'I' for Inactive)
REMARK    1  A    between atoms: O_1  and  C_21
REMARK    2  A    between atoms: O_1  and  C_38
REMARK    3  A    between atoms: O_4  and  C_26
REMARK    4  A    between atoms: N_7  and  C_11
REMARK    5  A    between atoms: C_26  and  C_33
REMARK    6  A    between atoms: C_29  and  C_37
REMARK    7  A    between atoms: C_33  and  C_42
REMARK    8  A    between atoms: C_37  and  C_43
REMARK                            x       y       z     vdW  Elec       q    Type
REMARK                         _______ _______ _______ _____ _____    ______ ____
ROOT
ATOM      1  O   UNL     1      52.160  16.075  82.905  0.00  0.00    +0.000 OA
ATOM      2  O   UNL     1      48.448  17.943  82.208  0.00  0.00    +0.000 OA
ATOM      3  O   UNL     1      54.317  16.594  83.263  0.00  0.00    +0.000 OA
ATOM      4  N   UNL     1      49.072  19.809  83.389  0.00  0.00    +0.000 N 
ATOM      5  N   UNL     1      50.002  22.718  85.270  0.00  0.00    +0.000 NA
ATOM      6  C   UNL     1      49.975  20.475  84.193  0.00  0.00    +0.000 A 
ATOM      7  C   UNL     1      48.188  21.896  83.878  0.00  0.00    +0.000 A 
ATOM      8  C   UNL     1      47.889  20.633  83.124  0.00  0.00    +0.000 C 
ATOM      9  C   UNL     1      51.432  18.558  84.093  0.00  0.00    +0.000 A 
ATOM     10  C   UNL     1      52.705  17.878  84.530  0.00  0.00    +0.000 C 
ATOM     11  C   UNL     1      49.423  21.789  84.506  0.00  0.00    +0.000 A 
ATOM     12  C   UNL     1      50.554  17.902  83.308  0.00  0.00    +0.000 A 
ATOM     13  C   UNL     1      47.452  23.062  84.027  0.00  0.00    +0.000 A 
ATOM     14  C   UNL     1      51.128  19.907  84.559  0.00  0.00    +0.000 A 
ATOM     15  C   UNL     1      49.260  18.540  82.907  0.00  0.00    +0.000 A 
ATOM     16  C   UNL     1      48.017  24.082  84.846  0.00  0.00    +0.000 A 
ATOM     17  C   UNL     1      50.791  16.520  82.810  0.00  0.00    +0.000 C 
ATOM     18  C   UNL     1      49.301  23.850  85.438  0.00  0.00    +0.000 A 
ATOM     19  C   UNL     1      53.126  16.811  83.495  0.00  0.00    +0.000 C 
ATOM     20  C   UNL     1      47.977  26.266  85.926  0.00  0.00    +0.000 A 
ATOM     21  C   UNL     1      47.376  25.314  85.106  0.00  0.00    +0.000 A 
ATOM     22  C   UNL     1      49.870  24.838  86.232  0.00  0.00    +0.000 A 
ATOM     23  C   UNL     1      49.228  26.051  86.479  0.00  0.00    +0.000 A 
ENDROOT
BRANCH  10  24
ATOM     24  O   UNL     1      53.746  18.861  84.615  0.00  0.00    +0.000 OA
ATOM     25  H   UNL     1      53.298  19.728  84.686  0.00  0.00    +0.000 HD
ENDBRANCH  10  24
BRANCH  10  26
ATOM     26  C   UNL     1      52.520  17.223  85.916  0.00  0.00    +0.000 C 
ATOM     27  C   UNL     1      51.066  17.063  86.351  0.00  0.00    +0.000 C 
ENDBRANCH  10  26
BRANCH  13  28
ATOM     28  C   UNL     1      46.102  23.187  83.361  0.00  0.00    +0.000 C 
ATOM     29  C   UNL     1      44.994  22.555  84.189  0.00  0.00    +0.000 C 
ENDBRANCH  13  28
BRANCH  20  30
ATOM     30  O   UNL     1      47.337  27.490  86.128  0.00  0.00    +0.000 OA
BRANCH  30  38
ATOM     31  O   UNL     1      46.089  27.162  88.052  0.00  0.00    +0.000 OA
ATOM     32  N   UNL     1      45.029  27.575  86.050  0.00  0.00    +0.000 N 
ATOM     33  C   UNL     1      42.722  26.937  84.367  0.00  0.00    +0.000 C 
ATOM     34  C   UNL     1      44.174  26.973  83.828  0.00  0.00    +0.000 C 
ATOM     35  C   UNL     1      42.773  26.623  85.884  0.00  0.00    +0.000 C 
ATOM     36  C   UNL     1      45.077  27.902  84.635  0.00  0.00    +0.000 C 
ATOM     37  C   UNL     1      43.706  27.561  86.643  0.00  0.00    +0.000 C 
ATOM     38  C   UNL     1      46.149  27.392  86.847  0.00  0.00    +0.000 C 
BRANCH  33  39
ATOM     39  N   UNL     1      41.870  25.955  83.624  0.00  0.00    +0.000 NA
ATOM     40  C   UNL     1      42.677  25.050  82.777  0.00  0.00    +0.000 C 
ATOM     41  C   UNL     1      41.010  25.164  84.528  0.00  0.00    +0.000 C 
ATOM     42  C   UNL     1      41.822  24.058  81.985  0.00  0.00    +0.000 C 
ATOM     43  C   UNL     1      40.114  24.174  83.781  0.00  0.00    +0.000 C 
ATOM     44  C   UNL     1      40.926  23.241  82.900  0.00  0.00    +0.000 C 
ENDBRANCH  33  39
ENDBRANCH  30  38
ENDBRANCH  20  30
TORSDOF 6
ENDMDL
MODEL 7
REMARK VINA RESULT:      -6.6     62.455     64.927
REMARK  Name = 
REMARK  8 active torsions:
REMARK  status: ('A' for Active; 'I' for Inactive)
REMARK    1  A    between atoms: O_1  and  C_21
REMARK    2  A    between atoms: O_1  and  C_38
REMARK    3  A    between atoms: O_4  and  C_26
REMARK    4  A    between atoms: N_7  and  C_11
REMARK    5  A    between atoms: C_26  and  C_33
REMARK    6  A    between atoms: C_29  and  C_37
REMARK    7  A    between atoms: C_33  and  C_42
REMARK    8  A    between atoms: C_37  and  C_43
REMARK                            x       y       z     vdW  Elec       q    Type
REMARK                         _______ _______ _______ _____ _____    ______ ____
ROOT
ATOM      1  O   UNL     1       2.086  11.822  85.629  0.00  0.00    +0.000 OA
ATOM      2  O   UNL     1       1.331   8.393  87.959  0.00  0.00    +0.000 OA
ATOM      3  O   UNL     1       3.808  13.021  84.825  0.00  0.00    +0.000 OA
ATOM      4  N   UNL     1       3.298   7.410  87.300  0.00  0.00    +0.000 N 
ATOM      5  N   UNL     1       6.341   5.830  86.249  0.00  0.00    +0.000 NA
ATOM      6  C   UNL     1       4.434   7.406  86.517  0.00  0.00    +0.000 A 
ATOM      7  C   UNL     1       4.490   5.483  87.784  0.00  0.00    +0.000 A 
ATOM      8  C   UNL     1       3.236   6.220  88.153  0.00  0.00    +0.000 C 
ATOM      9  C   UNL     1       3.749   9.511  85.563  0.00  0.00    +0.000 A 
ATOM     10  C   UNL     1       3.994  10.622  84.574  0.00  0.00    +0.000 C 
ATOM     11  C   UNL     1       5.188   6.194  86.815  0.00  0.00    +0.000 A 
ATOM     12  C   UNL     1       2.637   9.521  86.325  0.00  0.00    +0.000 A 
ATOM     13  C   UNL     1       5.004   4.277  88.241  0.00  0.00    +0.000 A 
ATOM     14  C   UNL     1       4.691   8.401  85.662  0.00  0.00    +0.000 A 
ATOM     15  C   UNL     1       2.350   8.400  87.276  0.00  0.00    +0.000 A 
ATOM     16  C   UNL     1       6.226   3.834  87.657  0.00  0.00    +0.000 A 
ATOM     17  C   UNL     1       1.626  10.612  86.266  0.00  0.00    +0.000 C 
ATOM     18  C   UNL     1       6.849   4.660  86.666  0.00  0.00    +0.000 A 
ATOM     19  C   UNL     1       3.298  11.920  85.042  0.00  0.00    +0.000 C 
ATOM     20  C   UNL     1       8.046   2.236  87.387  0.00  0.00    +0.000 A 
ATOM     21  C   UNL     1       6.856   2.619  88.004  0.00  0.00    +0.000 A 
ATOM     22  C   UNL     1       8.045   4.247  86.093  0.00  0.00    +0.000 A 
ATOM     23  C   UNL     1       8.659   3.046  86.447  0.00  0.00    +0.000 A 
ENDROOT
BRANCH  10  24
ATOM     24  O   UNL     1       5.405  10.868  84.497  0.00  0.00    +0.000 OA
ATOM     25  H   UNL     1       5.831  10.186  85.054  0.00  0.00    +0.000 HD
ENDBRANCH  10  24
BRANCH  10  26
ATOM     26  C   UNL     1       3.477  10.223  83.175  0.00  0.00    +0.000 C 
ATOM     27  C   UNL     1       4.349  10.704  82.018  0.00  0.00    +0.000 C 
ENDBRANCH  10  26
BRANCH  13  28
ATOM     28  C   UNL     1       4.250   3.487  89.283  0.00  0.00    +0.000 C 
ATOM     29  C   UNL     1       3.237   2.537  88.662  0.00  0.00    +0.000 C 
ENDBRANCH  13  28
BRANCH  20  30
ATOM     30  O   UNL     1       8.666   1.051  87.784  0.00  0.00    +0.000 OA
BRANCH  30  38
ATOM     31  O   UNL     1       7.132  -0.635  87.373  0.00  0.00    +0.000 OA
ATOM     32  N   UNL     1       7.689  -0.089  89.540  0.00  0.00    +0.000 N 
ATOM     33  C   UNL     1       6.700   0.232  92.275  0.00  0.00    +0.000 C 
ATOM     34  C   UNL     1       7.597   1.283  91.574  0.00  0.00    +0.000 C 
ATOM     35  C   UNL     1       5.927  -0.553  91.185  0.00  0.00    +0.000 C 
ATOM     36  C   UNL     1       8.481   0.671  90.491  0.00  0.00    +0.000 C 
ATOM     37  C   UNL     1       6.849  -1.124  90.112  0.00  0.00    +0.000 C 
ATOM     38  C   UNL     1       7.777   0.049  88.163  0.00  0.00    +0.000 C 
BRANCH  33  39
ATOM     39  N   UNL     1       5.774   0.859  93.271  0.00  0.00    +0.000 NA
ATOM     40  C   UNL     1       4.793   1.759  92.628  0.00  0.00    +0.000 C 
ATOM     41  C   UNL     1       5.069  -0.150  94.090  0.00  0.00    +0.000 C 
ATOM     42  C   UNL     1       3.857   2.434  93.633  0.00  0.00    +0.000 C 
ATOM     43  C   UNL     1       4.138   0.476  95.131  0.00  0.00    +0.000 C 
ATOM     44  C   UNL     1       3.129   1.411  94.488  0.00  0.00    +0.000 C 
ENDBRANCH  33  39
ENDBRANCH  30  38
ENDBRANCH  20  30
TORSDOF 6
ENDMDL
MODEL 8
REMARK VINA RESULT:      -6.5     21.841     25.223
REMARK  Name = 
REMARK  8 active torsions:
REMARK  status: ('A' for Active; 'I' for Inactive)
REMARK    1  A    between atoms: O_1  and  C_21
REMARK    2  A    between atoms: O_1  and  C_38
REMARK    3  A    between atoms: O_4  and  C_26
REMARK    4  A    between atoms: N_7  and  C_11
REMARK    5  A    between atoms: C_26  and  C_33
REMARK    6  A    between atoms: C_29  and  C_37
REMARK    7  A    between atoms: C_33  and  C_42
REMARK    8  A    between atoms: C_37  and  C_43
REMARK                            x       y       z     vdW  Elec       q    Type
REMARK                         _______ _______ _______ _____ _____    ______ ____
ROOT
ATOM      1  O   UNL     1      44.425  25.611  87.059  0.00  0.00    +0.000 OA
ATOM      2  O   UNL     1      40.945  23.304  86.494  0.00  0.00    +0.000 OA
ATOM      3  O   UNL     1      46.250  26.289  85.937  0.00  0.00    +0.000 OA
ATOM      4  N   UNL     1      40.888  23.787  84.251  0.00  0.00    +0.000 N 
ATOM      5  N   UNL     1      40.745  24.566  80.753  0.00  0.00    +0.000 NA
ATOM      6  C   UNL     1      41.375  24.476  83.159  0.00  0.00    +0.000 A 
ATOM      7  C   UNL     1      39.624  23.181  82.405  0.00  0.00    +0.000 A 
ATOM      8  C   UNL     1      39.762  22.926  83.878  0.00  0.00    +0.000 C 
ATOM      9  C   UNL     1      43.021  25.510  84.583  0.00  0.00    +0.000 A 
ATOM     10  C   UNL     1      44.154  26.492  84.747  0.00  0.00    +0.000 C 
ATOM     11  C   UNL     1      40.583  24.100  81.994  0.00  0.00    +0.000 A 
ATOM     12  C   UNL     1      42.550  24.842  85.654  0.00  0.00    +0.000 A 
ATOM     13  C   UNL     1      38.733  22.668  81.473  0.00  0.00    +0.000 A 
ATOM     14  C   UNL     1      42.405  25.320  83.274  0.00  0.00    +0.000 A 
ATOM     15  C   UNL     1      41.391  23.902  85.521  0.00  0.00    +0.000 A 
ATOM     16  C   UNL     1      38.854  23.144  80.135  0.00  0.00    +0.000 A 
ATOM     17  C   UNL     1      43.119  24.998  87.020  0.00  0.00    +0.000 C 
ATOM     18  C   UNL     1      39.886  24.093  79.838  0.00  0.00    +0.000 A 
ATOM     19  C   UNL     1      45.033  26.099  85.956  0.00  0.00    +0.000 C 
ATOM     20  C   UNL     1      38.168  23.243  77.799  0.00  0.00    +0.000 A 
ATOM     21  C   UNL     1      38.006  22.730  79.084  0.00  0.00    +0.000 A 
ATOM     22  C   UNL     1      40.023  24.560  78.537  0.00  0.00    +0.000 A 
ATOM     23  C   UNL     1      39.180  24.142  77.507  0.00  0.00    +0.000 A 
ENDROOT
BRANCH  10  24
ATOM     24  O   UNL     1      44.968  26.457  83.566  0.00  0.00    +0.000 OA
ATOM     25  H   UNL     1      45.451  25.607  83.593  0.00  0.00    +0.000 HD
ENDBRANCH  10  24
BRANCH  10  26
ATOM     26  C   UNL     1      43.607  27.923  84.936  0.00  0.00    +0.000 C 
ATOM     27  C   UNL     1      43.530  28.746  83.653  0.00  0.00    +0.000 C 
ENDBRANCH  10  26
BRANCH  13  28
ATOM     28  C   UNL     1      37.679  21.680  81.908  0.00  0.00    +0.000 C 
ATOM     29  C   UNL     1      38.181  20.245  81.858  0.00  0.00    +0.000 C 
ENDBRANCH  13  28
BRANCH  20  30
ATOM     30  O   UNL     1      37.342  22.781  76.774  0.00  0.00    +0.000 OA
BRANCH  30  38
ATOM     31  O   UNL     1      38.001  20.562  76.684  0.00  0.00    +0.000 OA
ATOM     32  N   UNL     1      38.097  21.869  74.790  0.00  0.00    +0.000 N 
ATOM     33  C   UNL     1      39.605  22.482  72.358  0.00  0.00    +0.000 C 
ATOM     34  C   UNL     1      39.076  23.575  73.320  0.00  0.00    +0.000 C 
ATOM     35  C   UNL     1      39.805  21.175  73.168  0.00  0.00    +0.000 C 
ATOM     36  C   UNL     1      37.846  23.124  74.102  0.00  0.00    +0.000 C 
ATOM     37  C   UNL     1      38.557  20.778  73.951  0.00  0.00    +0.000 C 
ATOM     38  C   UNL     1      37.825  21.645  76.131  0.00  0.00    +0.000 C 
BRANCH  33  39
ATOM     39  N   UNL     1      40.863  22.904  71.665  0.00  0.00    +0.000 NA
ATOM     40  C   UNL     1      40.669  24.129  70.860  0.00  0.00    +0.000 C 
ATOM     41  C   UNL     1      41.984  23.096  72.609  0.00  0.00    +0.000 C 
ATOM     42  C   UNL     1      41.937  24.559  70.118  0.00  0.00    +0.000 C 
ATOM     43  C   UNL     1      43.285  23.502  71.912  0.00  0.00    +0.000 C 
ATOM     44  C   UNL     1      43.101  24.754  71.074  0.00  0.00    +0.000 C 
ENDBRANCH  33  39
ENDBRANCH  30  38
ENDBRANCH  20  30
TORSDOF 6
ENDMDL
MODEL 9
REMARK VINA RESULT:      -6.3     13.447     16.940
REMARK  Name = 
REMARK  8 active torsions:
REMARK  status: ('A' for Active; 'I' for Inactive)
REMARK    1  A    between atoms: O_1  and  C_21
REMARK    2  A    between atoms: O_1  and  C_38
REMARK    3  A    between atoms: O_4  and  C_26
REMARK    4  A    between atoms: N_7  and  C_11
REMARK    5  A    between atoms: C_26  and  C_33
REMARK    6  A    between atoms: C_29  and  C_37
REMARK    7  A    between atoms: C_33  and  C_42
REMARK    8  A    between atoms: C_37  and  C_43
REMARK                            x       y       z     vdW  Elec       q    Type
REMARK                         _______ _______ _______ _____ _____    ______ ____
ROOT
ATOM      1  O   UNL     1      44.976  35.833  85.730  0.00  0.00    +0.000 OA
ATOM      2  O   UNL     1      42.727  35.283  82.210  0.00  0.00    +0.000 OA
ATOM      3  O   UNL     1      47.052  36.387  86.387  0.00  0.00    +0.000 OA
ATOM      4  N   UNL     1      44.005  36.802  81.057  0.00  0.00    +0.000 N 
ATOM      5  N   UNL     1      45.953  39.208  79.246  0.00  0.00    +0.000 NA
ATOM      6  C   UNL     1      45.002  37.756  81.029  0.00  0.00    +0.000 A 
ATOM      7  C   UNL     1      44.165  37.603  78.888  0.00  0.00    +0.000 A 
ATOM      8  C   UNL     1      43.402  36.625  79.733  0.00  0.00    +0.000 C 
ATOM      9  C   UNL     1      45.369  37.398  83.384  0.00  0.00    +0.000 A 
ATOM     10  C   UNL     1      46.097  37.774  84.650  0.00  0.00    +0.000 C 
ATOM     11  C   UNL     1      45.107  38.265  79.666  0.00  0.00    +0.000 A 
ATOM     12  C   UNL     1      44.396  36.466  83.418  0.00  0.00    +0.000 A 
ATOM     13  C   UNL     1      44.061  37.914  77.539  0.00  0.00    +0.000 A 
ATOM     14  C   UNL     1      45.687  38.076  82.131  0.00  0.00    +0.000 A 
ATOM     15  C   UNL     1      43.627  36.117  82.182  0.00  0.00    +0.000 A 
ATOM     16  C   UNL     1      44.931  38.927  77.042  0.00  0.00    +0.000 A 
ATOM     17  C   UNL     1      44.009  35.746  84.662  0.00  0.00    +0.000 C 
ATOM     18  C   UNL     1      45.860  39.535  77.948  0.00  0.00    +0.000 A 
ATOM     19  C   UNL     1      46.090  36.591  85.644  0.00  0.00    +0.000 C 
ATOM     20  C   UNL     1      45.795  40.369  75.278  0.00  0.00    +0.000 A 
ATOM     21  C   UNL     1      44.926  39.364  75.699  0.00  0.00    +0.000 A 
ATOM     22  C   UNL     1      46.722  40.517  77.477  0.00  0.00    +0.000 A 
ATOM     23  C   UNL     1      46.708  40.939  76.148  0.00  0.00    +0.000 A 
ENDROOT
BRANCH  10  24
ATOM     24  O   UNL     1      47.459  38.083  84.324  0.00  0.00    +0.000 OA
ATOM     25  H   UNL     1      47.728  38.803  84.929  0.00  0.00    +0.000 HD
ENDBRANCH  10  24
BRANCH  10  26
ATOM     26  C   UNL     1      45.444  39.013  85.300  0.00  0.00    +0.000 C 
ATOM     27  C   UNL     1      46.327  40.258  85.319  0.00  0.00    +0.000 C 
ENDBRANCH  10  26
BRANCH  13  28
ATOM     28  C   UNL     1      43.033  37.212  76.685  0.00  0.00    +0.000 C 
ATOM     29  C   UNL     1      43.573  35.926  76.079  0.00  0.00    +0.000 C 
ENDBRANCH  13  28
BRANCH  20  30
ATOM     30  O   UNL     1      45.795  40.749  73.935  0.00  0.00    +0.000 OA
BRANCH  30  38
ATOM     31  O   UNL     1      43.761  41.801  73.585  0.00  0.00    +0.000 OA
ATOM     32  N   UNL     1      44.198  39.778  72.575  0.00  0.00    +0.000 N 
ATOM     33  C   UNL     1      43.080  37.203  71.753  0.00  0.00    +0.000 C 
ATOM     34  C   UNL     1      44.424  37.334  72.512  0.00  0.00    +0.000 C 
ATOM     35  C   UNL     1      42.202  38.432  72.100  0.00  0.00    +0.000 C 
ATOM     36  C   UNL     1      45.102  38.681  72.276  0.00  0.00    +0.000 C 
ATOM     37  C   UNL     1      42.930  39.752  71.872  0.00  0.00    +0.000 C 
ATOM     38  C   UNL     1      44.522  40.859  73.382  0.00  0.00    +0.000 C 
BRANCH  33  39
ATOM     39  N   UNL     1      42.382  35.915  72.064  0.00  0.00    +0.000 NA
ATOM     40  C   UNL     1      43.327  34.858  72.482  0.00  0.00    +0.000 C 
ATOM     41  C   UNL     1      41.330  36.083  73.088  0.00  0.00    +0.000 C 
ATOM     42  C   UNL     1      42.636  33.524  72.775  0.00  0.00    +0.000 C 
ATOM     43  C   UNL     1      40.589  34.780  73.398  0.00  0.00    +0.000 C 
ATOM     44  C   UNL     1      41.547  33.681  73.822  0.00  0.00    +0.000 C 
ENDBRANCH  33  39
ENDBRANCH  30  38
ENDBRANCH  20  30
TORSDOF 6
ENDMDL
