MODEL 1
REMARK VINA RESULT:      -7.5      0.000      0.000
REMARK  Name = 
REMARK  8 active torsions:
REMARK  status: ('A' for Active; 'I' for Inactive)
REMARK    1  A    between atoms: O_1  and  C_21
REMARK    2  A    between atoms: O_1  and  C_38
REMARK    3  A    between atoms: O_4  and  C_26
REMARK    4  A    between atoms: N_7  and  C_11
REMARK    5  A    between atoms: C_26  and  C_33
REMARK    6  A    between atoms: C_29  and  C_37
REMARK    7  A    between atoms: C_33  and  C_42
REMARK    8  A    between atoms: C_37  and  C_43
REMARK                            x       y       z     vdW  Elec       q    Type
REMARK                         _______ _______ _______ _____ _____    ______ ____
ROOT
ATOM      1  O   UNL     1      54.091  41.701  69.288  0.00  0.00    +0.000 OA
ATOM      2  O   UNL     1      55.990  38.174  67.982  0.00  0.00    +0.000 OA
ATOM      3  O   UNL     1      53.187  42.593  71.141  0.00  0.00    +0.000 OA
ATOM      4  N   UNL     1      56.838  37.757  70.073  0.00  0.00    +0.000 N 
ATOM      5  N   UNL     1      58.219  37.108  73.320  0.00  0.00    +0.000 NA
ATOM      6  C   UNL     1      57.046  38.141  71.382  0.00  0.00    +0.000 A 
ATOM      7  C   UNL     1      58.054  36.085  71.122  0.00  0.00    +0.000 A 
ATOM      8  C   UNL     1      57.443  36.450  69.800  0.00  0.00    +0.000 C 
ATOM      9  C   UNL     1      55.830  40.175  70.948  0.00  0.00    +0.000 A 
ATOM     10  C   UNL     1      55.331  41.512  71.437  0.00  0.00    +0.000 C 
ATOM     11  C   UNL     1      57.813  37.093  72.048  0.00  0.00    +0.000 A 
ATOM     12  C   UNL     1      55.624  39.807  69.668  0.00  0.00    +0.000 A 
ATOM     13  C   UNL     1      58.775  34.965  71.511  0.00  0.00    +0.000 A 
ATOM     14  C   UNL     1      56.578  39.303  71.847  0.00  0.00    +0.000 A 
ATOM     15  C   UNL     1      56.158  38.507  69.150  0.00  0.00    +0.000 A 
ATOM     16  C   UNL     1      59.246  34.937  72.856  0.00  0.00    +0.000 A 
ATOM     17  C   UNL     1      54.884  40.653  68.692  0.00  0.00    +0.000 C 
ATOM     18  C   UNL     1      58.930  36.040  73.714  0.00  0.00    +0.000 A 
ATOM     19  C   UNL     1      54.102  41.959  70.613  0.00  0.00    +0.000 C 
ATOM     20  C   UNL     1      60.451  33.914  74.710  0.00  0.00    +0.000 A 
ATOM     21  C   UNL     1      60.010  33.876  73.389  0.00  0.00    +0.000 A 
ATOM     22  C   UNL     1      59.373  36.024  75.031  0.00  0.00    +0.000 A 
ATOM     23  C   UNL     1      60.125  34.969  75.546  0.00  0.00    +0.000 A 
ENDROOT
BRANCH  10  24
ATOM     24  O   UNL     1      54.932  41.381  72.809  0.00  0.00    +0.000 OA
ATOM     25  H   UNL     1      54.026  41.011  72.795  0.00  0.00    +0.000 HD
ENDBRANCH  10  24
BRANCH  10  26
ATOM     26  C   UNL     1      56.446  42.575  71.338  0.00  0.00    +0.000 C 
ATOM     27  C   UNL     1      56.120  43.751  70.423  0.00  0.00    +0.000 C 
ENDBRANCH  10  26
BRANCH  13  28
ATOM     28  C   UNL     1      59.056  33.869  70.513  0.00  0.00    +0.000 C 
ATOM     29  C   UNL     1      60.316  34.138  69.704  0.00  0.00    +0.000 C 
ENDBRANCH  13  28
BRANCH  20  30
ATOM     30  O   UNL     1      61.167  32.830  75.220  0.00  0.00    +0.000 OA
BRANCH  30  38
ATOM     31  O   UNL     1      63.394  33.157  74.672  0.00  0.00    +0.000 OA
ATOM     32  N   UNL     1      62.180  31.509  73.617  0.00  0.00    +0.000 N 
ATOM     33  C   UNL     1      61.697  30.114  71.090  0.00  0.00    +0.000 C 
ATOM     34  C   UNL     1      60.554  30.650  71.989  0.00  0.00    +0.000 C 
ATOM     35  C   UNL     1      62.965  30.964  71.356  0.00  0.00    +0.000 C 
ATOM     36  C   UNL     1      60.956  30.742  73.458  0.00  0.00    +0.000 C 
ATOM     37  C   UNL     1      63.313  31.046  72.839  0.00  0.00    +0.000 C 
ATOM     38  C   UNL     1      62.337  32.550  74.519  0.00  0.00    +0.000 C 
BRANCH  33  39
ATOM     39  N   UNL     1      61.320  30.115  69.641  0.00  0.00    +0.000 NA
ATOM     40  C   UNL     1      59.869  30.322  69.445  0.00  0.00    +0.000 C 
ATOM     41  C   UNL     1      62.081  31.117  68.867  0.00  0.00    +0.000 C 
ATOM     42  C   UNL     1      59.459  30.295  67.971  0.00  0.00    +0.000 C 
ATOM     43  C   UNL     1      61.726  31.112  67.378  0.00  0.00    +0.000 C 
ATOM     44  C   UNL     1      60.237  31.316  67.158  0.00  0.00    +0.000 C 
ENDBRANCH  33  39
ENDBRANCH  30  38
ENDBRANCH  20  30
TORSDOF 6
ENDMDL
MODEL 2
REMARK VINA RESULT:      -6.3     46.514     47.763
REMARK  Name = 
REMARK  8 active torsions:
REMARK  status: ('A' for Active; 'I' for Inactive)
REMARK    1  A    between atoms: O_1  and  C_21
REMARK    2  A    between atoms: O_1  and  C_38
REMARK    3  A    between atoms: O_4  and  C_26
REMARK    4  A    between atoms: N_7  and  C_11
REMARK    5  A    between atoms: C_26  and  C_33
REMARK    6  A    between atoms: C_29  and  C_37
REMARK    7  A    between atoms: C_33  and  C_42
REMARK    8  A    between atoms: C_37  and  C_43
REMARK                            x       y       z     vdW  Elec       q    Type
REMARK                         _______ _______ _______ _____ _____    ______ ____
ROOT
ATOM      1  O   UNL     1      13.367  20.720  79.652  0.00  0.00    +0.000 OA
ATOM      2  O   UNL     1      14.407  22.510  83.321  0.00  0.00    +0.000 OA
ATOM      3  O   UNL     1      14.035  19.069  78.282  0.00  0.00    +0.000 OA
ATOM      4  N   UNL     1      15.299  20.551  84.119  0.00  0.00    +0.000 N 
ATOM      5  N   UNL     1      16.654  17.491  85.410  0.00  0.00    +0.000 NA
ATOM      6  C   UNL     1      15.541  19.200  83.982  0.00  0.00    +0.000 A 
ATOM      7  C   UNL     1      16.435  19.836  86.009  0.00  0.00    +0.000 A 
ATOM      8  C   UNL     1      15.832  21.062  85.385  0.00  0.00    +0.000 C 
ATOM      9  C   UNL     1      14.433  19.247  81.843  0.00  0.00    +0.000 A 
ATOM     10  C   UNL     1      13.929  18.503  80.632  0.00  0.00    +0.000 C 
ATOM     11  C   UNL     1      16.254  18.743  85.170  0.00  0.00    +0.000 A 
ATOM     12  C   UNL     1      14.193  20.567  81.970  0.00  0.00    +0.000 A 
ATOM     13  C   UNL     1      17.091  19.661  87.219  0.00  0.00    +0.000 A 
ATOM     14  C   UNL     1      15.139  18.529  82.899  0.00  0.00    +0.000 A 
ATOM     15  C   UNL     1      14.639  21.313  83.190  0.00  0.00    +0.000 A 
ATOM     16  C   UNL     1      17.525  18.340  87.532  0.00  0.00    +0.000 A 
ATOM     17  C   UNL     1      13.466  21.360  80.941  0.00  0.00    +0.000 C 
ATOM     18  C   UNL     1      17.279  17.297  86.581  0.00  0.00    +0.000 A 
ATOM     19  C   UNL     1      13.804  19.463  79.427  0.00  0.00    +0.000 C 
ATOM     20  C   UNL     1      18.574  16.690  88.986  0.00  0.00    +0.000 A 
ATOM     21  C   UNL     1      18.186  18.004  88.734  0.00  0.00    +0.000 A 
ATOM     22  C   UNL     1      17.703  16.005  86.867  0.00  0.00    +0.000 A 
ATOM     23  C   UNL     1      18.357  15.687  88.057  0.00  0.00    +0.000 A 
ENDROOT
BRANCH  10  24
ATOM     24  O   UNL     1      14.873  17.477  80.296  0.00  0.00    +0.000 OA
ATOM     25  H   UNL     1      14.959  16.915  81.092  0.00  0.00    +0.000 HD
ENDBRANCH  10  24
BRANCH  10  26
ATOM     26  C   UNL     1      12.562  17.850  80.929  0.00  0.00    +0.000 C 
ATOM     27  C   UNL     1      11.857  17.274  79.704  0.00  0.00    +0.000 C 
ENDBRANCH  10  26
BRANCH  13  28
ATOM     28  C   UNL     1      17.282  20.837  88.146  0.00  0.00    +0.000 C 
ATOM     29  C   UNL     1      16.095  21.032  89.077  0.00  0.00    +0.000 C 
ENDBRANCH  13  28
BRANCH  20  30
ATOM     30  O   UNL     1      19.264  16.399  90.164  0.00  0.00    +0.000 OA
BRANCH  30  38
ATOM     31  O   UNL     1      21.456  16.444  89.418  0.00  0.00    +0.000 OA
ATOM     32  N   UNL     1      20.798  17.826  91.138  0.00  0.00    +0.000 N 
ATOM     33  C   UNL     1      21.572  19.040  93.686  0.00  0.00    +0.000 C 
ATOM     34  C   UNL     1      20.207  18.343  93.465  0.00  0.00    +0.000 C 
ATOM     35  C   UNL     1      22.597  18.430  92.696  0.00  0.00    +0.000 C 
ATOM     36  C   UNL     1      19.764  18.366  92.005  0.00  0.00    +0.000 C 
ATOM     37  C   UNL     1      22.100  18.454  91.254  0.00  0.00    +0.000 C 
ATOM     38  C   UNL     1      20.579  16.855  90.173  0.00  0.00    +0.000 C 
BRANCH  33  39
ATOM     39  N   UNL     1      22.037  18.931  95.105  0.00  0.00    +0.000 NA
ATOM     40  C   UNL     1      23.468  19.274  95.248  0.00  0.00    +0.000 C 
ATOM     41  C   UNL     1      21.228  19.760  96.023  0.00  0.00    +0.000 C 
ATOM     42  C   UNL     1      23.970  19.139  96.687  0.00  0.00    +0.000 C 
ATOM     43  C   UNL     1      21.674  19.638  97.482  0.00  0.00    +0.000 C 
ATOM     44  C   UNL     1      23.144  19.979  97.646  0.00  0.00    +0.000 C 
ENDBRANCH  33  39
ENDBRANCH  30  38
ENDBRANCH  20  30
TORSDOF 6
ENDMDL
MODEL 3
REMARK VINA RESULT:      -6.3     14.762     16.539
REMARK  Name = 
REMARK  8 active torsions:
REMARK  status: ('A' for Active; 'I' for Inactive)
REMARK    1  A    between atoms: O_1  and  C_21
REMARK    2  A    between atoms: O_1  and  C_38
REMARK    3  A    between atoms: O_4  and  C_26
REMARK    4  A    between atoms: N_7  and  C_11
REMARK    5  A    between atoms: C_26  and  C_33
REMARK    6  A    between atoms: C_29  and  C_37
REMARK    7  A    between atoms: C_33  and  C_42
REMARK    8  A    between atoms: C_37  and  C_43
REMARK                            x       y       z     vdW  Elec       q    Type
REMARK                         _______ _______ _______ _____ _____    ______ ____
ROOT
ATOM      1  O   UNL     1      55.435  37.748  86.226  0.00  0.00    +0.000 OA
ATOM      2  O   UNL     1      59.647  37.864  86.256  0.00  0.00    +0.000 OA
ATOM      3  O   UNL     1      53.748  36.317  85.832  0.00  0.00    +0.000 OA
ATOM      4  N   UNL     1      59.787  35.637  86.793  0.00  0.00    +0.000 N 
ATOM      5  N   UNL     1      60.036  32.171  87.681  0.00  0.00    +0.000 NA
ATOM      6  C   UNL     1      59.184  34.447  87.146  0.00  0.00    +0.000 A 
ATOM      7  C   UNL     1      61.453  34.049  87.072  0.00  0.00    +0.000 A 
ATOM      8  C   UNL     1      61.244  35.493  86.716  0.00  0.00    +0.000 C 
ATOM      9  C   UNL     1      57.037  35.536  87.031  0.00  0.00    +0.000 A 
ATOM     10  C   UNL     1      55.542  35.467  87.214  0.00  0.00    +0.000 C 
ATOM     11  C   UNL     1      60.228  33.444  87.326  0.00  0.00    +0.000 A 
ATOM     12  C   UNL     1      57.620  36.701  86.686  0.00  0.00    +0.000 A 
ATOM     13  C   UNL     1      62.615  33.299  87.181  0.00  0.00    +0.000 A 
ATOM     14  C   UNL     1      57.857  34.354  87.274  0.00  0.00    +0.000 A 
ATOM     15  C   UNL     1      59.108  36.803  86.552  0.00  0.00    +0.000 A 
ATOM     16  C   UNL     1      62.468  31.936  87.572  0.00  0.00    +0.000 A 
ATOM     17  C   UNL     1      56.848  37.949  86.438  0.00  0.00    +0.000 C 
ATOM     18  C   UNL     1      61.148  31.430  87.804  0.00  0.00    +0.000 A 
ATOM     19  C   UNL     1      54.846  36.539  86.346  0.00  0.00    +0.000 C 
ATOM     20  C   UNL     1      63.350  29.737  88.141  0.00  0.00    +0.000 A 
ATOM     21  C   UNL     1      63.559  31.056  87.745  0.00  0.00    +0.000 A 
ATOM     22  C   UNL     1      60.987  30.102  88.177  0.00  0.00    +0.000 A 
ATOM     23  C   UNL     1      62.073  29.242  88.342  0.00  0.00    +0.000 A 
ENDROOT
BRANCH  10  24
ATOM     24  O   UNL     1      55.085  34.175  86.789  0.00  0.00    +0.000 OA
ATOM     25  H   UNL     1      54.150  34.290  86.524  0.00  0.00    +0.000 HD
ENDBRANCH  10  24
BRANCH  10  26
ATOM     26  C   UNL     1      55.169  35.667  88.699  0.00  0.00    +0.000 C 
ATOM     27  C   UNL     1      56.275  36.283  89.551  0.00  0.00    +0.000 C 
ENDBRANCH  10  26
BRANCH  13  28
ATOM     28  C   UNL     1      63.953  33.947  86.922  0.00  0.00    +0.000 C 
ATOM     29  C   UNL     1      64.525  34.601  88.170  0.00  0.00    +0.000 C 
ENDBRANCH  13  28
BRANCH  20  30
ATOM     30  O   UNL     1      64.446  28.881  88.261  0.00  0.00    +0.000 OA
BRANCH  30  38
ATOM     31  O   UNL     1      65.824  29.727  89.920  0.00  0.00    +0.000 OA
ATOM     32  N   UNL     1      66.467  29.858  87.712  0.00  0.00    +0.000 N 
ATOM     33  C   UNL     1      67.801  31.490  85.683  0.00  0.00    +0.000 C 
ATOM     34  C   UNL     1      66.434  30.801  85.445  0.00  0.00    +0.000 C 
ATOM     35  C   UNL     1      67.965  31.735  87.205  0.00  0.00    +0.000 C 
ATOM     36  C   UNL     1      66.246  29.556  86.308  0.00  0.00    +0.000 C 
ATOM     37  C   UNL     1      67.744  30.469  88.026  0.00  0.00    +0.000 C 
ATOM     38  C   UNL     1      65.597  29.504  88.733  0.00  0.00    +0.000 C 
BRANCH  33  39
ATOM     39  N   UNL     1      67.935  32.758  84.898  0.00  0.00    +0.000 NA
ATOM     40  C   UNL     1      67.014  32.796  83.742  0.00  0.00    +0.000 C 
ATOM     41  C   UNL     1      67.738  33.959  85.737  0.00  0.00    +0.000 C 
ATOM     42  C   UNL     1      67.158  34.071  82.909  0.00  0.00    +0.000 C 
ATOM     43  C   UNL     1      67.899  35.264  84.954  0.00  0.00    +0.000 C 
ATOM     44  C   UNL     1      66.965  35.316  83.758  0.00  0.00    +0.000 C 
ENDBRANCH  33  39
ENDBRANCH  30  38
ENDBRANCH  20  30
TORSDOF 6
ENDMDL
MODEL 4
REMARK VINA RESULT:      -6.2     46.292     48.260
REMARK  Name = 
REMARK  8 active torsions:
REMARK  status: ('A' for Active; 'I' for Inactive)
REMARK    1  A    between atoms: O_1  and  C_21
REMARK    2  A    between atoms: O_1  and  C_38
REMARK    3  A    between atoms: O_4  and  C_26
REMARK    4  A    between atoms: N_7  and  C_11
REMARK    5  A    between atoms: C_26  and  C_33
REMARK    6  A    between atoms: C_29  and  C_37
REMARK    7  A    between atoms: C_33  and  C_42
REMARK    8  A    between atoms: C_37  and  C_43
REMARK                            x       y       z     vdW  Elec       q    Type
REMARK                         _______ _______ _______ _____ _____    ______ ____
ROOT
ATOM      1  O   UNL     1      28.604   5.813  89.125  0.00  0.00    +0.000 OA
ATOM      2  O   UNL     1      25.064   4.092  87.623  0.00  0.00    +0.000 OA
ATOM      3  O   UNL     1      29.977   7.551  88.747  0.00  0.00    +0.000 OA
ATOM      4  N   UNL     1      24.284   6.125  86.897  0.00  0.00    +0.000 N 
ATOM      5  N   UNL     1      23.019   9.296  85.798  0.00  0.00    +0.000 NA
ATOM      6  C   UNL     1      24.405   7.498  86.817  0.00  0.00    +0.000 A 
ATOM      7  C   UNL     1      22.464   6.932  85.711  0.00  0.00    +0.000 A 
ATOM      8  C   UNL     1      23.073   5.657  86.218  0.00  0.00    +0.000 C 
ATOM      9  C   UNL     1      26.460   7.361  88.069  0.00  0.00    +0.000 A 
ATOM     10  C   UNL     1      27.613   8.063  88.741  0.00  0.00    +0.000 C 
ATOM     11  C   UNL     1      23.261   8.012  86.073  0.00  0.00    +0.000 A 
ATOM     12  C   UNL     1      26.348   6.020  88.151  0.00  0.00    +0.000 A 
ATOM     13  C   UNL     1      21.300   7.161  84.990  0.00  0.00    +0.000 A 
ATOM     14  C   UNL     1      25.440   8.137  87.371  0.00  0.00    +0.000 A 
ATOM     15  C   UNL     1      25.182   5.310  87.536  0.00  0.00    +0.000 A 
ATOM     16  C   UNL     1      20.987   8.516  84.684  0.00  0.00    +0.000 A 
ATOM     17  C   UNL     1      27.341   5.168  88.859  0.00  0.00    +0.000 C 
ATOM     18  C   UNL     1      21.891   9.541  85.114  0.00  0.00    +0.000 A 
ATOM     19  C   UNL     1      28.829   7.115  88.847  0.00  0.00    +0.000 C 
ATOM     20  C   UNL     1      19.572  10.250  83.719  0.00  0.00    +0.000 A 
ATOM     21  C   UNL     1      19.828   8.905  83.977  0.00  0.00    +0.000 A 
ATOM     22  C   UNL     1      21.606  10.867  84.815  0.00  0.00    +0.000 A 
ATOM     23  C   UNL     1      20.458  11.238  84.114  0.00  0.00    +0.000 A 
ENDROOT
BRANCH  10  24
ATOM     24  O   UNL     1      27.990   9.195  87.944  0.00  0.00    +0.000 OA
ATOM     25  H   UNL     1      28.954   9.114  87.794  0.00  0.00    +0.000 HD
ENDBRANCH  10  24
BRANCH  10  26
ATOM     26  C   UNL     1      27.203   8.553  90.146  0.00  0.00    +0.000 C 
ATOM     27  C   UNL     1      26.850  10.036  90.220  0.00  0.00    +0.000 C 
ENDBRANCH  10  26
BRANCH  13  28
ATOM     28  C   UNL     1      20.419   5.999  84.602  0.00  0.00    +0.000 C 
ATOM     29  C   UNL     1      20.797   5.420  83.247  0.00  0.00    +0.000 C 
ENDBRANCH  13  28
BRANCH  20  30
ATOM     30  O   UNL     1      18.440  10.597  82.980  0.00  0.00    +0.000 OA
BRANCH  30  38
ATOM     31  O   UNL     1      19.390  11.940  81.349  0.00  0.00    +0.000 OA
ATOM     32  N   UNL     1      17.705  12.768  82.684  0.00  0.00    +0.000 N 
ATOM     33  C   UNL     1      16.697  15.111  84.117  0.00  0.00    +0.000 C 
ATOM     34  C   UNL     1      16.774  13.702  84.755  0.00  0.00    +0.000 C 
ATOM     35  C   UNL     1      17.771  15.201  83.002  0.00  0.00    +0.000 C 
ATOM     36  C   UNL     1      16.703  12.583  83.719  0.00  0.00    +0.000 C 
ATOM     37  C   UNL     1      17.675  14.050  82.006  0.00  0.00    +0.000 C 
ATOM     38  C   UNL     1      18.580  11.779  82.258  0.00  0.00    +0.000 C 
BRANCH  33  39
ATOM     39  N   UNL     1      16.858  16.199  85.133  0.00  0.00    +0.000 NA
ATOM     40  C   UNL     1      17.312  15.674  86.439  0.00  0.00    +0.000 C 
ATOM     41  C   UNL     1      17.775  17.263  84.673  0.00  0.00    +0.000 C 
ATOM     42  C   UNL     1      17.453  16.767  87.501  0.00  0.00    +0.000 C 
ATOM     43  C   UNL     1      17.929  18.395  85.691  0.00  0.00    +0.000 C 
ATOM     44  C   UNL     1      18.387  17.873  87.041  0.00  0.00    +0.000 C 
ENDBRANCH  33  39
ENDBRANCH  30  38
ENDBRANCH  20  30
TORSDOF 6
ENDMDL
MODEL 5
REMARK VINA RESULT:      -6.1     46.096     47.317
REMARK  Name = 
REMARK  8 active torsions:
REMARK  status: ('A' for Active; 'I' for Inactive)
REMARK    1  A    between atoms: O_1  and  C_21
REMARK    2  A    between atoms: O_1  and  C_38
REMARK    3  A    between atoms: O_4  and  C_26
REMARK    4  A    between atoms: N_7  and  C_11
REMARK    5  A    between atoms: C_26  and  C_33
REMARK    6  A    between atoms: C_29  and  C_37
REMARK    7  A    between atoms: C_33  and  C_42
REMARK    8  A    between atoms: C_37  and  C_43
REMARK                            x       y       z     vdW  Elec       q    Type
REMARK                         _______ _______ _______ _____ _____    ______ ____
ROOT
ATOM      1  O   UNL     1      16.133  16.881  82.718  0.00  0.00    +0.000 OA
ATOM      2  O   UNL     1      15.676  19.769  85.751  0.00  0.00    +0.000 OA
ATOM      3  O   UNL     1      17.665  15.449  81.911  0.00  0.00    +0.000 OA
ATOM      4  N   UNL     1      17.178  18.696  87.115  0.00  0.00    +0.000 N 
ATOM      5  N   UNL     1      19.484  17.013  89.287  0.00  0.00    +0.000 NA
ATOM      6  C   UNL     1      17.999  17.619  87.384  0.00  0.00    +0.000 A 
ATOM      7  C   UNL     1      18.181  19.060  89.173  0.00  0.00    +0.000 A 
ATOM      8  C   UNL     1      17.222  19.681  88.199  0.00  0.00    +0.000 C 
ATOM      9  C   UNL     1      17.350  16.637  85.281  0.00  0.00    +0.000 A 
ATOM     10  C   UNL     1      17.425  15.479  84.318  0.00  0.00    +0.000 C 
ATOM     11  C   UNL     1      18.631  17.842  88.680  0.00  0.00    +0.000 A 
ATOM     12  C   UNL     1      16.547  17.686  85.012  0.00  0.00    +0.000 A 
ATOM     13  C   UNL     1      18.637  19.502  90.407  0.00  0.00    +0.000 A 
ATOM     14  C   UNL     1      18.110  16.601  86.526  0.00  0.00    +0.000 A 
ATOM     15  C   UNL     1      16.419  18.821  85.981  0.00  0.00    +0.000 A 
ATOM     16  C   UNL     1      19.539  18.648  91.104  0.00  0.00    +0.000 A 
ATOM     17  C   UNL     1      15.732  17.782  83.771  0.00  0.00    +0.000 C 
ATOM     18  C   UNL     1      19.928  17.415  90.487  0.00  0.00    +0.000 A 
ATOM     19  C   UNL     1      17.101  15.954  82.883  0.00  0.00    +0.000 C 
ATOM     20  C   UNL     1      20.939  18.069  93.013  0.00  0.00    +0.000 A 
ATOM     21  C   UNL     1      20.071  18.953  92.377  0.00  0.00    +0.000 A 
ATOM     22  C   UNL     1      20.814  16.575  91.150  0.00  0.00    +0.000 A 
ATOM     23  C   UNL     1      21.334  16.889  92.406  0.00  0.00    +0.000 A 
ENDROOT
BRANCH  10  24
ATOM     24  O   UNL     1      18.760  14.955  84.330  0.00  0.00    +0.000 OA
ATOM     25  H   UNL     1      19.116  15.094  83.429  0.00  0.00    +0.000 HD
ENDBRANCH  10  24
BRANCH  10  26
ATOM     26  C   UNL     1      16.445  14.363  84.738  0.00  0.00    +0.000 C 
ATOM     27  C   UNL     1      16.683  13.020  84.053  0.00  0.00    +0.000 C 
ENDBRANCH  10  26
BRANCH  13  28
ATOM     28  C   UNL     1      18.146  20.818  90.961  0.00  0.00    +0.000 C 
ATOM     29  C   UNL     1      16.887  20.653  91.798  0.00  0.00    +0.000 C 
ENDBRANCH  13  28
BRANCH  20  30
ATOM     30  O   UNL     1      21.481  18.420  94.250  0.00  0.00    +0.000 OA
BRANCH  30  38
ATOM     31  O   UNL     1      23.398  19.080  93.130  0.00  0.00    +0.000 OA
ATOM     32  N   UNL     1      23.211  19.436  95.397  0.00  0.00    +0.000 N 
ATOM     33  C   UNL     1      24.624  19.456  97.959  0.00  0.00    +0.000 C 
ATOM     34  C   UNL     1      23.253  18.763  97.758  0.00  0.00    +0.000 C 
ATOM     35  C   UNL     1      25.354  19.497  96.592  0.00  0.00    +0.000 C 
ATOM     36  C   UNL     1      22.440  19.388  96.628  0.00  0.00    +0.000 C 
ATOM     37  C   UNL     1      24.494  20.106  95.490  0.00  0.00    +0.000 C 
ATOM     38  C   UNL     1      22.749  18.988  94.168  0.00  0.00    +0.000 C 
BRANCH  33  39
ATOM     39  N   UNL     1      25.448  18.777  99.009  0.00  0.00    +0.000 NA
ATOM     40  C   UNL     1      24.958  17.414  99.304  0.00  0.00    +0.000 C 
ATOM     41  C   UNL     1      26.881  18.730  98.651  0.00  0.00    +0.000 C 
ATOM     42  C   UNL     1      25.769  16.715 100.398  0.00  0.00    +0.000 C 
ATOM     43  C   UNL     1      27.741  18.063  99.728  0.00  0.00    +0.000 C 
ATOM     44  C   UNL     1      27.246  16.664 100.049  0.00  0.00    +0.000 C 
ENDBRANCH  33  39
ENDBRANCH  30  38
ENDBRANCH  20  30
TORSDOF 6
ENDMDL
MODEL 6
REMARK VINA RESULT:      -5.9     58.446     59.733
REMARK  Name = 
REMARK  8 active torsions:
REMARK  status: ('A' for Active; 'I' for Inactive)
REMARK    1  A    between atoms: O_1  and  C_21
REMARK    2  A    between atoms: O_1  and  C_38
REMARK    3  A    between atoms: O_4  and  C_26
REMARK    4  A    between atoms: N_7  and  C_11
REMARK    5  A    between atoms: C_26  and  C_33
REMARK    6  A    between atoms: C_29  and  C_37
REMARK    7  A    between atoms: C_33  and  C_42
REMARK    8  A    between atoms: C_37  and  C_43
REMARK                            x       y       z     vdW  Elec       q    Type
REMARK                         _______ _______ _______ _____ _____    ______ ____
ROOT
ATOM      1  O   UNL     1       8.547  20.936  82.239  0.00  0.00    +0.000 OA
ATOM      2  O   UNL     1       5.138  20.337  84.640  0.00  0.00    +0.000 OA
ATOM      3  O   UNL     1      10.359  19.830  81.502  0.00  0.00    +0.000 OA
ATOM      4  N   UNL     1       5.080  18.097  84.145  0.00  0.00    +0.000 N 
ATOM      5  N   UNL     1       4.935  14.602  83.348  0.00  0.00    +0.000 NA
ATOM      6  C   UNL     1       5.554  17.012  83.436  0.00  0.00    +0.000 A 
ATOM      7  C   UNL     1       3.845  16.239  84.775  0.00  0.00    +0.000 A 
ATOM      8  C   UNL     1       3.982  17.711  85.036  0.00  0.00    +0.000 C 
ATOM      9  C   UNL     1       7.161  18.451  82.364  0.00  0.00    +0.000 A 
ATOM     10  C   UNL     1       8.265  18.628  81.352  0.00  0.00    +0.000 C 
ATOM     11  C   UNL     1       4.779  15.839  83.827  0.00  0.00    +0.000 A 
ATOM     12  C   UNL     1       6.703  19.516  83.053  0.00  0.00    +0.000 A 
ATOM     13  C   UNL     1       2.974  15.299  85.307  0.00  0.00    +0.000 A 
ATOM     14  C   UNL     1       6.558  17.138  82.563  0.00  0.00    +0.000 A 
ATOM     15  C   UNL     1       5.572  19.370  84.024  0.00  0.00    +0.000 A 
ATOM     16  C   UNL     1       3.089  13.965  84.819  0.00  0.00    +0.000 A 
ATOM     17  C   UNL     1       7.260  20.886  82.889  0.00  0.00    +0.000 C 
ATOM     18  C   UNL     1       4.095  13.679  83.840  0.00  0.00    +0.000 A 
ATOM     19  C   UNL     1       9.148  19.840  81.727  0.00  0.00    +0.000 C 
ATOM     20  C   UNL     1       2.414  11.625  84.725  0.00  0.00    +0.000 A 
ATOM     21  C   UNL     1       2.259  12.906  85.251  0.00  0.00    +0.000 A 
ATOM     22  C   UNL     1       4.226  12.382  83.361  0.00  0.00    +0.000 A 
ATOM     23  C   UNL     1       3.402  11.345  83.796  0.00  0.00    +0.000 A 
ENDROOT
BRANCH  10  24
ATOM     24  O   UNL     1       9.087  17.453  81.356  0.00  0.00    +0.000 OA
ATOM     25  H   UNL     1       8.518  16.721  81.042  0.00  0.00    +0.000 HD
ENDBRANCH  10  24
BRANCH  10  26
ATOM     26  C   UNL     1       7.676  18.823  79.938  0.00  0.00    +0.000 C 
ATOM     27  C   UNL     1       7.755  17.589  79.044  0.00  0.00    +0.000 C 
ENDBRANCH  10  26
BRANCH  13  28
ATOM     28  C   UNL     1       1.946  15.722  86.328  0.00  0.00    +0.000 C 
ATOM     29  C   UNL     1       0.579  15.959  85.702  0.00  0.00    +0.000 C 
ENDBRANCH  13  28
BRANCH  20  30
ATOM     30  O   UNL     1       1.607  10.592  85.204  0.00  0.00    +0.000 OA
BRANCH  30  38
ATOM     31  O   UNL     1       1.869  10.776  87.498  0.00  0.00    +0.000 OA
ATOM     32  N   UNL     1       2.497   8.840  86.420  0.00  0.00    +0.000 N 
ATOM     33  C   UNL     1       4.459   6.672  86.306  0.00  0.00    +0.000 C 
ATOM     34  C   UNL     1       3.984   7.447  85.051  0.00  0.00    +0.000 C 
ATOM     35  C   UNL     1       4.291   7.595  87.540  0.00  0.00    +0.000 C 
ATOM     36  C   UNL     1       2.584   8.032  85.216  0.00  0.00    +0.000 C 
ATOM     37  C   UNL     1       2.884   8.174  87.649  0.00  0.00    +0.000 C 
ATOM     38  C   UNL     1       1.978  10.126  86.462  0.00  0.00    +0.000 C 
BRANCH  33  39
ATOM     39  N   UNL     1       5.866   6.181  86.165  0.00  0.00    +0.000 NA
ATOM     40  C   UNL     1       6.130   5.002  87.016  0.00  0.00    +0.000 C 
ATOM     41  C   UNL     1       6.214   5.877  84.762  0.00  0.00    +0.000 C 
ATOM     42  C   UNL     1       7.573   4.503  86.910  0.00  0.00    +0.000 C 
ATOM     43  C   UNL     1       7.659   5.399  84.598  0.00  0.00    +0.000 C 
ATOM     44  C   UNL     1       7.949   4.191  85.471  0.00  0.00    +0.000 C 
ENDBRANCH  33  39
ENDBRANCH  30  38
ENDBRANCH  20  30
TORSDOF 6
ENDMDL
MODEL 7
REMARK VINA RESULT:      -5.9     45.563     46.845
REMARK  Name = 
REMARK  8 active torsions:
REMARK  status: ('A' for Active; 'I' for Inactive)
REMARK    1  A    between atoms: O_1  and  C_21
REMARK    2  A    between atoms: O_1  and  C_38
REMARK    3  A    between atoms: O_4  and  C_26
REMARK    4  A    between atoms: N_7  and  C_11
REMARK    5  A    between atoms: C_26  and  C_33
REMARK    6  A    between atoms: C_29  and  C_37
REMARK    7  A    between atoms: C_33  and  C_42
REMARK    8  A    between atoms: C_37  and  C_43
REMARK                            x       y       z     vdW  Elec       q    Type
REMARK                         _______ _______ _______ _____ _____    ______ ____
ROOT
ATOM      1  O   UNL     1      16.459  16.310  82.448  0.00  0.00    +0.000 OA
ATOM      2  O   UNL     1      15.966  19.310  85.364  0.00  0.00    +0.000 OA
ATOM      3  O   UNL     1      18.002  14.850  81.713  0.00  0.00    +0.000 OA
ATOM      4  N   UNL     1      17.453  18.291  86.784  0.00  0.00    +0.000 N 
ATOM      5  N   UNL     1      19.735  16.695  89.044  0.00  0.00    +0.000 NA
ATOM      6  C   UNL     1      18.271  17.227  87.103  0.00  0.00    +0.000 A 
ATOM      7  C   UNL     1      18.431  18.735  88.838  0.00  0.00    +0.000 A 
ATOM      8  C   UNL     1      17.483  19.317  87.830  0.00  0.00    +0.000 C 
ATOM      9  C   UNL     1      17.647  16.165  85.032  0.00  0.00    +0.000 A 
ATOM     10  C   UNL     1      17.734  14.971  84.114  0.00  0.00    +0.000 C 
ATOM     11  C   UNL     1      18.888  17.499  88.396  0.00  0.00    +0.000 A 
ATOM     12  C   UNL     1      16.847  17.201  84.714  0.00  0.00    +0.000 A 
ATOM     13  C   UNL     1      18.873  19.224  90.059  0.00  0.00    +0.000 A 
ATOM     14  C   UNL     1      18.393  16.177  86.285  0.00  0.00    +0.000 A 
ATOM     15  C   UNL     1      16.707  18.372  85.637  0.00  0.00    +0.000 A 
ATOM     16  C   UNL     1      19.768  18.398  90.799  0.00  0.00    +0.000 A 
ATOM     17  C   UNL     1      16.045  17.250  83.461  0.00  0.00    +0.000 C 
ATOM     18  C   UNL     1      20.165  17.142  90.234  0.00  0.00    +0.000 A 
ATOM     19  C   UNL     1      17.426  15.390  82.659  0.00  0.00    +0.000 C 
ATOM     20  C   UNL     1      21.147  17.893  92.744  0.00  0.00    +0.000 A 
ATOM     21  C   UNL     1      20.285  18.752  92.065  0.00  0.00    +0.000 A 
ATOM     22  C   UNL     1      21.044  16.329  90.938  0.00  0.00    +0.000 A 
ATOM     23  C   UNL     1      21.549  16.691  92.187  0.00  0.00    +0.000 A 
ENDROOT
BRANCH  10  24
ATOM     24  O   UNL     1      19.069  14.450  84.161  0.00  0.00    +0.000 OA
ATOM     25  H   UNL     1      19.535  14.955  84.858  0.00  0.00    +0.000 HD
ENDBRANCH  10  24
BRANCH  10  26
ATOM     26  C   UNL     1      16.749  13.871  84.565  0.00  0.00    +0.000 C 
ATOM     27  C   UNL     1      16.789  12.601  83.719  0.00  0.00    +0.000 C 
ENDBRANCH  10  26
BRANCH  13  28
ATOM     28  C   UNL     1      18.375  20.559  90.557  0.00  0.00    +0.000 C 
ATOM     29  C   UNL     1      19.267  21.707  90.111  0.00  0.00    +0.000 C 
ENDBRANCH  13  28
BRANCH  20  30
ATOM     30  O   UNL     1      21.674  18.291  93.973  0.00  0.00    +0.000 OA
BRANCH  30  38
ATOM     31  O   UNL     1      19.926  19.288  95.120  0.00  0.00    +0.000 OA
ATOM     32  N   UNL     1      21.702  20.563  94.395  0.00  0.00    +0.000 N 
ATOM     33  C   UNL     1      22.522  23.139  93.276  0.00  0.00    +0.000 C 
ATOM     34  C   UNL     1      23.018  21.782  92.718  0.00  0.00    +0.000 C 
ATOM     35  C   UNL     1      21.148  22.913  93.956  0.00  0.00    +0.000 C 
ATOM     36  C   UNL     1      23.008  20.676  93.770  0.00  0.00    +0.000 C 
ATOM     37  C   UNL     1      21.182  21.784  94.980  0.00  0.00    +0.000 C 
ATOM     38  C   UNL     1      21.009  19.371  94.547  0.00  0.00    +0.000 C 
BRANCH  33  39
ATOM     39  N   UNL     1      22.451  24.191  92.213  0.00  0.00    +0.000 NA
ATOM     40  C   UNL     1      22.458  23.609  90.854  0.00  0.00    +0.000 C 
ATOM     41  C   UNL     1      21.275  25.072  92.376  0.00  0.00    +0.000 C 
ATOM     42  C   UNL     1      22.416  24.671  89.752  0.00  0.00    +0.000 C 
ATOM     43  C   UNL     1      21.202  26.170  91.313  0.00  0.00    +0.000 C 
ATOM     44  C   UNL     1      21.217  25.589  89.910  0.00  0.00    +0.000 C 
ENDBRANCH  33  39
ENDBRANCH  30  38
ENDBRANCH  20  30
TORSDOF 6
ENDMDL
MODEL 8
REMARK VINA RESULT:      -5.7     17.116     19.305
REMARK  Name = 
REMARK  8 active torsions:
REMARK  status: ('A' for Active; 'I' for Inactive)
REMARK    1  A    between atoms: O_1  and  C_21
REMARK    2  A    between atoms: O_1  and  C_38
REMARK    3  A    between atoms: O_4  and  C_26
REMARK    4  A    between atoms: N_7  and  C_11
REMARK    5  A    between atoms: C_26  and  C_33
REMARK    6  A    between atoms: C_29  and  C_37
REMARK    7  A    between atoms: C_33  and  C_42
REMARK    8  A    between atoms: C_37  and  C_43
REMARK                            x       y       z     vdW  Elec       q    Type
REMARK                         _______ _______ _______ _____ _____    ______ ____
ROOT
ATOM      1  O   UNL     1      51.223  20.070  81.430  0.00  0.00    +0.000 OA
ATOM      2  O   UNL     1      54.170  20.273  84.433  0.00  0.00    +0.000 OA
ATOM      3  O   UNL     1      50.970  20.439  79.228  0.00  0.00    +0.000 OA
ATOM      4  N   UNL     1      55.852  19.858  82.928  0.00  0.00    +0.000 N 
ATOM      5  N   UNL     1      58.495  19.163  80.605  0.00  0.00    +0.000 NA
ATOM      6  C   UNL     1      56.268  19.532  81.653  0.00  0.00    +0.000 A 
ATOM      7  C   UNL     1      58.168  19.755  82.938  0.00  0.00    +0.000 A 
ATOM      8  C   UNL     1      56.993  20.026  83.833  0.00  0.00    +0.000 C 
ATOM      9  C   UNL     1      53.964  19.469  80.949  0.00  0.00    +0.000 A 
ATOM     10  C   UNL     1      52.952  19.206  79.863  0.00  0.00    +0.000 C 
ATOM     11  C   UNL     1      57.725  19.463  81.653  0.00  0.00    +0.000 A 
ATOM     12  C   UNL     1      53.551  19.788  82.191  0.00  0.00    +0.000 A 
ATOM     13  C   UNL     1      59.530  19.750  83.203  0.00  0.00    +0.000 A 
ATOM     14  C   UNL     1      55.389  19.333  80.666  0.00  0.00    +0.000 A 
ATOM     15  C   UNL     1      54.540  20.001  83.296  0.00  0.00    +0.000 A 
ATOM     16  C   UNL     1      60.396  19.421  82.121  0.00  0.00    +0.000 A 
ATOM     17  C   UNL     1      52.115  19.928  82.555  0.00  0.00    +0.000 C 
ATOM     18  C   UNL     1      59.815  19.140  80.842  0.00  0.00    +0.000 A 
ATOM     19  C   UNL     1      51.644  19.978  80.150  0.00  0.00    +0.000 C 
ATOM     20  C   UNL     1      62.594  19.015  81.149  0.00  0.00    +0.000 A 
ATOM     21  C   UNL     1      61.802  19.356  82.244  0.00  0.00    +0.000 A 
ATOM     22  C   UNL     1      60.646  18.826  79.774  0.00  0.00    +0.000 A 
ATOM     23  C   UNL     1      62.034  18.767  79.907  0.00  0.00    +0.000 A 
ENDROOT
BRANCH  10  24
ATOM     24  O   UNL     1      53.484  19.668  78.614  0.00  0.00    +0.000 OA
ATOM     25  H   UNL     1      53.906  20.531  78.800  0.00  0.00    +0.000 HD
ENDBRANCH  10  24
BRANCH  10  26
ATOM     26  C   UNL     1      52.658  17.694  79.753  0.00  0.00    +0.000 C 
ATOM     27  C   UNL     1      52.618  17.159  78.324  0.00  0.00    +0.000 C 
ENDBRANCH  10  26
BRANCH  13  28
ATOM     28  C   UNL     1      60.024  20.052  84.597  0.00  0.00    +0.000 C 
ATOM     29  C   UNL     1      60.083  18.806  85.467  0.00  0.00    +0.000 C 
ENDBRANCH  13  28
BRANCH  20  30
ATOM     30  O   UNL     1      63.982  19.001  81.292  0.00  0.00    +0.000 OA
BRANCH  30  38
ATOM     31  O   UNL     1      64.580  21.239  81.243  0.00  0.00    +0.000 OA
ATOM     32  N   UNL     1      65.288  19.822  79.571  0.00  0.00    +0.000 N 
ATOM     33  C   UNL     1      65.822  19.549  76.707  0.00  0.00    +0.000 C 
ATOM     34  C   UNL     1      65.014  18.504  77.517  0.00  0.00    +0.000 C 
ATOM     35  C   UNL     1      65.689  20.922  77.414  0.00  0.00    +0.000 C 
ATOM     36  C   UNL     1      65.388  18.491  78.997  0.00  0.00    +0.000 C 
ATOM     37  C   UNL     1      66.050  20.853  78.895  0.00  0.00    +0.000 C 
ATOM     38  C   UNL     1      64.614  20.115  80.748  0.00  0.00    +0.000 C 
BRANCH  33  39
ATOM     39  N   UNL     1      65.382  19.615  75.278  0.00  0.00    +0.000 NA
ATOM     40  C   UNL     1      65.464  20.988  74.734  0.00  0.00    +0.000 C 
ATOM     41  C   UNL     1      66.144  18.687  74.415  0.00  0.00    +0.000 C 
ATOM     42  C   UNL     1      64.990  21.081  73.282  0.00  0.00    +0.000 C 
ATOM     43  C   UNL     1      65.688  18.723  72.955  0.00  0.00    +0.000 C 
ATOM     44  C   UNL     1      65.758  20.128  72.383  0.00  0.00    +0.000 C 
ENDBRANCH  33  39
ENDBRANCH  30  38
ENDBRANCH  20  30
TORSDOF 6
ENDMDL
MODEL 9
REMARK VINA RESULT:      -5.7     13.265     15.785
REMARK  Name = 
REMARK  8 active torsions:
REMARK  status: ('A' for Active; 'I' for Inactive)
REMARK    1  A    between atoms: O_1  and  C_21
REMARK    2  A    between atoms: O_1  and  C_38
REMARK    3  A    between atoms: O_4  and  C_26
REMARK    4  A    between atoms: N_7  and  C_11
REMARK    5  A    between atoms: C_26  and  C_33
REMARK    6  A    between atoms: C_29  and  C_37
REMARK    7  A    between atoms: C_33  and  C_42
REMARK    8  A    between atoms: C_37  and  C_43
REMARK                            x       y       z     vdW  Elec       q    Type
REMARK                         _______ _______ _______ _____ _____    ______ ____
ROOT
ATOM      1  O   UNL     1      47.879  42.940  80.107  0.00  0.00    +0.000 OA
ATOM      2  O   UNL     1      44.308  40.888  80.995  0.00  0.00    +0.000 OA
ATOM      3  O   UNL     1      49.886  42.588  79.161  0.00  0.00    +0.000 OA
ATOM      4  N   UNL     1      44.583  39.468  79.213  0.00  0.00    +0.000 N 
ATOM      5  N   UNL     1      44.961  37.267  76.406  0.00  0.00    +0.000 NA
ATOM      6  C   UNL     1      45.266  39.087  78.076  0.00  0.00    +0.000 A 
ATOM      7  C   UNL     1      43.518  37.607  78.331  0.00  0.00    +0.000 A 
ATOM      8  C   UNL     1      43.443  38.583  79.469  0.00  0.00    +0.000 C 
ATOM      9  C   UNL     1      46.801  40.911  78.423  0.00  0.00    +0.000 A 
ATOM     10  C   UNL     1      47.987  41.712  77.945  0.00  0.00    +0.000 C 
ATOM     11  C   UNL     1      44.600  37.917  77.515  0.00  0.00    +0.000 A 
ATOM     12  C   UNL     1      46.139  41.289  79.534  0.00  0.00    +0.000 A 
ATOM     13  C   UNL     1      42.712  36.525  78.006  0.00  0.00    +0.000 A 
ATOM     14  C   UNL     1      46.344  39.758  77.657  0.00  0.00    +0.000 A 
ATOM     15  C   UNL     1      44.927  40.539  79.996  0.00  0.00    +0.000 A 
ATOM     16  C   UNL     1      43.046  35.805  76.823  0.00  0.00    +0.000 A 
ATOM     17  C   UNL     1      46.540  42.464  80.356  0.00  0.00    +0.000 C 
ATOM     18  C   UNL     1      44.188  36.225  76.066  0.00  0.00    +0.000 A 
ATOM     19  C   UNL     1      48.665  42.429  79.135  0.00  0.00    +0.000 C 
ATOM     20  C   UNL     1      42.677  34.042  75.182  0.00  0.00    +0.000 A 
ATOM     21  C   UNL     1      42.307  34.696  76.355  0.00  0.00    +0.000 A 
ATOM     22  C   UNL     1      44.532  35.528  74.915  0.00  0.00    +0.000 A 
ATOM     23  C   UNL     1      43.795  34.433  74.464  0.00  0.00    +0.000 A 
ENDROOT
BRANCH  10  24
ATOM     24  O   UNL     1      48.940  40.816  77.356  0.00  0.00    +0.000 OA
ATOM     25  H   UNL     1      48.523  40.473  76.539  0.00  0.00    +0.000 HD
ENDBRANCH  10  24
BRANCH  10  26
ATOM     26  C   UNL     1      47.549  42.746  76.886  0.00  0.00    +0.000 C 
ATOM     27  C   UNL     1      48.073  42.472  75.479  0.00  0.00    +0.000 C 
ENDBRANCH  10  26
BRANCH  13  28
ATOM     28  C   UNL     1      41.527  36.185  78.876  0.00  0.00    +0.000 C 
ATOM     29  C   UNL     1      40.283  36.967  78.483  0.00  0.00    +0.000 C 
ENDBRANCH  13  28
BRANCH  20  30
ATOM     30  O   UNL     1      41.952  32.923  74.769  0.00  0.00    +0.000 OA
BRANCH  30  38
ATOM     31  O   UNL     1      43.269  31.249  75.681  0.00  0.00    +0.000 OA
ATOM     32  N   UNL     1      42.760  31.218  73.435  0.00  0.00    +0.000 N 
ATOM     33  C   UNL     1      43.750  30.622  70.747  0.00  0.00    +0.000 C 
ATOM     34  C   UNL     1      42.998  31.931  71.097  0.00  0.00    +0.000 C 
ATOM     35  C   UNL     1      44.431  30.092  72.034  0.00  0.00    +0.000 C 
ATOM     36  C   UNL     1      42.057  31.767  72.287  0.00  0.00    +0.000 C 
ATOM     37  C   UNL     1      43.457  29.968  73.201  0.00  0.00    +0.000 C 
ATOM     38  C   UNL     1      42.705  31.754  74.713  0.00  0.00    +0.000 C 
BRANCH  33  39
ATOM     39  N   UNL     1      44.735  30.819  69.637  0.00  0.00    +0.000 NA
ATOM     40  C   UNL     1      46.007  31.399  70.120  0.00  0.00    +0.000 C 
ATOM     41  C   UNL     1      45.002  29.568  68.897  0.00  0.00    +0.000 C 
ATOM     42  C   UNL     1      47.016  31.637  68.994  0.00  0.00    +0.000 C 
ATOM     43  C   UNL     1      45.987  29.759  67.742  0.00  0.00    +0.000 C 
ATOM     44  C   UNL     1      47.297  30.361  68.219  0.00  0.00    +0.000 C 
ENDBRANCH  33  39
ENDBRANCH  30  38
ENDBRANCH  20  30
TORSDOF 6
ENDMDL
