MODEL 1
REMARK VINA RESULT:      -5.6      0.000      0.000
REMARK  Name = 
REMARK  4 active torsions:
REMARK  status: ('A' for Active; 'I' for Inactive)
REMARK    1  A    between atoms: C_1  and  C_6
REMARK    2  A    between atoms: C_1  and  C_7
REMARK    3  A    between atoms: C_9  and  C_14
REMARK    4  A    between atoms: C_11  and  C_15
REMARK                            x       y       z     vdW  Elec       q    Type
REMARK                         _______ _______ _______ _____ _____    ______ ____
ROOT
ATOM      1  C   UNL     1      58.381  36.818  74.778  0.00  0.00    +0.000 C 
ATOM      2  C   UNL     1      58.127  37.209  76.231  0.00  0.00    +0.000 C 
ATOM      3  C   UNL     1      59.524  36.870  75.777  0.00  0.00    +0.000 C 
ATOM      4  C   UNL     1      57.344  36.333  77.101  0.00  0.00    +0.000 C 
ATOM      5  C   UNL     1      60.244  35.672  76.311  0.00  0.00    +0.000 C 
ATOM      6  C   UNL     1      57.912  35.488  74.234  0.00  0.00    +0.000 C 
ATOM      7  C   UNL     1      58.319  37.923  73.750  0.00  0.00    +0.000 C 
ATOM      8  C   UNL     1      57.729  35.458  78.049  0.00  0.00    +0.000 C 
ATOM      9  C   UNL     1      55.834  36.364  76.969  0.00  0.00    +0.000 C 
ATOM     10  C   UNL     1      60.315  35.731  77.837  0.00  0.00    +0.000 C 
ATOM     11  C   UNL     1      59.108  35.075  78.537  0.00  0.00    +0.000 C 
ATOM     12  C   UNL     1      56.535  34.758  78.645  0.00  0.00    +0.000 C 
ATOM     13  C   UNL     1      55.424  35.056  77.646  0.00  0.00    +0.000 C 
ATOM     14  C   UNL     1      55.220  37.584  77.652  0.00  0.00    +0.000 C 
ATOM     15  C   UNL     1      59.235  35.313  80.048  0.00  0.00    +0.000 C 
ENDROOT
TORSDOF 0
ENDMDL
MODEL 2
REMARK VINA RESULT:      -5.2      1.120      3.439
REMARK  Name = 
REMARK  4 active torsions:
REMARK  status: ('A' for Active; 'I' for Inactive)
REMARK    1  A    between atoms: C_1  and  C_6
REMARK    2  A    between atoms: C_1  and  C_7
REMARK    3  A    between atoms: C_9  and  C_14
REMARK    4  A    between atoms: C_11  and  C_15
REMARK                            x       y       z     vdW  Elec       q    Type
REMARK                         _______ _______ _______ _____ _____    ______ ____
ROOT
ATOM      1  C   UNL     1      60.756  35.717  76.703  0.00  0.00    +0.000 C 
ATOM      2  C   UNL     1      59.741  36.834  76.924  0.00  0.00    +0.000 C 
ATOM      3  C   UNL     1      59.971  35.804  78.001  0.00  0.00    +0.000 C 
ATOM      4  C   UNL     1      58.517  36.882  76.126  0.00  0.00    +0.000 C 
ATOM      5  C   UNL     1      58.891  34.852  78.409  0.00  0.00    +0.000 C 
ATOM      6  C   UNL     1      60.483  34.595  75.729  0.00  0.00    +0.000 C 
ATOM      7  C   UNL     1      62.216  36.098  76.760  0.00  0.00    +0.000 C 
ATOM      8  C   UNL     1      57.255  36.516  76.422  0.00  0.00    +0.000 C 
ATOM      9  C   UNL     1      58.609  37.428  74.715  0.00  0.00    +0.000 C 
ATOM     10  C   UNL     1      57.642  35.620  78.841  0.00  0.00    +0.000 C 
ATOM     11  C   UNL     1      56.671  35.921  77.683  0.00  0.00    +0.000 C 
ATOM     12  C   UNL     1      56.347  36.726  75.237  0.00  0.00    +0.000 C 
ATOM     13  C   UNL     1      57.323  36.900  74.080  0.00  0.00    +0.000 C 
ATOM     14  C   UNL     1      58.681  38.953  74.689  0.00  0.00    +0.000 C 
ATOM     15  C   UNL     1      55.532  36.800  78.220  0.00  0.00    +0.000 C 
ENDROOT
TORSDOF 0
ENDMDL
MODEL 3
REMARK VINA RESULT:      -5.0     59.411     62.231
REMARK  Name = 
REMARK  4 active torsions:
REMARK  status: ('A' for Active; 'I' for Inactive)
REMARK    1  A    between atoms: C_1  and  C_6
REMARK    2  A    between atoms: C_1  and  C_7
REMARK    3  A    between atoms: C_9  and  C_14
REMARK    4  A    between atoms: C_11  and  C_15
REMARK                            x       y       z     vdW  Elec       q    Type
REMARK                         _______ _______ _______ _____ _____    ______ ____
ROOT
ATOM      1  C   UNL     1       2.821  11.074  96.903  0.00  0.00    +0.000 C 
ATOM      2  C   UNL     1       3.164  12.498  97.332  0.00  0.00    +0.000 C 
ATOM      3  C   UNL     1       1.833  12.208  96.686  0.00  0.00    +0.000 C 
ATOM      4  C   UNL     1       4.228  13.233  96.652  0.00  0.00    +0.000 C 
ATOM      5  C   UNL     1       1.476  12.783  95.352  0.00  0.00    +0.000 C 
ATOM      6  C   UNL     1       3.504  10.430  95.719  0.00  0.00    +0.000 C 
ATOM      7  C   UNL     1       2.501  10.087  98.000  0.00  0.00    +0.000 C 
ATOM      8  C   UNL     1       4.175  14.190  95.705  0.00  0.00    +0.000 C 
ATOM      9  C   UNL     1       5.663  12.919  97.027  0.00  0.00    +0.000 C 
ATOM     10  C   UNL     1       1.589  14.307  95.383  0.00  0.00    +0.000 C 
ATOM     11  C   UNL     1       2.991  14.829  95.015  0.00  0.00    +0.000 C 
ATOM     12  C   UNL     1       5.562  14.610  95.292  0.00  0.00    +0.000 C 
ATOM     13  C   UNL     1       6.440  13.494  95.842  0.00  0.00    +0.000 C 
ATOM     14  C   UNL     1       6.069  13.564  98.350  0.00  0.00    +0.000 C 
ATOM     15  C   UNL     1       3.008  16.353  95.208  0.00  0.00    +0.000 C 
ENDROOT
TORSDOF 0
ENDMDL
MODEL 4
REMARK VINA RESULT:      -5.0     16.504     18.351
REMARK  Name = 
REMARK  4 active torsions:
REMARK  status: ('A' for Active; 'I' for Inactive)
REMARK    1  A    between atoms: C_1  and  C_6
REMARK    2  A    between atoms: C_1  and  C_7
REMARK    3  A    between atoms: C_9  and  C_14
REMARK    4  A    between atoms: C_11  and  C_15
REMARK                            x       y       z     vdW  Elec       q    Type
REMARK                         _______ _______ _______ _____ _____    ______ ____
ROOT
ATOM      1  C   UNL     1      50.921  17.421  76.009  0.00  0.00    +0.000 C 
ATOM      2  C   UNL     1      50.544  18.757  76.643  0.00  0.00    +0.000 C 
ATOM      3  C   UNL     1      51.224  18.728  75.297  0.00  0.00    +0.000 C 
ATOM      4  C   UNL     1      51.217  19.208  77.859  0.00  0.00    +0.000 C 
ATOM      5  C   UNL     1      52.595  19.297  75.109  0.00  0.00    +0.000 C 
ATOM      6  C   UNL     1      52.049  16.584  76.565  0.00  0.00    +0.000 C 
ATOM      7  C   UNL     1      49.793  16.584  75.453  0.00  0.00    +0.000 C 
ATOM      8  C   UNL     1      52.207  20.103  78.040  0.00  0.00    +0.000 C 
ATOM      9  C   UNL     1      50.776  18.610  79.181  0.00  0.00    +0.000 C 
ATOM     10  C   UNL     1      52.628  20.760  75.550  0.00  0.00    +0.000 C 
ATOM     11  C   UNL     1      52.968  20.947  77.042  0.00  0.00    +0.000 C 
ATOM     12  C   UNL     1      52.588  20.191  79.495  0.00  0.00    +0.000 C 
ATOM     13  C   UNL     1      51.956  18.941  80.095  0.00  0.00    +0.000 C 
ATOM     14  C   UNL     1      49.469  19.220  79.683  0.00  0.00    +0.000 C 
ATOM     15  C   UNL     1      52.844  22.438  77.385  0.00  0.00    +0.000 C 
ENDROOT
TORSDOF 0
ENDMDL
MODEL 5
REMARK VINA RESULT:      -4.9     44.312     46.758
REMARK  Name = 
REMARK  4 active torsions:
REMARK  status: ('A' for Active; 'I' for Inactive)
REMARK    1  A    between atoms: C_1  and  C_6
REMARK    2  A    between atoms: C_1  and  C_7
REMARK    3  A    between atoms: C_9  and  C_14
REMARK    4  A    between atoms: C_11  and  C_15
REMARK                            x       y       z     vdW  Elec       q    Type
REMARK                         _______ _______ _______ _____ _____    ______ ____
ROOT
ATOM      1  C   UNL     1      21.323   5.599  85.310  0.00  0.00    +0.000 C 
ATOM      2  C   UNL     1      22.102   5.885  86.591  0.00  0.00    +0.000 C 
ATOM      3  C   UNL     1      20.903   6.728  86.237  0.00  0.00    +0.000 C 
ATOM      4  C   UNL     1      23.472   6.390  86.519  0.00  0.00    +0.000 C 
ATOM      5  C   UNL     1      21.043   8.184  85.924  0.00  0.00    +0.000 C 
ATOM      6  C   UNL     1      21.908   5.914  83.953  0.00  0.00    +0.000 C 
ATOM      7  C   UNL     1      20.454   4.364  85.299  0.00  0.00    +0.000 C 
ATOM      8  C   UNL     1      23.963   7.635  86.675  0.00  0.00    +0.000 C 
ATOM      9  C   UNL     1      24.582   5.400  86.224  0.00  0.00    +0.000 C 
ATOM     10  C   UNL     1      21.726   8.913  87.081  0.00  0.00    +0.000 C 
ATOM     11  C   UNL     1      23.263   8.941  86.972  0.00  0.00    +0.000 C 
ATOM     12  C   UNL     1      25.455   7.650  86.462  0.00  0.00    +0.000 C 
ATOM     13  C   UNL     1      25.721   6.315  85.776  0.00  0.00    +0.000 C 
ATOM     14  C   UNL     1      24.956   4.570  87.450  0.00  0.00    +0.000 C 
ATOM     15  C   UNL     1      23.828   9.582  88.248  0.00  0.00    +0.000 C 
ENDROOT
TORSDOF 0
ENDMDL
MODEL 6
REMARK VINA RESULT:      -4.8     16.738     18.040
REMARK  Name = 
REMARK  4 active torsions:
REMARK  status: ('A' for Active; 'I' for Inactive)
REMARK    1  A    between atoms: C_1  and  C_6
REMARK    2  A    between atoms: C_1  and  C_7
REMARK    3  A    between atoms: C_9  and  C_14
REMARK    4  A    between atoms: C_11  and  C_15
REMARK                            x       y       z     vdW  Elec       q    Type
REMARK                         _______ _______ _______ _____ _____    ______ ____
ROOT
ATOM      1  C   UNL     1      43.740  27.592  84.975  0.00  0.00    +0.000 C 
ATOM      2  C   UNL     1      44.387  26.289  85.434  0.00  0.00    +0.000 C 
ATOM      3  C   UNL     1      44.423  27.501  86.330  0.00  0.00    +0.000 C 
ATOM      4  C   UNL     1      45.572  25.777  84.749  0.00  0.00    +0.000 C 
ATOM      5  C   UNL     1      45.715  28.170  86.678  0.00  0.00    +0.000 C 
ATOM      6  C   UNL     1      44.354  28.423  83.873  0.00  0.00    +0.000 C 
ATOM      7  C   UNL     1      42.231  27.644  84.973  0.00  0.00    +0.000 C 
ATOM      8  C   UNL     1      46.875  25.823  85.086  0.00  0.00    +0.000 C 
ATOM      9  C   UNL     1      45.376  25.058  83.428  0.00  0.00    +0.000 C 
ATOM     10  C   UNL     1      46.678  27.167  87.313  0.00  0.00    +0.000 C 
ATOM     11  C   UNL     1      47.562  26.427  86.289  0.00  0.00    +0.000 C 
ATOM     12  C   UNL     1      47.725  25.182  84.019  0.00  0.00    +0.000 C 
ATOM     13  C   UNL     1      46.781  25.101  82.826  0.00  0.00    +0.000 C 
ATOM     14  C   UNL     1      44.874  23.629  83.618  0.00  0.00    +0.000 C 
ATOM     15  C   UNL     1      48.384  25.367  87.036  0.00  0.00    +0.000 C 
ENDROOT
TORSDOF 0
ENDMDL
MODEL 7
REMARK VINA RESULT:      -4.8     45.509     47.976
REMARK  Name = 
REMARK  4 active torsions:
REMARK  status: ('A' for Active; 'I' for Inactive)
REMARK    1  A    between atoms: C_1  and  C_6
REMARK    2  A    between atoms: C_1  and  C_7
REMARK    3  A    between atoms: C_9  and  C_14
REMARK    4  A    between atoms: C_11  and  C_15
REMARK                            x       y       z     vdW  Elec       q    Type
REMARK                         _______ _______ _______ _____ _____    ______ ____
ROOT
ATOM      1  C   UNL     1      22.131   7.823  86.266  0.00  0.00    +0.000 C 
ATOM      2  C   UNL     1      20.761   7.438  85.716  0.00  0.00    +0.000 C 
ATOM      3  C   UNL     1      21.518   6.471  86.591  0.00  0.00    +0.000 C 
ATOM      4  C   UNL     1      20.578   7.229  84.281  0.00  0.00    +0.000 C 
ATOM      5  C   UNL     1      22.010   5.163  86.057  0.00  0.00    +0.000 C 
ATOM      6  C   UNL     1      23.339   7.908  85.363  0.00  0.00    +0.000 C 
ATOM      7  C   UNL     1      22.160   8.846  87.377  0.00  0.00    +0.000 C 
ATOM      8  C   UNL     1      20.503   6.095  83.557  0.00  0.00    +0.000 C 
ATOM      9  C   UNL     1      20.440   8.451  83.395  0.00  0.00    +0.000 C 
ATOM     10  C   UNL     1      20.850   4.358  85.472  0.00  0.00    +0.000 C 
ATOM     11  C   UNL     1      20.588   4.647  83.980  0.00  0.00    +0.000 C 
ATOM     12  C   UNL     1      20.350   6.409  82.091  0.00  0.00    +0.000 C 
ATOM     13  C   UNL     1      20.737   7.880  82.008  0.00  0.00    +0.000 C 
ATOM     14  C   UNL     1      19.047   9.071  83.478  0.00  0.00    +0.000 C 
ATOM     15  C   UNL     1      19.329   3.880  83.551  0.00  0.00    +0.000 C 
ENDROOT
TORSDOF 0
ENDMDL
MODEL 8
REMARK VINA RESULT:      -4.7      6.126      8.986
REMARK  Name = 
REMARK  4 active torsions:
REMARK  status: ('A' for Active; 'I' for Inactive)
REMARK    1  A    between atoms: C_1  and  C_6
REMARK    2  A    between atoms: C_1  and  C_7
REMARK    3  A    between atoms: C_9  and  C_14
REMARK    4  A    between atoms: C_11  and  C_15
REMARK                            x       y       z     vdW  Elec       q    Type
REMARK                         _______ _______ _______ _____ _____    ______ ____
ROOT
ATOM      1  C   UNL     1      61.467  32.325  73.275  0.00  0.00    +0.000 C 
ATOM      2  C   UNL     1      61.816  32.422  71.792  0.00  0.00    +0.000 C 
ATOM      3  C   UNL     1      60.884  33.433  72.413  0.00  0.00    +0.000 C 
ATOM      4  C   UNL     1      61.358  31.393  70.862  0.00  0.00    +0.000 C 
ATOM      5  C   UNL     1      59.450  33.523  71.997  0.00  0.00    +0.000 C 
ATOM      6  C   UNL     1      60.573  31.224  73.796  0.00  0.00    +0.000 C 
ATOM      7  C   UNL     1      62.543  32.719  74.259  0.00  0.00    +0.000 C 
ATOM      8  C   UNL     1      60.334  31.385  69.987  0.00  0.00    +0.000 C 
ATOM      9  C   UNL     1      62.121  30.083  70.818  0.00  0.00    +0.000 C 
ATOM     10  C   UNL     1      59.347  33.747  70.489  0.00  0.00    +0.000 C 
ATOM     11  C   UNL     1      59.299  32.440  69.672  0.00  0.00    +0.000 C 
ATOM     12  C   UNL     1      60.249  30.059  69.277  0.00  0.00    +0.000 C 
ATOM     13  C   UNL     1      61.122  29.150  70.133  0.00  0.00    +0.000 C 
ATOM     14  C   UNL     1      63.428  30.202  70.037  0.00  0.00    +0.000 C 
ATOM     15  C   UNL     1      59.326  32.800  68.179  0.00  0.00    +0.000 C 
ENDROOT
TORSDOF 0
ENDMDL
MODEL 9
REMARK VINA RESULT:      -4.7      6.360      8.527
REMARK  Name = 
REMARK  4 active torsions:
REMARK  status: ('A' for Active; 'I' for Inactive)
REMARK    1  A    between atoms: C_1  and  C_6
REMARK    2  A    between atoms: C_1  and  C_7
REMARK    3  A    between atoms: C_9  and  C_14
REMARK    4  A    between atoms: C_11  and  C_15
REMARK                            x       y       z     vdW  Elec       q    Type
REMARK                         _______ _______ _______ _____ _____    ______ ____
ROOT
ATOM      1  C   UNL     1      60.164  31.852  67.733  0.00  0.00    +0.000 C 
ATOM      2  C   UNL     1      60.891  32.285  69.003  0.00  0.00    +0.000 C 
ATOM      3  C   UNL     1      60.933  30.842  68.568  0.00  0.00    +0.000 C 
ATOM      4  C   UNL     1      60.131  32.738  70.166  0.00  0.00    +0.000 C 
ATOM      5  C   UNL     1      60.305  29.764  69.394  0.00  0.00    +0.000 C 
ATOM      6  C   UNL     1      58.655  31.794  67.679  0.00  0.00    +0.000 C 
ATOM      7  C   UNL     1      60.780  32.263  66.417  0.00  0.00    +0.000 C 
ATOM      8  C   UNL     1      59.804  32.104  71.308  0.00  0.00    +0.000 C 
ATOM      9  C   UNL     1      59.588  34.154  70.155  0.00  0.00    +0.000 C 
ATOM     10  C   UNL     1      60.877  29.779  70.811  0.00  0.00    +0.000 C 
ATOM     11  C   UNL     1      60.107  30.700  71.778  0.00  0.00    +0.000 C 
ATOM     12  C   UNL     1      58.965  32.993  72.191  0.00  0.00    +0.000 C 
ATOM     13  C   UNL     1      58.515  34.097  71.242  0.00  0.00    +0.000 C 
ATOM     14  C   UNL     1      60.668  35.189  70.463  0.00  0.00    +0.000 C 
ATOM     15  C   UNL     1      60.852  30.725  73.121  0.00  0.00    +0.000 C 
ENDROOT
TORSDOF 0
ENDMDL
