MODEL 1
REMARK VINA RESULT:      -8.1      0.000      0.000
REMARK  Name = JAK3_Inhibitor.pdbqt.pdb
REMARK  1 active torsions:
REMARK  status: ('A' for Active; 'I' for Inactive)
REMARK    1  A    between atoms: C_7  and  C_20
REMARK                            x       y       z     vdW  Elec       q    Type
REMARK                         _______ _______ _______ _____ _____    ______ ____
ROOT
ATOM      1  O   UNL     1      55.608  38.025  73.323  0.00  0.00    +0.000 OA
ATOM      2  N   UNL     1      55.096  37.995  75.608  0.00  0.00    +0.000 N 
ATOM      3  C   UNL     1      56.644  36.481  76.367  0.00  0.00    +0.000 A 
ATOM      4  C   UNL     1      55.592  37.326  76.728  0.00  0.00    +0.000 A 
ATOM      5  C   UNL     1      56.804  36.642  74.932  0.00  0.00    +0.000 C 
ATOM      6  C   UNL     1      57.295  35.712  77.311  0.00  0.00    +0.000 A 
ATOM      7  C   UNL     1      56.885  35.790  78.653  0.00  0.00    +0.000 A 
ATOM      8  C   UNL     1      55.787  37.630  74.459  0.00  0.00    +0.000 C 
ATOM      9  C   UNL     1      55.154  37.437  78.029  0.00  0.00    +0.000 A 
ATOM     10  C   UNL     1      57.659  36.054  74.157  0.00  0.00    +0.000 C 
ATOM     11  C   UNL     1      55.816  36.658  78.981  0.00  0.00    +0.000 A 
ATOM     12  H   UNL     1      54.336  38.661  75.607  0.00  0.00    +0.000 HD
ATOM     13  N   UNL     1      58.613  35.684  71.919  0.00  0.00    +0.000 N 
ATOM     14  C   UNL     1      58.575  35.438  73.267  0.00  0.00    +0.000 C 
ATOM     15  C   UNL     1      59.557  34.520  73.557  0.00  0.00    +0.000 C 
ATOM     16  C   UNL     1      59.607  34.934  71.348  0.00  0.00    +0.000 C 
ATOM     17  C   UNL     1      60.209  34.201  72.344  0.00  0.00    +0.000 C 
ATOM     18  H   UNL     1      58.002  36.321  71.425  0.00  0.00    +0.000 HD
ENDROOT
BRANCH   7  20
ATOM     19  N   UNL     1      59.444  33.626  80.387  0.00  0.00    +0.000 NA
ATOM     20  C   UNL     1      57.549  34.992  79.690  0.00  0.00    +0.000 A 
ATOM     21  C   UNL     1      56.988  34.802  80.955  0.00  0.00    +0.000 A 
ATOM     22  C   UNL     1      58.778  34.374  79.479  0.00  0.00    +0.000 A 
ATOM     23  C   UNL     1      57.632  34.042  81.924  0.00  0.00    +0.000 A 
ATOM     24  C   UNL     1      58.851  33.480  81.590  0.00  0.00    +0.000 A 
ENDBRANCH   7  20
TORSDOF 1
ENDMDL
MODEL 2
REMARK VINA RESULT:      -6.4      2.106      2.723
REMARK  Name = JAK3_Inhibitor.pdbqt.pdb
REMARK  1 active torsions:
REMARK  status: ('A' for Active; 'I' for Inactive)
REMARK    1  A    between atoms: C_7  and  C_20
REMARK                            x       y       z     vdW  Elec       q    Type
REMARK                         _______ _______ _______ _____ _____    ______ ____
ROOT
ATOM      1  O   UNL     1      55.537  39.898  71.580  0.00  0.00    +0.000 OA
ATOM      2  N   UNL     1      55.558  40.096  73.914  0.00  0.00    +0.000 N 
ATOM      3  C   UNL     1      56.850  38.287  74.479  0.00  0.00    +0.000 A 
ATOM      4  C   UNL     1      56.127  39.378  74.966  0.00  0.00    +0.000 A 
ATOM      5  C   UNL     1      56.716  38.339  73.033  0.00  0.00    +0.000 C 
ATOM      6  C   UNL     1      57.504  37.426  75.337  0.00  0.00    +0.000 A 
ATOM      7  C   UNL     1      57.435  37.662  76.721  0.00  0.00    +0.000 A 
ATOM      8  C   UNL     1      55.872  39.523  72.687  0.00  0.00    +0.000 C 
ATOM      9  C   UNL     1      56.029  39.651  76.312  0.00  0.00    +0.000 A 
ATOM     10  C   UNL     1      57.218  37.527  72.158  0.00  0.00    +0.000 C 
ATOM     11  C   UNL     1      56.693  38.778  77.178  0.00  0.00    +0.000 A 
ATOM     12  H   UNL     1      54.990  40.926  74.005  0.00  0.00    +0.000 HD
ATOM     13  N   UNL     1      57.536  36.835  69.818  0.00  0.00    +0.000 N 
ATOM     14  C   UNL     1      57.746  36.667  71.162  0.00  0.00    +0.000 C 
ATOM     15  C   UNL     1      58.533  35.551  71.331  0.00  0.00    +0.000 C 
ATOM     16  C   UNL     1      58.178  35.841  69.129  0.00  0.00    +0.000 C 
ATOM     17  C   UNL     1      58.806  35.029  70.045  0.00  0.00    +0.000 C 
ATOM     18  H   UNL     1      56.991  37.579  69.402  0.00  0.00    +0.000 HD
ENDROOT
BRANCH   7  20
ATOM     19  N   UNL     1      59.576  34.864  78.072  0.00  0.00    +0.000 NA
ATOM     20  C   UNL     1      58.114  36.774  77.671  0.00  0.00    +0.000 A 
ATOM     21  C   UNL     1      57.994  36.931  79.053  0.00  0.00    +0.000 A 
ATOM     22  C   UNL     1      58.922  35.719  77.255  0.00  0.00    +0.000 A 
ATOM     23  C   UNL     1      58.646  36.079  79.937  0.00  0.00    +0.000 A 
ATOM     24  C   UNL     1      59.420  35.068  79.397  0.00  0.00    +0.000 A 
ENDBRANCH   7  20
TORSDOF 1
ENDMDL
MODEL 3
REMARK VINA RESULT:      -6.2     16.966     19.155
REMARK  Name = JAK3_Inhibitor.pdbqt.pdb
REMARK  1 active torsions:
REMARK  status: ('A' for Active; 'I' for Inactive)
REMARK    1  A    between atoms: C_7  and  C_20
REMARK                            x       y       z     vdW  Elec       q    Type
REMARK                         _______ _______ _______ _____ _____    ______ ____
ROOT
ATOM      1  O   UNL     1      46.594  24.729  82.449  0.00  0.00    +0.000 OA
ATOM      2  N   UNL     1      47.014  26.038  84.345  0.00  0.00    +0.000 N 
ATOM      3  C   UNL     1      44.872  26.442  85.061  0.00  0.00    +0.000 A 
ATOM      4  C   UNL     1      46.228  26.666  85.312  0.00  0.00    +0.000 A 
ATOM      5  C   UNL     1      44.823  25.622  83.862  0.00  0.00    +0.000 C 
ATOM      6  C   UNL     1      43.899  26.968  85.887  0.00  0.00    +0.000 A 
ATOM      7  C   UNL     1      44.291  27.738  86.995  0.00  0.00    +0.000 A 
ATOM      8  C   UNL     1      46.227  25.372  83.413  0.00  0.00    +0.000 C 
ATOM      9  C   UNL     1      46.661  27.413  86.384  0.00  0.00    +0.000 A 
ATOM     10  C   UNL     1      43.775  25.168  83.252  0.00  0.00    +0.000 C 
ATOM     11  C   UNL     1      45.674  27.943  87.218  0.00  0.00    +0.000 A 
ATOM     12  H   UNL     1      48.023  26.050  84.306  0.00  0.00    +0.000 HD
ATOM     13  N   UNL     1      42.761  23.880  81.417  0.00  0.00    +0.000 N 
ATOM     14  C   UNL     1      42.660  24.646  82.549  0.00  0.00    +0.000 C 
ATOM     15  C   UNL     1      41.324  24.792  82.844  0.00  0.00    +0.000 C 
ATOM     16  C   UNL     1      41.506  23.538  80.986  0.00  0.00    +0.000 C 
ATOM     17  C   UNL     1      40.595  24.092  81.855  0.00  0.00    +0.000 C 
ATOM     18  H   UNL     1      43.627  23.611  80.971  0.00  0.00    +0.000 HD
ENDROOT
BRANCH   7  20
ATOM     19  N   UNL     1      40.951  28.709  88.458  0.00  0.00    +0.000 NA
ATOM     20  C   UNL     1      43.292  28.317  87.901  0.00  0.00    +0.000 A 
ATOM     21  C   UNL     1      43.650  29.018  89.053  0.00  0.00    +0.000 A 
ATOM     22  C   UNL     1      41.924  28.202  87.668  0.00  0.00    +0.000 A 
ATOM     23  C   UNL     1      42.689  29.559  89.899  0.00  0.00    +0.000 A 
ATOM     24  C   UNL     1      41.361  29.376  89.557  0.00  0.00    +0.000 A 
ENDBRANCH   7  20
TORSDOF 1
ENDMDL
MODEL 4
REMARK VINA RESULT:      -5.8      4.605      7.347
REMARK  Name = JAK3_Inhibitor.pdbqt.pdb
REMARK  1 active torsions:
REMARK  status: ('A' for Active; 'I' for Inactive)
REMARK    1  A    between atoms: C_7  and  C_20
REMARK                            x       y       z     vdW  Elec       q    Type
REMARK                         _______ _______ _______ _____ _____    ______ ____
ROOT
ATOM      1  O   UNL     1      56.699  42.885  70.493  0.00  0.00    +0.000 OA
ATOM      2  N   UNL     1      57.274  40.672  71.000  0.00  0.00    +0.000 N 
ATOM      3  C   UNL     1      56.387  40.478  73.107  0.00  0.00    +0.000 A 
ATOM      4  C   UNL     1      57.087  39.823  72.092  0.00  0.00    +0.000 A 
ATOM      5  C   UNL     1      56.127  41.817  72.606  0.00  0.00    +0.000 C 
ATOM      6  C   UNL     1      56.084  39.836  74.292  0.00  0.00    +0.000 A 
ATOM      7  C   UNL     1      56.490  38.502  74.466  0.00  0.00    +0.000 A 
ATOM      8  C   UNL     1      56.712  41.921  71.234  0.00  0.00    +0.000 C 
ATOM      9  C   UNL     1      57.506  38.517  72.215  0.00  0.00    +0.000 A 
ATOM     10  C   UNL     1      55.505  42.783  73.204  0.00  0.00    +0.000 C 
ATOM     11  C   UNL     1      57.197  37.871  73.414  0.00  0.00    +0.000 A 
ATOM     12  H   UNL     1      57.750  40.433  70.142  0.00  0.00    +0.000 HD
ATOM     13  N   UNL     1      54.658  45.093  73.221  0.00  0.00    +0.000 N 
ATOM     14  C   UNL     1      54.831  43.870  73.815  0.00  0.00    +0.000 C 
ATOM     15  C   UNL     1      54.247  43.918  75.060  0.00  0.00    +0.000 C 
ATOM     16  C   UNL     1      53.972  45.919  74.071  0.00  0.00    +0.000 C 
ATOM     17  C   UNL     1      53.703  45.214  75.221  0.00  0.00    +0.000 C 
ATOM     18  H   UNL     1      54.987  45.344  72.298  0.00  0.00    +0.000 HD
ENDROOT
BRANCH   7  20
ATOM     19  N   UNL     1      54.900  36.072  76.875  0.00  0.00    +0.000 NA
ATOM     20  C   UNL     1      56.189  37.780  75.707  0.00  0.00    +0.000 A 
ATOM     21  C   UNL     1      56.849  38.056  76.906  0.00  0.00    +0.000 A 
ATOM     22  C   UNL     1      55.228  36.776  75.768  0.00  0.00    +0.000 A 
ATOM     23  C   UNL     1      56.550  37.361  78.073  0.00  0.00    +0.000 A 
ATOM     24  C   UNL     1      55.573  36.384  78.002  0.00  0.00    +0.000 A 
ENDBRANCH   7  20
TORSDOF 1
ENDMDL
MODEL 5
REMARK VINA RESULT:      -5.8      4.606      7.537
REMARK  Name = JAK3_Inhibitor.pdbqt.pdb
REMARK  1 active torsions:
REMARK  status: ('A' for Active; 'I' for Inactive)
REMARK    1  A    between atoms: C_7  and  C_20
REMARK                            x       y       z     vdW  Elec       q    Type
REMARK                         _______ _______ _______ _____ _____    ______ ____
ROOT
ATOM      1  O   UNL     1      59.225  37.828  75.343  0.00  0.00    +0.000 OA
ATOM      2  N   UNL     1      58.271  36.208  73.947  0.00  0.00    +0.000 N 
ATOM      3  C   UNL     1      60.091  34.868  73.551  0.00  0.00    +0.000 A 
ATOM      4  C   UNL     1      58.732  35.065  73.292  0.00  0.00    +0.000 A 
ATOM      5  C   UNL     1      60.489  35.961  74.421  0.00  0.00    +0.000 C 
ATOM      6  C   UNL     1      60.770  33.796  73.007  0.00  0.00    +0.000 A 
ATOM      7  C   UNL     1      60.073  32.896  72.183  0.00  0.00    +0.000 A 
ATOM      8  C   UNL     1      59.290  36.821  74.666  0.00  0.00    +0.000 C 
ATOM      9  C   UNL     1      58.006  34.211  72.492  0.00  0.00    +0.000 A 
ATOM     10  C   UNL     1      61.661  36.193  74.920  0.00  0.00    +0.000 C 
ATOM     11  C   UNL     1      58.698  33.128  71.945  0.00  0.00    +0.000 A 
ATOM     12  H   UNL     1      57.326  36.563  73.919  0.00  0.00    +0.000 HD
ATOM     13  N   UNL     1      63.161  37.569  76.303  0.00  0.00    +0.000 N 
ATOM     14  C   UNL     1      62.924  36.490  75.492  0.00  0.00    +0.000 C 
ATOM     15  C   UNL     1      64.104  35.795  75.356  0.00  0.00    +0.000 C 
ATOM     16  C   UNL     1      64.477  37.570  76.686  0.00  0.00    +0.000 C 
ATOM     17  C   UNL     1      65.085  36.478  76.111  0.00  0.00    +0.000 C 
ATOM     18  H   UNL     1      62.471  38.256  76.575  0.00  0.00    +0.000 HD
ENDROOT
BRANCH   7  20
ATOM     19  N   UNL     1      62.796  30.444  71.279  0.00  0.00    +0.000 NA
ATOM     20  C   UNL     1      60.755  31.742  71.585  0.00  0.00    +0.000 A 
ATOM     21  C   UNL     1      60.090  30.830  70.763  0.00  0.00    +0.000 A 
ATOM     22  C   UNL     1      62.106  31.485  71.797  0.00  0.00    +0.000 A 
ATOM     23  C   UNL     1      60.753  29.743  70.205  0.00  0.00    +0.000 A 
ATOM     24  C   UNL     1      62.097  29.597  70.494  0.00  0.00    +0.000 A 
ENDBRANCH   7  20
TORSDOF 1
ENDMDL
MODEL 6
REMARK VINA RESULT:      -5.8     19.398     21.417
REMARK  Name = JAK3_Inhibitor.pdbqt.pdb
REMARK  1 active torsions:
REMARK  status: ('A' for Active; 'I' for Inactive)
REMARK    1  A    between atoms: C_7  and  C_20
REMARK                            x       y       z     vdW  Elec       q    Type
REMARK                         _______ _______ _______ _____ _____    ______ ____
ROOT
ATOM      1  O   UNL     1      41.149  22.835  80.966  0.00  0.00    +0.000 OA
ATOM      2  N   UNL     1      42.904  24.107  81.853  0.00  0.00    +0.000 N 
ATOM      3  C   UNL     1      41.874  25.023  83.688  0.00  0.00    +0.000 A 
ATOM      4  C   UNL     1      43.062  24.945  82.958  0.00  0.00    +0.000 A 
ATOM      5  C   UNL     1      40.924  24.177  82.985  0.00  0.00    +0.000 C 
ATOM      6  C   UNL     1      41.789  25.797  84.828  0.00  0.00    +0.000 A 
ATOM      7  C   UNL     1      42.922  26.512  85.251  0.00  0.00    +0.000 A 
ATOM      8  C   UNL     1      41.614  23.591  81.795  0.00  0.00    +0.000 C 
ATOM      9  C   UNL     1      44.199  25.626  83.332  0.00  0.00    +0.000 A 
ATOM     10  C   UNL     1      39.688  23.943  83.295  0.00  0.00    +0.000 C 
ATOM     11  C   UNL     1      44.109  26.407  84.486  0.00  0.00    +0.000 A 
ATOM     12  H   UNL     1      43.616  23.887  81.172  0.00  0.00    +0.000 HD
ATOM     13  N   UNL     1      37.543  22.831  82.832  0.00  0.00    +0.000 N 
ATOM     14  C   UNL     1      38.332  23.654  83.591  0.00  0.00    +0.000 C 
ATOM     15  C   UNL     1      37.574  24.116  84.643  0.00  0.00    +0.000 C 
ATOM     16  C   UNL     1      36.292  22.762  83.385  0.00  0.00    +0.000 C 
ATOM     17  C   UNL     1      36.284  23.551  84.512  0.00  0.00    +0.000 C 
ATOM     18  H   UNL     1      37.840  22.349  81.993  0.00  0.00    +0.000 HD
ENDROOT
BRANCH   7  20
ATOM     19  N   UNL     1      44.063  28.500  88.249  0.00  0.00    +0.000 NA
ATOM     20  C   UNL     1      42.878  27.347  86.456  0.00  0.00    +0.000 A 
ATOM     21  C   UNL     1      41.676  27.807  86.999  0.00  0.00    +0.000 A 
ATOM     22  C   UNL     1      44.030  27.734  87.135  0.00  0.00    +0.000 A 
ATOM     23  C   UNL     1      41.655  28.598  88.142  0.00  0.00    +0.000 A 
ATOM     24  C   UNL     1      42.869  28.913  88.724  0.00  0.00    +0.000 A 
ENDBRANCH   7  20
TORSDOF 1
ENDMDL
MODEL 7
REMARK VINA RESULT:      -5.6     54.552     56.878
REMARK  Name = JAK3_Inhibitor.pdbqt.pdb
REMARK  1 active torsions:
REMARK  status: ('A' for Active; 'I' for Inactive)
REMARK    1  A    between atoms: C_7  and  C_20
REMARK                            x       y       z     vdW  Elec       q    Type
REMARK                         _______ _______ _______ _____ _____    ______ ____
ROOT
ATOM      1  O   UNL     1      14.907   7.258  99.236  0.00  0.00    +0.000 OA
ATOM      2  N   UNL     1      12.607   7.532  99.582  0.00  0.00    +0.000 N 
ATOM      3  C   UNL     1      12.548   9.704 100.321  0.00  0.00    +0.000 A 
ATOM      4  C   UNL     1      11.786   8.571 100.023  0.00  0.00    +0.000 A 
ATOM      5  C   UNL     1      13.926   9.335 100.044  0.00  0.00    +0.000 C 
ATOM      6  C   UNL     1      11.952  10.862 100.778  0.00  0.00    +0.000 A 
ATOM      7  C   UNL     1      10.556  10.890 100.941  0.00  0.00    +0.000 A 
ATOM      8  C   UNL     1      13.942   7.920  99.565  0.00  0.00    +0.000 C 
ATOM      9  C   UNL     1      10.417   8.550 100.166  0.00  0.00    +0.000 A 
ATOM     10  C   UNL     1      14.986  10.068 100.176  0.00  0.00    +0.000 C 
ATOM     11  C   UNL     1       9.818   9.724 100.628  0.00  0.00    +0.000 A 
ATOM     12  H   UNL     1      12.296   6.612  99.305  0.00  0.00    +0.000 HD
ATOM     13  N   UNL     1      17.424  10.349 100.004  0.00  0.00    +0.000 N 
ATOM     14  C   UNL     1      16.175  10.829 100.302  0.00  0.00    +0.000 C 
ATOM     15  C   UNL     1      16.312  12.131 100.724  0.00  0.00    +0.000 C 
ATOM     16  C   UNL     1      18.354  11.329 100.233  0.00  0.00    +0.000 C 
ATOM     17  C   UNL     1      17.690  12.447 100.681  0.00  0.00    +0.000 C 
ATOM     18  H   UNL     1      17.626   9.417  99.669  0.00  0.00    +0.000 HD
ENDROOT
BRANCH   7  20
ATOM     19  N   UNL     1       9.955  14.164 102.718  0.00  0.00    +0.000 NA
ATOM     20  C   UNL     1       9.880  12.100 101.424  0.00  0.00    +0.000 A 
ATOM     21  C   UNL     1       8.554  12.391 101.097  0.00  0.00    +0.000 A 
ATOM     22  C   UNL     1      10.516  13.032 102.238  0.00  0.00    +0.000 A 
ATOM     23  C   UNL     1       7.930  13.542 101.564  0.00  0.00    +0.000 A 
ATOM     24  C   UNL     1       8.672  14.390 102.366  0.00  0.00    +0.000 A 
ENDBRANCH   7  20
TORSDOF 1
ENDMDL
MODEL 8
REMARK VINA RESULT:      -5.5     16.289     17.324
REMARK  Name = JAK3_Inhibitor.pdbqt.pdb
REMARK  1 active torsions:
REMARK  status: ('A' for Active; 'I' for Inactive)
REMARK    1  A    between atoms: C_7  and  C_20
REMARK                            x       y       z     vdW  Elec       q    Type
REMARK                         _______ _______ _______ _____ _____    ______ ____
ROOT
ATOM      1  O   UNL     1      45.468  20.731  70.486  0.00  0.00    +0.000 OA
ATOM      2  N   UNL     1      44.249  22.729  70.574  0.00  0.00    +0.000 N 
ATOM      3  C   UNL     1      45.926  24.261  70.251  0.00  0.00    +0.000 A 
ATOM      4  C   UNL     1      44.557  24.086  70.464  0.00  0.00    +0.000 A 
ATOM      5  C   UNL     1      46.496  22.924  70.229  0.00  0.00    +0.000 C 
ATOM      6  C   UNL     1      46.469  25.523  70.112  0.00  0.00    +0.000 A 
ATOM      7  C   UNL     1      45.620  26.641  70.185  0.00  0.00    +0.000 A 
ATOM      8  C   UNL     1      45.387  21.944  70.441  0.00  0.00    +0.000 C 
ATOM      9  C   UNL     1      43.685  25.149  70.543  0.00  0.00    +0.000 A 
ATOM     10  C   UNL     1      47.736  22.592  70.061  0.00  0.00    +0.000 C 
ATOM     11  C   UNL     1      44.238  26.424  70.401  0.00  0.00    +0.000 A 
ATOM     12  H   UNL     1      43.328  22.344  70.728  0.00  0.00    +0.000 HD
ATOM     13  N   UNL     1      49.481  20.866  69.884  0.00  0.00    +0.000 N 
ATOM     14  C   UNL     1      49.079  22.176  69.880  0.00  0.00    +0.000 C 
ATOM     15  C   UNL     1      50.192  22.959  69.676  0.00  0.00    +0.000 C 
ATOM     16  C   UNL     1      50.834  20.804  69.685  0.00  0.00    +0.000 C 
ATOM     17  C   UNL     1      51.302  22.091  69.553  0.00  0.00    +0.000 C 
ATOM     18  H   UNL     1      48.870  20.070  70.014  0.00  0.00    +0.000 HD
ENDROOT
BRANCH   7  20
ATOM     19  N   UNL     1      47.903  29.487  69.224  0.00  0.00    +0.000 NA
ATOM     20  C   UNL     1      46.153  28.000  70.042  0.00  0.00    +0.000 A 
ATOM     21  C   UNL     1      45.486  29.117  70.550  0.00  0.00    +0.000 A 
ATOM     22  C   UNL     1      47.355  28.263  69.392  0.00  0.00    +0.000 A 
ATOM     23  C   UNL     1      46.007  30.398  70.404  0.00  0.00    +0.000 A 
ATOM     24  C   UNL     1      47.212  30.526  69.736  0.00  0.00    +0.000 A 
ENDBRANCH   7  20
TORSDOF 1
ENDMDL
MODEL 9
REMARK VINA RESULT:      -5.3     16.930     17.915
REMARK  Name = JAK3_Inhibitor.pdbqt.pdb
REMARK  1 active torsions:
REMARK  status: ('A' for Active; 'I' for Inactive)
REMARK    1  A    between atoms: C_7  and  C_20
REMARK                            x       y       z     vdW  Elec       q    Type
REMARK                         _______ _______ _______ _____ _____    ______ ____
ROOT
ATOM      1  O   UNL     1      51.762  22.890  86.874  0.00  0.00    +0.000 OA
ATOM      2  N   UNL     1      50.467  24.785  87.340  0.00  0.00    +0.000 N 
ATOM      3  C   UNL     1      48.792  24.542  85.792  0.00  0.00    +0.000 A 
ATOM      4  C   UNL     1      49.291  25.335  86.828  0.00  0.00    +0.000 A 
ATOM      5  C   UNL     1      49.722  23.434  85.659  0.00  0.00    +0.000 C 
ATOM      6  C   UNL     1      47.632  24.888  85.127  0.00  0.00    +0.000 A 
ATOM      7  C   UNL     1      46.951  26.056  85.510  0.00  0.00    +0.000 A 
ATOM      8  C   UNL     1      50.804  23.612  86.676  0.00  0.00    +0.000 C 
ATOM      9  C   UNL     1      48.660  26.488  87.239  0.00  0.00    +0.000 A 
ATOM     10  C   UNL     1      49.668  22.446  84.824  0.00  0.00    +0.000 C 
ATOM     11  C   UNL     1      47.486  26.833  86.565  0.00  0.00    +0.000 A 
ATOM     12  H   UNL     1      51.018  25.169  88.094  0.00  0.00    +0.000 HD
ATOM     13  N   UNL     1      50.607  20.361  83.915  0.00  0.00    +0.000 N 
ATOM     14  C   UNL     1      49.653  21.345  83.931  0.00  0.00    +0.000 C 
ATOM     15  C   UNL     1      48.729  21.054  82.954  0.00  0.00    +0.000 C 
ATOM     16  C   UNL     1      50.304  19.449  82.940  0.00  0.00    +0.000 C 
ATOM     17  C   UNL     1      49.141  19.855  82.327  0.00  0.00    +0.000 C 
ATOM     18  H   UNL     1      51.410  20.318  84.529  0.00  0.00    +0.000 HD
ENDROOT
BRANCH   7  20
ATOM     19  N   UNL     1      44.169  28.231  84.179  0.00  0.00    +0.000 NA
ATOM     20  C   UNL     1      45.714  26.462  84.833  0.00  0.00    +0.000 A 
ATOM     21  C   UNL     1      44.880  25.542  84.194  0.00  0.00    +0.000 A 
ATOM     22  C   UNL     1      45.294  27.787  84.784  0.00  0.00    +0.000 A 
ATOM     23  C   UNL     1      43.712  25.945  83.557  0.00  0.00    +0.000 A 
ATOM     24  C   UNL     1      43.405  27.294  83.579  0.00  0.00    +0.000 A 
ENDBRANCH   7  20
TORSDOF 1
ENDMDL
