MODEL 1
REMARK VINA RESULT:      -5.0      0.000      0.000
REMARK  Name = Leptomycin.pdbqt.pdb
REMARK  12 active torsions:
REMARK  status: ('A' for Active; 'I' for Inactive)
REMARK    1  A    between atoms: C_2  and  C_4
REMARK    2  A    between atoms: C_5  and  C_6
REMARK    3  A    between atoms: C_6  and  C_7
REMARK    4  A    between atoms: C_10  and  C_11
REMARK    5  A    between atoms: C_10  and  C_21
REMARK    6  A    between atoms: C_12  and  C_13
REMARK    7  A    between atoms: C_23  and  C_25
REMARK    8  A    between atoms: C_25  and  C_27
REMARK    9  A    between atoms: C_27  and  C_29
REMARK   10  A    between atoms: C_29  and  O_30
REMARK   11  A    between atoms: C_29  and  C_32
REMARK   12  A    between atoms: C_38  and  O_40
REMARK                            x       y       z     vdW  Elec       q    Type
REMARK                         _______ _______ _______ _____ _____    ______ ____
ROOT
ATOM      1  C   UNL     1      44.366  25.751  87.481  0.00  0.00    +0.000 C 
ATOM      2  C   UNL     1      44.166  24.498  87.227  0.00  0.00    +0.000 C 
ATOM      3  C   UNL     1      42.757  24.018  87.034  0.00  0.00    +0.000 C 
ATOM      4  C   UNL     1      44.647  27.121  87.711  0.00  0.00    +0.000 C 
ATOM      5  C   UNL     1      44.474  27.584  89.149  0.00  0.00    +0.000 C 
ENDROOT
BRANCH   2   6
ATOM      6  C   UNL     1      45.223  23.738  86.668  0.00  0.00    +0.000 C 
ATOM      7  C   UNL     1      46.160  23.125  86.233  0.00  0.00    +0.000 C 
BRANCH   7   8
ATOM      8  C   UNL     1      47.428  22.412  85.754  0.00  0.00    +0.000 C 
BRANCH   8   9
ATOM      9  C   UNL     1      48.701  21.908  85.392  0.00  0.00    +0.000 C 
ATOM     10  C   UNL     1      48.797  20.771  84.422  0.00  0.00    +0.000 C 
ATOM     11  C   UNL     1      49.882  22.383  86.012  0.00  0.00    +0.000 C 
ATOM     12  C   UNL     1      50.845  22.926  86.694  0.00  0.00    +0.000 C 
BRANCH  12  13
ATOM     13  C   UNL     1      50.441  23.830  87.713  0.00  0.00    +0.000 C 
ATOM     14  C   UNL     1      50.009  24.644  88.483  0.00  0.00    +0.000 C 
BRANCH  14  15
ATOM     15  C   UNL     1      49.407  25.638  89.296  0.00  0.00    +0.000 A 
ATOM     16  O   UNL     1      50.198  26.837  89.552  0.00  0.00    +0.000 OA
ATOM     17  C   UNL     1      49.709  27.901  90.305  0.00  0.00    +0.000 A 
ATOM     18  O   UNL     1      50.315  28.940  90.518  0.00  0.00    +0.000 OA
ATOM     19  C   UNL     1      48.385  27.643  90.790  0.00  0.00    +0.000 A 
ATOM     20  C   UNL     1      47.701  26.680  90.615  0.00  0.00    +0.000 A 
ATOM     21  C   UNL     1      48.058  25.537  89.866  0.00  0.00    +0.000 A 
ATOM     22  C   UNL     1      47.097  24.407  89.675  0.00  0.00    +0.000 C 
ENDBRANCH  14  15
ENDBRANCH  12  13
BRANCH  12  23
ATOM     23  C   UNL     1      52.185  22.575  86.400  0.00  0.00    +0.000 C 
ATOM     24  C   UNL     1      53.635  22.187  86.083  0.00  0.00    +0.000 C 
ENDBRANCH  12  23
ENDBRANCH   8   9
ENDBRANCH   7   8
ENDBRANCH   2   6
BRANCH   4  25
ATOM     25  C   UNL     1      45.564  27.841  86.774  0.00  0.00    +0.000 C 
ATOM     26  O   UNL     1      45.642  29.074  86.743  0.00  0.00    +0.000 OA
BRANCH  25  27
ATOM     27  C   UNL     1      46.354  27.005  85.820  0.00  0.00    +0.000 C 
ATOM     28  C   UNL     1      47.733  26.494  86.228  0.00  0.00    +0.000 C 
BRANCH  27  29
ATOM     29  C   UNL     1      45.924  26.942  84.426  0.00  0.00    +0.000 C 
BRANCH  29  30
ATOM     30  C   UNL     1      45.700  25.770  83.600  0.00  0.00    +0.000 C 
ATOM     31  C   UNL     1      46.858  25.102  82.890  0.00  0.00    +0.000 C 
ATOM     32  C   UNL     1      44.470  25.074  83.539  0.00  0.00    +0.000 C 
ATOM     33  C   UNL     1      43.266  24.348  83.425  0.00  0.00    +0.000 C 
ATOM     34  C   UNL     1      41.975  25.101  83.337  0.00  0.00    +0.000 C 
ATOM     35  C   UNL     1      43.271  23.062  83.515  0.00  0.00    +0.000 C 
ATOM     36  C   UNL     1      43.298  21.646  83.633  0.00  0.00    +0.000 C 
ATOM     37  O   UNL     1      43.704  21.073  84.627  0.00  0.00    +0.000 OA
BRANCH  36  38
ATOM     38  O   UNL     1      42.855  20.997  82.545  0.00  0.00    +0.000 OA
ATOM     39  H   UNL     1      43.630  20.487  82.231  0.00  0.00    +0.000 HD
ENDBRANCH  36  38
ENDBRANCH  29  30
BRANCH  29  40
ATOM     40  O   UNL     1      45.656  28.172  83.820  0.00  0.00    +0.000 OA
ATOM     41  H   UNL     1      46.374  28.445  83.213  0.00  0.00    +0.000 HD
ENDBRANCH  29  40
ENDBRANCH  27  29
ENDBRANCH  25  27
ENDBRANCH   4  25
TORSDOF 12
ENDMDL
MODEL 2
REMARK VINA RESULT:      -4.5     36.533     40.582
REMARK  Name = Leptomycin.pdbqt.pdb
REMARK  12 active torsions:
REMARK  status: ('A' for Active; 'I' for Inactive)
REMARK    1  A    between atoms: C_2  and  C_4
REMARK    2  A    between atoms: C_5  and  C_6
REMARK    3  A    between atoms: C_6  and  C_7
REMARK    4  A    between atoms: C_10  and  C_11
REMARK    5  A    between atoms: C_10  and  C_21
REMARK    6  A    between atoms: C_12  and  C_13
REMARK    7  A    between atoms: C_23  and  C_25
REMARK    8  A    between atoms: C_25  and  C_27
REMARK    9  A    between atoms: C_27  and  C_29
REMARK   10  A    between atoms: C_29  and  O_30
REMARK   11  A    between atoms: C_29  and  C_32
REMARK   12  A    between atoms: C_38  and  O_40
REMARK                            x       y       z     vdW  Elec       q    Type
REMARK                         _______ _______ _______ _____ _____    ______ ____
ROOT
ATOM      1  C   UNL     1      19.574   6.287 102.789  0.00  0.00    +0.000 C 
ATOM      2  C   UNL     1      18.515   6.611 103.458  0.00  0.00    +0.000 C 
ATOM      3  C   UNL     1      18.062   8.042 103.443  0.00  0.00    +0.000 C 
ATOM      4  C   UNL     1      20.698   5.868 102.035  0.00  0.00    +0.000 C 
ATOM      5  C   UNL     1      22.047   6.123 102.689  0.00  0.00    +0.000 C 
ENDROOT
BRANCH   2   6
ATOM      6  C   UNL     1      17.565   5.603 103.760  0.00  0.00    +0.000 C 
ATOM      7  C   UNL     1      16.743   4.749 103.953  0.00  0.00    +0.000 C 
BRANCH   7   8
ATOM      8  C   UNL     1      15.666   3.666 104.077  0.00  0.00    +0.000 C 
BRANCH   8   9
ATOM      9  C   UNL     1      14.779   2.563 104.056  0.00  0.00    +0.000 C 
ATOM     10  C   UNL     1      15.021   1.402 104.969  0.00  0.00    +0.000 C 
ATOM     11  C   UNL     1      13.727   2.485 103.110  0.00  0.00    +0.000 C 
ATOM     12  C   UNL     1      12.838   2.581 102.169  0.00  0.00    +0.000 C 
BRANCH  12  13
ATOM     13  C   UNL     1      12.978   3.699 101.302  0.00  0.00    +0.000 C 
ATOM     14  C   UNL     1      13.145   4.555 100.477  0.00  0.00    +0.000 C 
BRANCH  14  15
ATOM     15  C   UNL     1      13.382   5.465  99.415  0.00  0.00    +0.000 A 
ATOM     16  O   UNL     1      13.889   4.896  98.171  0.00  0.00    +0.000 OA
ATOM     17  C   UNL     1      14.130   5.676  97.044  0.00  0.00    +0.000 A 
ATOM     18  O   UNL     1      14.519   5.245  95.969  0.00  0.00    +0.000 OA
ATOM     19  C   UNL     1      13.844   7.060  97.285  0.00  0.00    +0.000 A 
ATOM     20  C   UNL     1      13.436   7.574  98.282  0.00  0.00    +0.000 A 
ATOM     21  C   UNL     1      13.135   6.910  99.492  0.00  0.00    +0.000 A 
ATOM     22  C   UNL     1      12.583   7.654 100.666  0.00  0.00    +0.000 C 
ENDBRANCH  14  15
ENDBRANCH  12  13
BRANCH  12  23
ATOM     23  C   UNL     1      11.835   1.586 102.060  0.00  0.00    +0.000 C 
ATOM     24  C   UNL     1      10.749   0.510 101.950  0.00  0.00    +0.000 C 
ENDBRANCH  12  23
ENDBRANCH   8   9
ENDBRANCH   7   8
ENDBRANCH   2   6
BRANCH   4  25
ATOM     25  C   UNL     1      20.526   4.786 101.016  0.00  0.00    +0.000 C 
ATOM     26  O   UNL     1      20.938   4.898  99.857  0.00  0.00    +0.000 OA
BRANCH  25  27
ATOM     27  C   UNL     1      19.773   3.567 101.441  0.00  0.00    +0.000 C 
ATOM     28  C   UNL     1      20.224   2.797 102.680  0.00  0.00    +0.000 C 
BRANCH  27  29
ATOM     29  C   UNL     1      18.818   2.977 100.509  0.00  0.00    +0.000 C 
BRANCH  29  30
ATOM     30  C   UNL     1      17.377   3.148 100.460  0.00  0.00    +0.000 C 
ATOM     31  C   UNL     1      16.771   4.535 100.462  0.00  0.00    +0.000 C 
ATOM     32  C   UNL     1      16.468   2.090 100.230  0.00  0.00    +0.000 C 
ATOM     33  C   UNL     1      15.511   1.075 100.019  0.00  0.00    +0.000 C 
ATOM     34  C   UNL     1      15.693  -0.242 100.709  0.00  0.00    +0.000 C 
ATOM     35  C   UNL     1      14.566   1.240  99.159  0.00  0.00    +0.000 C 
ATOM     36  C   UNL     1      13.542   1.437  98.193  0.00  0.00    +0.000 C 
ATOM     37  O   UNL     1      13.773   1.646  97.016  0.00  0.00    +0.000 OA
BRANCH  36  38
ATOM     38  O   UNL     1      12.298   1.393  98.696  0.00  0.00    +0.000 OA
ATOM     39  H   UNL     1      11.759   1.909  98.062  0.00  0.00    +0.000 HD
ENDBRANCH  36  38
ENDBRANCH  29  30
BRANCH  29  40
ATOM     40  O   UNL     1      19.367   2.170  99.510  0.00  0.00    +0.000 OA
ATOM     41  H   UNL     1      20.119   2.607  99.058  0.00  0.00    +0.000 HD
ENDBRANCH  29  40
ENDBRANCH  27  29
ENDBRANCH  25  27
ENDBRANCH   4  25
TORSDOF 12
ENDMDL
MODEL 3
REMARK VINA RESULT:      -4.4     22.994     27.094
REMARK  Name = Leptomycin.pdbqt.pdb
REMARK  12 active torsions:
REMARK  status: ('A' for Active; 'I' for Inactive)
REMARK    1  A    between atoms: C_2  and  C_4
REMARK    2  A    between atoms: C_5  and  C_6
REMARK    3  A    between atoms: C_6  and  C_7
REMARK    4  A    between atoms: C_10  and  C_11
REMARK    5  A    between atoms: C_10  and  C_21
REMARK    6  A    between atoms: C_12  and  C_13
REMARK    7  A    between atoms: C_23  and  C_25
REMARK    8  A    between atoms: C_25  and  C_27
REMARK    9  A    between atoms: C_27  and  C_29
REMARK   10  A    between atoms: C_29  and  O_30
REMARK   11  A    between atoms: C_29  and  C_32
REMARK   12  A    between atoms: C_38  and  O_40
REMARK                            x       y       z     vdW  Elec       q    Type
REMARK                         _______ _______ _______ _____ _____    ______ ____
ROOT
ATOM      1  C   UNL     1      18.503  19.018  90.242  0.00  0.00    +0.000 C 
ATOM      2  C   UNL     1      18.308  20.250  90.584  0.00  0.00    +0.000 C 
ATOM      3  C   UNL     1      16.993  20.627  91.203  0.00  0.00    +0.000 C 
ATOM      4  C   UNL     1      18.789  17.674  89.894  0.00  0.00    +0.000 C 
ATOM      5  C   UNL     1      18.224  17.218  88.558  0.00  0.00    +0.000 C 
ENDROOT
BRANCH   2   6
ATOM      6  C   UNL     1      19.432  21.076  90.829  0.00  0.00    +0.000 C 
ATOM      7  C   UNL     1      20.355  21.825  91.007  0.00  0.00    +0.000 C 
BRANCH   7   8
ATOM      8  C   UNL     1      21.465  22.868  91.170  0.00  0.00    +0.000 C 
BRANCH   8   9
ATOM      9  C   UNL     1      22.540  23.789  91.130  0.00  0.00    +0.000 C 
ATOM     10  C   UNL     1      22.784  24.585  89.885  0.00  0.00    +0.000 C 
ATOM     11  C   UNL     1      23.456  23.896  92.204  0.00  0.00    +0.000 C 
ATOM     12  C   UNL     1      24.197  23.842  93.269  0.00  0.00    +0.000 C 
BRANCH  12  13
ATOM     13  C   UNL     1      23.854  22.831  94.207  0.00  0.00    +0.000 C 
ATOM     14  C   UNL     1      23.553  22.078  95.092  0.00  0.00    +0.000 C 
BRANCH  14  15
ATOM     15  C   UNL     1      23.180  21.299  96.218  0.00  0.00    +0.000 A 
ATOM     16  O   UNL     1      22.297  21.938  97.187  0.00  0.00    +0.000 OA
ATOM     17  C   UNL     1      21.831  21.272  98.317  0.00  0.00    +0.000 A 
ATOM     18  O   UNL     1      21.063  21.748  99.139  0.00  0.00    +0.000 OA
ATOM     19  C   UNL     1      22.345  19.936  98.395  0.00  0.00    +0.000 A 
ATOM     20  C   UNL     1      23.072  19.371  97.634  0.00  0.00    +0.000 A 
ATOM     21  C   UNL     1      23.610  19.914  96.446  0.00  0.00    +0.000 A 
ATOM     22  C   UNL     1      24.475  19.093  95.544  0.00  0.00    +0.000 C 
ENDBRANCH  14  15
ENDBRANCH  12  13
BRANCH  12  23
ATOM     23  C   UNL     1      25.275  24.752  93.409  0.00  0.00    +0.000 C 
ATOM     24  C   UNL     1      26.442  25.735  93.553  0.00  0.00    +0.000 C 
ENDBRANCH  12  23
ENDBRANCH   8   9
ENDBRANCH   7   8
ENDBRANCH   2   6
BRANCH   4  25
ATOM     25  C   UNL     1      19.988  17.009  90.492  0.00  0.00    +0.000 C 
ATOM     26  O   UNL     1      19.910  15.946  91.117  0.00  0.00    +0.000 OA
BRANCH  25  27
ATOM     27  C   UNL     1      21.296  17.718  90.356  0.00  0.00    +0.000 C 
ATOM     28  C   UNL     1      21.867  17.987  88.966  0.00  0.00    +0.000 C 
BRANCH  27  29
ATOM     29  C   UNL     1      22.132  17.873  91.542  0.00  0.00    +0.000 C 
BRANCH  29  30
ATOM     30  C   UNL     1      22.275  19.033  92.404  0.00  0.00    +0.000 C 
ATOM     31  C   UNL     1      23.328  20.080  92.108  0.00  0.00    +0.000 C 
ATOM     32  C   UNL     1      21.366  19.361  93.436  0.00  0.00    +0.000 C 
ATOM     33  C   UNL     1      20.504  19.734  94.489  0.00  0.00    +0.000 C 
ATOM     34  C   UNL     1      19.981  18.669  95.403  0.00  0.00    +0.000 C 
ATOM     35  C   UNL     1      20.084  20.948  94.587  0.00  0.00    +0.000 C 
ATOM     36  C   UNL     1      19.618  22.289  94.666  0.00  0.00    +0.000 C 
ATOM     37  O   UNL     1      18.979  22.821  93.778  0.00  0.00    +0.000 OA
BRANCH  36  38
ATOM     38  O   UNL     1      19.965  22.923  95.797  0.00  0.00    +0.000 OA
ATOM     39  H   UNL     1      20.754  22.440  96.117  0.00  0.00    +0.000 HD
ENDBRANCH  36  38
ENDBRANCH  29  30
BRANCH  29  40
ATOM     40  O   UNL     1      22.863  16.744  91.920  0.00  0.00    +0.000 OA
ATOM     41  H   UNL     1      23.821  16.933  91.987  0.00  0.00    +0.000 HD
ENDBRANCH  29  40
ENDBRANCH  27  29
ENDBRANCH  25  27
ENDBRANCH   4  25
TORSDOF 12
ENDMDL
MODEL 4
REMARK VINA RESULT:      -4.3      3.056      8.087
REMARK  Name = Leptomycin.pdbqt.pdb
REMARK  12 active torsions:
REMARK  status: ('A' for Active; 'I' for Inactive)
REMARK    1  A    between atoms: C_2  and  C_4
REMARK    2  A    between atoms: C_5  and  C_6
REMARK    3  A    between atoms: C_6  and  C_7
REMARK    4  A    between atoms: C_10  and  C_11
REMARK    5  A    between atoms: C_10  and  C_21
REMARK    6  A    between atoms: C_12  and  C_13
REMARK    7  A    between atoms: C_23  and  C_25
REMARK    8  A    between atoms: C_25  and  C_27
REMARK    9  A    between atoms: C_27  and  C_29
REMARK   10  A    between atoms: C_29  and  O_30
REMARK   11  A    between atoms: C_29  and  C_32
REMARK   12  A    between atoms: C_38  and  O_40
REMARK                            x       y       z     vdW  Elec       q    Type
REMARK                         _______ _______ _______ _____ _____    ______ ____
ROOT
ATOM      1  C   UNL     1      46.112  24.058  87.339  0.00  0.00    +0.000 C 
ATOM      2  C   UNL     1      44.933  24.287  87.819  0.00  0.00    +0.000 C 
ATOM      3  C   UNL     1      44.812  25.079  89.088  0.00  0.00    +0.000 C 
ATOM      4  C   UNL     1      47.376  23.820  86.743  0.00  0.00    +0.000 C 
ATOM      5  C   UNL     1      48.165  22.664  87.338  0.00  0.00    +0.000 C 
ENDROOT
BRANCH   2   6
ATOM      6  C   UNL     1      43.819  24.236  86.944  0.00  0.00    +0.000 C 
ATOM      7  C   UNL     1      42.902  24.140  86.174  0.00  0.00    +0.000 C 
BRANCH   7   8
ATOM      8  C   UNL     1      41.791  23.919  85.143  0.00  0.00    +0.000 C 
BRANCH   8   9
ATOM      9  C   UNL     1      40.698  23.570  84.313  0.00  0.00    +0.000 C 
ATOM     10  C   UNL     1      39.395  24.293  84.465  0.00  0.00    +0.000 C 
ATOM     11  C   UNL     1      40.776  22.476  83.417  0.00  0.00    +0.000 C 
ATOM     12  C   UNL     1      41.027  21.442  82.673  0.00  0.00    +0.000 C 
BRANCH  12  13
ATOM     13  C   UNL     1      42.283  20.816  82.894  0.00  0.00    +0.000 C 
ATOM     14  C   UNL     1      43.275  20.188  83.147  0.00  0.00    +0.000 C 
BRANCH  14  15
ATOM     15  C   UNL     1      44.364  19.352  83.503  0.00  0.00    +0.000 A 
ATOM     16  O   UNL     1      44.842  18.434  82.475  0.00  0.00    +0.000 OA
ATOM     17  C   UNL     1      45.925  17.584  82.685  0.00  0.00    +0.000 A 
ATOM     18  O   UNL     1      46.387  16.825  81.848  0.00  0.00    +0.000 OA
ATOM     19  C   UNL     1      46.457  17.722  84.009  0.00  0.00    +0.000 A 
ATOM     20  C   UNL     1      46.099  18.450  84.885  0.00  0.00    +0.000 A 
ATOM     21  C   UNL     1      45.030  19.371  84.811  0.00  0.00    +0.000 A 
ATOM     22  C   UNL     1      44.702  20.268  85.961  0.00  0.00    +0.000 C 
ENDBRANCH  14  15
ENDBRANCH  12  13
BRANCH  12  23
ATOM     23  C   UNL     1      40.054  21.010  81.738  0.00  0.00    +0.000 C 
ATOM     24  C   UNL     1      39.006  20.545  80.720  0.00  0.00    +0.000 C 
ENDBRANCH  12  23
ENDBRANCH   8   9
ENDBRANCH   7   8
ENDBRANCH   2   6
BRANCH   4  25
ATOM     25  C   UNL     1      47.611  24.271  85.336  0.00  0.00    +0.000 C 
ATOM     26  O   UNL     1      48.722  24.634  84.936  0.00  0.00    +0.000 OA
BRANCH  25  27
ATOM     27  C   UNL     1      46.422  24.325  84.433  0.00  0.00    +0.000 C 
ATOM     28  C   UNL     1      45.807  23.025  83.919  0.00  0.00    +0.000 C 
BRANCH  27  29
ATOM     29  C   UNL     1      46.061  25.604  83.830  0.00  0.00    +0.000 C 
BRANCH  29  30
ATOM     30  C   UNL     1      44.931  26.462  84.137  0.00  0.00    +0.000 C 
ATOM     31  C   UNL     1      43.707  26.463  83.247  0.00  0.00    +0.000 C 
ATOM     32  C   UNL     1      44.808  27.199  85.338  0.00  0.00    +0.000 C 
ATOM     33  C   UNL     1      44.633  27.967  86.508  0.00  0.00    +0.000 C 
ATOM     34  C   UNL     1      45.809  28.708  87.066  0.00  0.00    +0.000 C 
ATOM     35  C   UNL     1      43.515  27.934  87.148  0.00  0.00    +0.000 C 
ATOM     36  C   UNL     1      42.279  27.871  87.847  0.00  0.00    +0.000 C 
ATOM     37  O   UNL     1      41.828  26.835  88.300  0.00  0.00    +0.000 OA
BRANCH  36  38
ATOM     38  O   UNL     1      41.643  29.049  87.943  0.00  0.00    +0.000 OA
ATOM     39  H   UNL     1      41.453  29.302  87.016  0.00  0.00    +0.000 HD
ENDBRANCH  36  38
ENDBRANCH  29  30
BRANCH  29  40
ATOM     40  O   UNL     1      46.940  26.083  82.856  0.00  0.00    +0.000 OA
ATOM     41  H   UNL     1      46.637  26.935  82.477  0.00  0.00    +0.000 HD
ENDBRANCH  29  40
ENDBRANCH  27  29
ENDBRANCH  25  27
ENDBRANCH   4  25
TORSDOF 12
ENDMDL
MODEL 5
REMARK VINA RESULT:      -4.1      4.088      8.356
REMARK  Name = Leptomycin.pdbqt.pdb
REMARK  12 active torsions:
REMARK  status: ('A' for Active; 'I' for Inactive)
REMARK    1  A    between atoms: C_2  and  C_4
REMARK    2  A    between atoms: C_5  and  C_6
REMARK    3  A    between atoms: C_6  and  C_7
REMARK    4  A    between atoms: C_10  and  C_11
REMARK    5  A    between atoms: C_10  and  C_21
REMARK    6  A    between atoms: C_12  and  C_13
REMARK    7  A    between atoms: C_23  and  C_25
REMARK    8  A    between atoms: C_25  and  C_27
REMARK    9  A    between atoms: C_27  and  C_29
REMARK   10  A    between atoms: C_29  and  O_30
REMARK   11  A    between atoms: C_29  and  C_32
REMARK   12  A    between atoms: C_38  and  O_40
REMARK                            x       y       z     vdW  Elec       q    Type
REMARK                         _______ _______ _______ _____ _____    ______ ____
ROOT
ATOM      1  C   UNL     1      46.139  24.027  87.401  0.00  0.00    +0.000 C 
ATOM      2  C   UNL     1      44.972  24.294  87.889  0.00  0.00    +0.000 C 
ATOM      3  C   UNL     1      44.882  25.173  89.103  0.00  0.00    +0.000 C 
ATOM      4  C   UNL     1      47.389  23.743  86.794  0.00  0.00    +0.000 C 
ATOM      5  C   UNL     1      48.187  22.628  87.451  0.00  0.00    +0.000 C 
ENDROOT
BRANCH   2   6
ATOM      6  C   UNL     1      43.839  24.188  87.045  0.00  0.00    +0.000 C 
ATOM      7  C   UNL     1      42.903  24.042  86.306  0.00  0.00    +0.000 C 
BRANCH   7   8
ATOM      8  C   UNL     1      41.767  23.752  85.321  0.00  0.00    +0.000 C 
BRANCH   8   9
ATOM      9  C   UNL     1      40.650  23.353  84.546  0.00  0.00    +0.000 C 
ATOM     10  C   UNL     1      40.564  23.761  83.108  0.00  0.00    +0.000 C 
ATOM     11  C   UNL     1      39.558  22.667  85.132  0.00  0.00    +0.000 C 
ATOM     12  C   UNL     1      38.653  22.064  85.840  0.00  0.00    +0.000 C 
BRANCH  12  13
ATOM     13  C   UNL     1      38.904  22.004  87.238  0.00  0.00    +0.000 C 
ATOM     14  C   UNL     1      39.047  22.072  88.428  0.00  0.00    +0.000 C 
BRANCH  14  15
ATOM     15  C   UNL     1      39.137  22.266  89.830  0.00  0.00    +0.000 A 
ATOM     16  O   UNL     1      37.965  21.893  90.615  0.00  0.00    +0.000 OA
ATOM     17  C   UNL     1      37.937  22.003  92.003  0.00  0.00    +0.000 A 
ATOM     18  O   UNL     1      36.996  21.672  92.708  0.00  0.00    +0.000 OA
ATOM     19  C   UNL     1      39.165  22.533  92.518  0.00  0.00    +0.000 A 
ATOM     20  C   UNL     1      40.146  22.857  91.920  0.00  0.00    +0.000 A 
ATOM     21  C   UNL     1      40.322  22.790  90.520  0.00  0.00    +0.000 A 
ATOM     22  C   UNL     1      41.618  23.182  89.884  0.00  0.00    +0.000 C 
ENDBRANCH  14  15
ENDBRANCH  12  13
BRANCH  12  23
ATOM     23  C   UNL     1      37.503  21.543  85.196  0.00  0.00    +0.000 C 
ATOM     24  C   UNL     1      36.261  20.973  84.501  0.00  0.00    +0.000 C 
ENDBRANCH  12  23
ENDBRANCH   8   9
ENDBRANCH   7   8
ENDBRANCH   2   6
BRANCH   4  25
ATOM     25  C   UNL     1      47.593  24.095  85.355  0.00  0.00    +0.000 C 
ATOM     26  O   UNL     1      48.702  24.394  84.899  0.00  0.00    +0.000 OA
BRANCH  25  27
ATOM     27  C   UNL     1      46.378  24.129  84.485  0.00  0.00    +0.000 C 
ATOM     28  C   UNL     1      45.723  22.819  84.054  0.00  0.00    +0.000 C 
BRANCH  27  29
ATOM     29  C   UNL     1      46.024  25.385  83.832  0.00  0.00    +0.000 C 
BRANCH  29  30
ATOM     30  C   UNL     1      44.889  26.252  84.093  0.00  0.00    +0.000 C 
ATOM     31  C   UNL     1      43.662  26.194  83.209  0.00  0.00    +0.000 C 
ATOM     32  C   UNL     1      44.765  27.056  85.250  0.00  0.00    +0.000 C 
ATOM     33  C   UNL     1      44.590  27.889  86.375  0.00  0.00    +0.000 C 
ATOM     34  C   UNL     1      45.763  28.669  86.884  0.00  0.00    +0.000 C 
ATOM     35  C   UNL     1      43.474  27.887  87.019  0.00  0.00    +0.000 C 
ATOM     36  C   UNL     1      42.240  27.856  87.725  0.00  0.00    +0.000 C 
ATOM     37  O   UNL     1      41.798  26.845  88.240  0.00  0.00    +0.000 OA
BRANCH  36  38
ATOM     38  O   UNL     1      41.597  29.033  87.756  0.00  0.00    +0.000 OA
ATOM     39  H   UNL     1      41.403  29.231  86.816  0.00  0.00    +0.000 HD
ENDBRANCH  36  38
ENDBRANCH  29  30
BRANCH  29  40
ATOM     40  O   UNL     1      46.914  25.829  82.851  0.00  0.00    +0.000 OA
ATOM     41  H   UNL     1      46.615  26.666  82.438  0.00  0.00    +0.000 HD
ENDBRANCH  29  40
ENDBRANCH  27  29
ENDBRANCH  25  27
ENDBRANCH   4  25
TORSDOF 12
ENDMDL
MODEL 6
REMARK VINA RESULT:      -4.0     21.727     24.840
REMARK  Name = Leptomycin.pdbqt.pdb
REMARK  12 active torsions:
REMARK  status: ('A' for Active; 'I' for Inactive)
REMARK    1  A    between atoms: C_2  and  C_4
REMARK    2  A    between atoms: C_5  and  C_6
REMARK    3  A    between atoms: C_6  and  C_7
REMARK    4  A    between atoms: C_10  and  C_11
REMARK    5  A    between atoms: C_10  and  C_21
REMARK    6  A    between atoms: C_12  and  C_13
REMARK    7  A    between atoms: C_23  and  C_25
REMARK    8  A    between atoms: C_25  and  C_27
REMARK    9  A    between atoms: C_27  and  C_29
REMARK   10  A    between atoms: C_29  and  O_30
REMARK   11  A    between atoms: C_29  and  C_32
REMARK   12  A    between atoms: C_38  and  O_40
REMARK                            x       y       z     vdW  Elec       q    Type
REMARK                         _______ _______ _______ _____ _____    ______ ____
ROOT
ATOM      1  C   UNL     1      65.386  40.549  74.039  0.00  0.00    +0.000 C 
ATOM      2  C   UNL     1      64.195  40.154  73.724  0.00  0.00    +0.000 C 
ATOM      3  C   UNL     1      63.220  41.160  73.185  0.00  0.00    +0.000 C 
ATOM      4  C   UNL     1      66.719  40.918  74.352  0.00  0.00    +0.000 C 
ATOM      5  C   UNL     1      66.905  41.573  75.712  0.00  0.00    +0.000 C 
ENDROOT
BRANCH   2   6
ATOM      6  C   UNL     1      63.988  38.784  73.428  0.00  0.00    +0.000 C 
ATOM      7  C   UNL     1      63.802  37.612  73.240  0.00  0.00    +0.000 C 
BRANCH   7   8
ATOM      8  C   UNL     1      63.548  36.106  73.124  0.00  0.00    +0.000 C 
BRANCH   8   9
ATOM      9  C   UNL     1      63.483  34.707  72.910  0.00  0.00    +0.000 C 
ATOM     10  C   UNL     1      64.676  33.988  72.362  0.00  0.00    +0.000 C 
ATOM     11  C   UNL     1      62.275  33.991  73.099  0.00  0.00    +0.000 C 
ATOM     12  C   UNL     1      61.088  33.511  73.308  0.00  0.00    +0.000 C 
BRANCH  12  13
ATOM     13  C   UNL     1      60.083  34.468  73.614  0.00  0.00    +0.000 C 
ATOM     14  C   UNL     1      59.333  35.350  73.932  0.00  0.00    +0.000 C 
BRANCH  14  15
ATOM     15  C   UNL     1      58.557  36.459  74.357  0.00  0.00    +0.000 A 
ATOM     16  O   UNL     1      57.108  36.303  74.289  0.00  0.00    +0.000 OA
ATOM     17  C   UNL     1      56.235  37.304  74.708  0.00  0.00    +0.000 A 
ATOM     18  O   UNL     1      55.017  37.211  74.706  0.00  0.00    +0.000 OA
ATOM     19  C   UNL     1      56.940  38.464  75.171  0.00  0.00    +0.000 A 
ATOM     20  C   UNL     1      58.118  38.641  75.240  0.00  0.00    +0.000 A 
ATOM     21  C   UNL     1      59.118  37.716  74.865  0.00  0.00    +0.000 A 
ATOM     22  C   UNL     1      60.569  38.033  75.042  0.00  0.00    +0.000 C 
ENDBRANCH  14  15
ENDBRANCH  12  13
BRANCH  12  23
ATOM     23  C   UNL     1      60.877  32.114  73.200  0.00  0.00    +0.000 C 
ATOM     24  C   UNL     1      60.645  30.602  73.091  0.00  0.00    +0.000 C 
ENDBRANCH  12  23
ENDBRANCH   8   9
ENDBRANCH   7   8
ENDBRANCH   2   6
BRANCH   4  25
ATOM     25  C   UNL     1      67.847  40.202  73.679  0.00  0.00    +0.000 C 
ATOM     26  O   UNL     1      67.928  40.107  72.450  0.00  0.00    +0.000 OA
BRANCH  25  27
ATOM     27  C   UNL     1      68.857  39.545  74.561  0.00  0.00    +0.000 C 
ATOM     28  C   UNL     1      70.205  40.223  74.799  0.00  0.00    +0.000 C 
BRANCH  27  29
ATOM     29  C   UNL     1      68.655  38.149  74.934  0.00  0.00    +0.000 C 
BRANCH  29  30
ATOM     30  C   UNL     1      67.508  37.298  74.670  0.00  0.00    +0.000 C 
ATOM     31  C   UNL     1      67.536  36.311  73.524  0.00  0.00    +0.000 C 
ATOM     32  C   UNL     1      66.392  37.194  75.533  0.00  0.00    +0.000 C 
ATOM     33  C   UNL     1      65.247  37.058  76.344  0.00  0.00    +0.000 C 
ATOM     34  C   UNL     1      64.649  38.285  76.960  0.00  0.00    +0.000 C 
ATOM     35  C   UNL     1      64.797  35.888  76.643  0.00  0.00    +0.000 C 
ATOM     36  C   UNL     1      64.326  34.588  76.974  0.00  0.00    +0.000 C 
ATOM     37  O   UNL     1      65.006  33.770  77.567  0.00  0.00    +0.000 OA
BRANCH  36  38
ATOM     38  O   UNL     1      63.076  34.335  76.557  0.00  0.00    +0.000 OA
ATOM     39  H   UNL     1      62.823  33.513  77.026  0.00  0.00    +0.000 HD
ENDBRANCH  36  38
ENDBRANCH  29  30
BRANCH  29  40
ATOM     40  O   UNL     1      69.721  37.540  75.601  0.00  0.00    +0.000 OA
ATOM     41  H   UNL     1      70.500  37.425  75.018  0.00  0.00    +0.000 HD
ENDBRANCH  29  40
ENDBRANCH  27  29
ENDBRANCH  25  27
ENDBRANCH   4  25
TORSDOF 12
ENDMDL
MODEL 7
REMARK VINA RESULT:      -3.9      9.650     13.988
REMARK  Name = Leptomycin.pdbqt.pdb
REMARK  12 active torsions:
REMARK  status: ('A' for Active; 'I' for Inactive)
REMARK    1  A    between atoms: C_2  and  C_4
REMARK    2  A    between atoms: C_5  and  C_6
REMARK    3  A    between atoms: C_6  and  C_7
REMARK    4  A    between atoms: C_10  and  C_11
REMARK    5  A    between atoms: C_10  and  C_21
REMARK    6  A    between atoms: C_12  and  C_13
REMARK    7  A    between atoms: C_23  and  C_25
REMARK    8  A    between atoms: C_25  and  C_27
REMARK    9  A    between atoms: C_27  and  C_29
REMARK   10  A    between atoms: C_29  and  O_30
REMARK   11  A    between atoms: C_29  and  C_32
REMARK   12  A    between atoms: C_38  and  O_40
REMARK                            x       y       z     vdW  Elec       q    Type
REMARK                         _______ _______ _______ _____ _____    ______ ____
ROOT
ATOM      1  C   UNL     1      53.279  15.390  77.028  0.00  0.00    +0.000 C 
ATOM      2  C   UNL     1      54.110  16.345  77.294  0.00  0.00    +0.000 C 
ATOM      3  C   UNL     1      54.677  17.145  76.158  0.00  0.00    +0.000 C 
ATOM      4  C   UNL     1      52.327  14.365  76.797  0.00  0.00    +0.000 C 
ATOM      5  C   UNL     1      52.909  13.027  76.369  0.00  0.00    +0.000 C 
ENDROOT
BRANCH   2   6
ATOM      6  C   UNL     1      54.091  16.924  78.587  0.00  0.00    +0.000 C 
ATOM      7  C   UNL     1      54.072  17.474  79.655  0.00  0.00    +0.000 C 
BRANCH   7   8
ATOM      8  C   UNL     1      54.049  18.285  80.954  0.00  0.00    +0.000 C 
BRANCH   8   9
ATOM      9  C   UNL     1      54.148  18.892  82.230  0.00  0.00    +0.000 C 
ATOM     10  C   UNL     1      52.908  19.115  83.040  0.00  0.00    +0.000 C 
ATOM     11  C   UNL     1      55.382  19.394  82.710  0.00  0.00    +0.000 C 
ATOM     12  C   UNL     1      56.585  19.805  82.973  0.00  0.00    +0.000 C 
BRANCH  12  13
ATOM     13  C   UNL     1      57.529  19.655  81.922  0.00  0.00    +0.000 C 
ATOM     14  C   UNL     1      58.365  19.412  81.094  0.00  0.00    +0.000 C 
BRANCH  14  15
ATOM     15  C   UNL     1      59.373  19.005  80.183  0.00  0.00    +0.000 A 
ATOM     16  O   UNL     1      59.144  17.747  79.479  0.00  0.00    +0.000 OA
ATOM     17  C   UNL     1      60.040  17.254  78.535  0.00  0.00    +0.000 A 
ATOM     18  O   UNL     1      59.879  16.227  77.893  0.00  0.00    +0.000 OA
ATOM     19  C   UNL     1      61.177  18.113  78.382  0.00  0.00    +0.000 A 
ATOM     20  C   UNL     1      61.412  19.144  78.936  0.00  0.00    +0.000 A 
ATOM     21  C   UNL     1      60.594  19.769  79.903  0.00  0.00    +0.000 A 
ATOM     22  C   UNL     1      60.970  21.090  80.496  0.00  0.00    +0.000 C 
ENDBRANCH  14  15
ENDBRANCH  12  13
BRANCH  12  23
ATOM     23  C   UNL     1      56.861  20.374  84.241  0.00  0.00    +0.000 C 
ATOM     24  C   UNL     1      57.164  20.996  85.609  0.00  0.00    +0.000 C 
ENDBRANCH  12  23
ENDBRANCH   8   9
ENDBRANCH   7   8
ENDBRANCH   2   6
BRANCH   4  25
ATOM     25  C   UNL     1      50.995  14.447  77.472  0.00  0.00    +0.000 C 
ATOM     26  O   UNL     1      50.431  13.454  77.943  0.00  0.00    +0.000 OA
BRANCH  25  27
ATOM     27  C   UNL     1      50.332  15.786  77.505  0.00  0.00    +0.000 C 
ATOM     28  C   UNL     1      49.961  16.476  76.194  0.00  0.00    +0.000 C 
BRANCH  27  29
ATOM     29  C   UNL     1      50.321  16.529  78.761  0.00  0.00    +0.000 C 
BRANCH  29  30
ATOM     30  C   UNL     1      50.248  17.965  78.963  0.00  0.00    +0.000 C 
ATOM     31  C   UNL     1      49.372  18.539  80.056  0.00  0.00    +0.000 C 
ATOM     32  C   UNL     1      51.090  18.894  78.310  0.00  0.00    +0.000 C 
ATOM     33  C   UNL     1      51.890  19.870  77.680  0.00  0.00    +0.000 C 
ATOM     34  C   UNL     1      52.184  19.727  76.218  0.00  0.00    +0.000 C 
ATOM     35  C   UNL     1      52.452  20.798  78.375  0.00  0.00    +0.000 C 
ATOM     36  C   UNL     1      53.077  21.804  79.163  0.00  0.00    +0.000 C 
ATOM     37  O   UNL     1      53.860  21.550  80.059  0.00  0.00    +0.000 OA
BRANCH  36  38
ATOM     38  O   UNL     1      52.710  23.055  78.845  0.00  0.00    +0.000 OA
ATOM     39  H   UNL     1      53.554  23.525  78.686  0.00  0.00    +0.000 HD
ENDBRANCH  36  38
ENDBRANCH  29  30
BRANCH  29  40
ATOM     40  O   UNL     1      50.347  15.753  79.923  0.00  0.00    +0.000 OA
ATOM     41  H   UNL     1      49.888  14.897  79.802  0.00  0.00    +0.000 HD
ENDBRANCH  29  40
ENDBRANCH  27  29
ENDBRANCH  25  27
ENDBRANCH   4  25
TORSDOF 12
ENDMDL
MODEL 8
REMARK VINA RESULT:      -3.6     24.211     28.477
REMARK  Name = Leptomycin.pdbqt.pdb
REMARK  12 active torsions:
REMARK  status: ('A' for Active; 'I' for Inactive)
REMARK    1  A    between atoms: C_2  and  C_4
REMARK    2  A    between atoms: C_5  and  C_6
REMARK    3  A    between atoms: C_6  and  C_7
REMARK    4  A    between atoms: C_10  and  C_11
REMARK    5  A    between atoms: C_10  and  C_21
REMARK    6  A    between atoms: C_12  and  C_13
REMARK    7  A    between atoms: C_23  and  C_25
REMARK    8  A    between atoms: C_25  and  C_27
REMARK    9  A    between atoms: C_27  and  C_29
REMARK   10  A    between atoms: C_29  and  O_30
REMARK   11  A    between atoms: C_29  and  C_32
REMARK   12  A    between atoms: C_38  and  O_40
REMARK                            x       y       z     vdW  Elec       q    Type
REMARK                         _______ _______ _______ _____ _____    ______ ____
ROOT
ATOM      1  C   UNL     1      21.613  19.947  96.873  0.00  0.00    +0.000 C 
ATOM      2  C   UNL     1      20.471  19.713  96.314  0.00  0.00    +0.000 C 
ATOM      3  C   UNL     1      19.274  20.501  96.763  0.00  0.00    +0.000 C 
ATOM      4  C   UNL     1      22.899  20.197  97.417  0.00  0.00    +0.000 C 
ATOM      5  C   UNL     1      23.176  19.530  98.755  0.00  0.00    +0.000 C 
ENDROOT
BRANCH   2   6
ATOM      6  C   UNL     1      20.450  19.126  95.025  0.00  0.00    +0.000 C 
ATOM      7  C   UNL     1      20.452  18.572  93.959  0.00  0.00    +0.000 C 
BRANCH   7   8
ATOM      8  C   UNL     1      20.497  17.763  92.659  0.00  0.00    +0.000 C 
BRANCH   8   9
ATOM      9  C   UNL     1      20.626  16.870  91.567  0.00  0.00    +0.000 C 
ATOM     10  C   UNL     1      21.694  15.821  91.592  0.00  0.00    +0.000 C 
ATOM     11  C   UNL     1      19.835  17.018  90.401  0.00  0.00    +0.000 C 
ATOM     12  C   UNL     1      19.041  17.317  89.419  0.00  0.00    +0.000 C 
BRANCH  12  13
ATOM     13  C   UNL     1      18.281  18.506  89.583  0.00  0.00    +0.000 C 
ATOM     14  C   UNL     1      17.654  19.493  89.857  0.00  0.00    +0.000 C 
BRANCH  14  15
ATOM     15  C   UNL     1      16.944  20.634  90.313  0.00  0.00    +0.000 A 
ATOM     16  O   UNL     1      16.330  21.471  89.287  0.00  0.00    +0.000 OA
ATOM     17  C   UNL     1      15.578  22.599  89.604  0.00  0.00    +0.000 A 
ATOM     18  O   UNL     1      15.015  23.311  88.787  0.00  0.00    +0.000 OA
ATOM     19  C   UNL     1      15.521  22.818  91.019  0.00  0.00    +0.000 A 
ATOM     20  C   UNL     1      16.009  22.169  91.894  0.00  0.00    +0.000 A 
ATOM     21  C   UNL     1      16.782  20.999  91.725  0.00  0.00    +0.000 A 
ATOM     22  C   UNL     1      17.304  20.240  92.903  0.00  0.00    +0.000 C 
ENDBRANCH  14  15
ENDBRANCH  12  13
BRANCH  12  23
ATOM     23  C   UNL     1      19.003  16.477  88.279  0.00  0.00    +0.000 C 
ATOM     24  C   UNL     1      18.955  15.570  87.043  0.00  0.00    +0.000 C 
ENDBRANCH  12  23
ENDBRANCH   8   9
ENDBRANCH   7   8
ENDBRANCH   2   6
BRANCH   4  25
ATOM     25  C   UNL     1      24.016  20.571  96.494  0.00  0.00    +0.000 C 
ATOM     26  O   UNL     1      24.612  19.735  95.806  0.00  0.00    +0.000 OA
BRANCH  25  27
ATOM     27  C   UNL     1      24.431  22.006  96.478  0.00  0.00    +0.000 C 
ATOM     28  C   UNL     1      25.661  22.444  97.270  0.00  0.00    +0.000 C 
BRANCH  27  29
ATOM     29  C   UNL     1      23.497  22.997  95.954  0.00  0.00    +0.000 C 
BRANCH  29  30
ATOM     30  C   UNL     1      23.152  23.274  94.571  0.00  0.00    +0.000 C 
ATOM     31  C   UNL     1      24.199  23.800  93.612  0.00  0.00    +0.000 C 
ATOM     32  C   UNL     1      21.916  22.918  93.983  0.00  0.00    +0.000 C 
ATOM     33  C   UNL     1      20.699  22.602  93.344  0.00  0.00    +0.000 C 
ATOM     34  C   UNL     1      19.417  22.825  94.085  0.00  0.00    +0.000 C 
ATOM     35  C   UNL     1      20.700  22.024  92.192  0.00  0.00    +0.000 C 
ATOM     36  C   UNL     1      20.723  21.371  90.929  0.00  0.00    +0.000 C 
ATOM     37  O   UNL     1      21.249  20.288  90.755  0.00  0.00    +0.000 OA
BRANCH  36  38
ATOM     38  O   UNL     1      20.134  22.065  89.943  0.00  0.00    +0.000 OA
ATOM     39  H   UNL     1      20.648  22.897  89.887  0.00  0.00    +0.000 HD
ENDBRANCH  36  38
ENDBRANCH  29  30
BRANCH  29  40
ATOM     40  O   UNL     1      22.816  23.752  96.911  0.00  0.00    +0.000 OA
ATOM     41  H   UNL     1      22.253  24.441  96.501  0.00  0.00    +0.000 HD
ENDBRANCH  29  40
ENDBRANCH  27  29
ENDBRANCH  25  27
ENDBRANCH   4  25
TORSDOF 12
ENDMDL
MODEL 9
REMARK VINA RESULT:      -3.5     44.025     47.374
REMARK  Name = Leptomycin.pdbqt.pdb
REMARK  12 active torsions:
REMARK  status: ('A' for Active; 'I' for Inactive)
REMARK    1  A    between atoms: C_2  and  C_4
REMARK    2  A    between atoms: C_5  and  C_6
REMARK    3  A    between atoms: C_6  and  C_7
REMARK    4  A    between atoms: C_10  and  C_11
REMARK    5  A    between atoms: C_10  and  C_21
REMARK    6  A    between atoms: C_12  and  C_13
REMARK    7  A    between atoms: C_23  and  C_25
REMARK    8  A    between atoms: C_25  and  C_27
REMARK    9  A    between atoms: C_27  and  C_29
REMARK   10  A    between atoms: C_29  and  O_30
REMARK   11  A    between atoms: C_29  and  C_32
REMARK   12  A    between atoms: C_38  and  O_40
REMARK                            x       y       z     vdW  Elec       q    Type
REMARK                         _______ _______ _______ _____ _____    ______ ____
ROOT
ATOM      1  C   UNL     1       3.688   8.851  86.347  0.00  0.00    +0.000 C 
ATOM      2  C   UNL     1       3.708   8.161  87.441  0.00  0.00    +0.000 C 
ATOM      3  C   UNL     1       2.487   8.161  88.315  0.00  0.00    +0.000 C 
ATOM      4  C   UNL     1       3.704   9.548  85.113  0.00  0.00    +0.000 C 
ATOM      5  C   UNL     1       3.987  11.039  85.216  0.00  0.00    +0.000 C 
ENDROOT
BRANCH   2   6
ATOM      6  C   UNL     1       4.619   7.082  87.551  0.00  0.00    +0.000 C 
ATOM      7  C   UNL     1       5.411   6.178  87.583  0.00  0.00    +0.000 C 
BRANCH   7   8
ATOM      8  C   UNL     1       6.447   5.054  87.503  0.00  0.00    +0.000 C 
BRANCH   8   9
ATOM      9  C   UNL     1       7.324   3.946  87.601  0.00  0.00    +0.000 C 
ATOM     10  C   UNL     1       8.554   3.900  86.749  0.00  0.00    +0.000 C 
ATOM     11  C   UNL     1       7.006   2.827  88.409  0.00  0.00    +0.000 C 
ATOM     12  C   UNL     1       6.542   1.893  89.182  0.00  0.00    +0.000 C 
BRANCH  12  13
ATOM     13  C   UNL     1       5.236   2.112  89.696  0.00  0.00    +0.000 C 
ATOM     14  C   UNL     1       4.094   2.327  90.001  0.00  0.00    +0.000 C 
BRANCH  14  15
ATOM     15  C   UNL     1       2.721   2.600  90.227  0.00  0.00    +0.000 A 
ATOM     16  O   UNL     1       2.205   3.847  89.669  0.00  0.00    +0.000 OA
ATOM     17  C   UNL     1       0.868   4.216  89.791  0.00  0.00    +0.000 A 
ATOM     18  O   UNL     1       0.379   5.228  89.313  0.00  0.00    +0.000 OA
ATOM     19  C   UNL     1       0.116   3.246  90.532  0.00  0.00    +0.000 A 
ATOM     20  C   UNL     1       0.491   2.220  91.012  0.00  0.00    +0.000 A 
ATOM     21  C   UNL     1       1.808   1.713  90.957  0.00  0.00    +0.000 A 
ATOM     22  C   UNL     1       2.152   0.386  91.556  0.00  0.00    +0.000 C 
ENDBRANCH  14  15
ENDBRANCH  12  13
BRANCH  12  23
ATOM     23  C   UNL     1       7.336   0.746  89.436  0.00  0.00    +0.000 C 
ATOM     24  C   UNL     1       8.199  -0.491  89.706  0.00  0.00    +0.000 C 
ENDBRANCH  12  23
ENDBRANCH   8   9
ENDBRANCH   7   8
ENDBRANCH   2   6
BRANCH   4  25
ATOM     25  C   UNL     1       3.998   8.792  83.856  0.00  0.00    +0.000 C 
ATOM     26  O   UNL     1       4.442   9.342  82.842  0.00  0.00    +0.000 OA
BRANCH  25  27
ATOM     27  C   UNL     1       3.676   7.333  83.850  0.00  0.00    +0.000 C 
ATOM     28  C   UNL     1       2.241   6.877  84.104  0.00  0.00    +0.000 C 
BRANCH  27  29
ATOM     29  C   UNL     1       4.776   6.375  83.897  0.00  0.00    +0.000 C 
BRANCH  29  30
ATOM     30  C   UNL     1       4.762   4.962  83.564  0.00  0.00    +0.000 C 
ATOM     31  C   UNL     1       5.134   4.501  82.171  0.00  0.00    +0.000 C 
ATOM     32  C   UNL     1       4.585   3.932  84.517  0.00  0.00    +0.000 C 
ATOM     33  C   UNL     1       4.401   2.862  85.417  0.00  0.00    +0.000 C 
ATOM     34  C   UNL     1       3.359   2.990  86.486  0.00  0.00    +0.000 C 
ATOM     35  C   UNL     1       5.193   1.847  85.392  0.00  0.00    +0.000 C 
ATOM     36  C   UNL     1       6.089   0.743  85.357  0.00  0.00    +0.000 C 
ATOM     37  O   UNL     1       7.287   0.859  85.534  0.00  0.00    +0.000 OA
BRANCH  36  38
ATOM     38  O   UNL     1       5.500  -0.433  85.091  0.00  0.00    +0.000 OA
ATOM     39  H   UNL     1       4.999  -0.646  85.906  0.00  0.00    +0.000 HD
ENDBRANCH  36  38
ENDBRANCH  29  30
BRANCH  29  40
ATOM     40  O   UNL     1       6.016   6.896  84.276  0.00  0.00    +0.000 OA
ATOM     41  H   UNL     1       6.675   6.190  84.441  0.00  0.00    +0.000 HD
ENDBRANCH  29  40
ENDBRANCH  27  29
ENDBRANCH  25  27
ENDBRANCH   4  25
TORSDOF 12
ENDMDL
