MODEL 1
REMARK VINA RESULT:      -7.7      0.000      0.000
REMARK  Name = Lobelin.pdbqt.pdb
REMARK  3 active torsions:
REMARK  status: ('A' for Active; 'I' for Inactive)
REMARK    1  A    between atoms: C_9  and  O_10
REMARK    2  A    between atoms: C_9  and  C_12
REMARK    3  A    between atoms: C_19  and  C_21
REMARK                            x       y       z     vdW  Elec       q    Type
REMARK                         _______ _______ _______ _____ _____    ______ ____
ROOT
ATOM      1  N   UNL     1      60.297  34.912  74.902  0.00  0.00    +0.000 N 
ATOM      2  C   UNL     1      60.609  36.142  75.621  0.00  0.00    +0.000 C 
ATOM      3  C   UNL     1      61.258  33.813  74.879  0.00  0.00    +0.000 C 
ATOM      4  C   UNL     1      61.866  36.137  76.299  0.00  0.00    +0.000 C 
ATOM      5  C   UNL     1      62.450  34.045  75.631  0.00  0.00    +0.000 C 
ATOM      6  C   UNL     1      63.024  35.170  76.470  0.00  0.00    +0.000 C 
ATOM      7  C   UNL     1      59.092  34.825  74.106  0.00  0.00    +0.000 C 
ATOM      8  C   UNL     1      59.725  37.254  75.655  0.00  0.00    +0.000 C 
ATOM      9  C   UNL     1      58.825  38.351  75.705  0.00  0.00    +0.000 C 
ATOM     10  C   UNL     1      61.015  32.607  74.174  0.00  0.00    +0.000 C 
ATOM     11  C   UNL     1      60.753  31.370  73.486  0.00  0.00    +0.000 C 
ATOM     12  O   UNL     1      60.866  30.315  74.092  0.00  0.00    +0.000 OA
ENDROOT
BRANCH   9  13
ATOM     13  C   UNL     1      57.492  38.296  76.306  0.00  0.00    +0.000 A 
ATOM     14  C   UNL     1      57.108  37.210  77.098  0.00  0.00    +0.000 A 
ATOM     15  C   UNL     1      55.838  37.156  77.670  0.00  0.00    +0.000 A 
ATOM     16  C   UNL     1      54.936  38.193  77.456  0.00  0.00    +0.000 A 
ATOM     17  C   UNL     1      55.302  39.280  76.668  0.00  0.00    +0.000 A 
ATOM     18  C   UNL     1      56.573  39.328  76.098  0.00  0.00    +0.000 A 
ENDBRANCH   9  13
BRANCH  11  19
ATOM     19  C   UNL     1      60.368  31.424  72.065  0.00  0.00    +0.000 A 
ATOM     20  C   UNL     1      59.829  32.581  71.505  0.00  0.00    +0.000 A 
ATOM     21  C   UNL     1      59.481  32.603  70.156  0.00  0.00    +0.000 A 
ATOM     22  C   UNL     1      59.674  31.470  69.369  0.00  0.00    +0.000 A 
ATOM     23  C   UNL     1      60.217  30.315  69.928  0.00  0.00    +0.000 A 
ATOM     24  C   UNL     1      60.565  30.290  71.276  0.00  0.00    +0.000 A 
ENDBRANCH  11  19
BRANCH   9  25
ATOM     25  O   UNL     1      59.215  39.556  75.167  0.00  0.00    +0.000 OA
ATOM     26  H   UNL     1      58.565  39.896  74.529  0.00  0.00    +0.000 HD
ENDBRANCH   9  25
TORSDOF 3
ENDMDL
MODEL 2
REMARK VINA RESULT:      -7.3      4.409      6.808
REMARK  Name = Lobelin.pdbqt.pdb
REMARK  3 active torsions:
REMARK  status: ('A' for Active; 'I' for Inactive)
REMARK    1  A    between atoms: C_9  and  O_10
REMARK    2  A    between atoms: C_9  and  C_12
REMARK    3  A    between atoms: C_19  and  C_21
REMARK                            x       y       z     vdW  Elec       q    Type
REMARK                         _______ _______ _______ _____ _____    ______ ____
ROOT
ATOM      1  N   UNL     1      56.430  37.725  76.014  0.00  0.00    +0.000 N 
ATOM      2  C   UNL     1      55.689  37.643  77.268  0.00  0.00    +0.000 C 
ATOM      3  C   UNL     1      56.371  38.939  75.206  0.00  0.00    +0.000 C 
ATOM      4  C   UNL     1      54.974  38.830  77.619  0.00  0.00    +0.000 C 
ATOM      5  C   UNL     1      55.586  39.993  75.765  0.00  0.00    +0.000 C 
ATOM      6  C   UNL     1      54.750  40.203  77.013  0.00  0.00    +0.000 C 
ATOM      7  C   UNL     1      57.124  36.562  75.508  0.00  0.00    +0.000 C 
ATOM      8  C   UNL     1      55.687  36.479  78.083  0.00  0.00    +0.000 C 
ATOM      9  C   UNL     1      55.711  35.321  78.903  0.00  0.00    +0.000 C 
ATOM     10  C   UNL     1      57.052  39.061  73.968  0.00  0.00    +0.000 C 
ATOM     11  C   UNL     1      57.770  39.195  72.728  0.00  0.00    +0.000 C 
ATOM     12  O   UNL     1      58.506  40.157  72.567  0.00  0.00    +0.000 OA
ENDROOT
BRANCH   9  13
ATOM     13  C   UNL     1      56.916  34.788  79.540  0.00  0.00    +0.000 A 
ATOM     14  C   UNL     1      56.843  33.696  80.409  0.00  0.00    +0.000 A 
ATOM     15  C   UNL     1      57.991  33.188  81.016  0.00  0.00    +0.000 A 
ATOM     16  C   UNL     1      59.228  33.769  80.758  0.00  0.00    +0.000 A 
ATOM     17  C   UNL     1      59.318  34.857  79.896  0.00  0.00    +0.000 A 
ATOM     18  C   UNL     1      58.167  35.362  79.293  0.00  0.00    +0.000 A 
ENDBRANCH   9  13
BRANCH  11  19
ATOM     19  C   UNL     1      57.579  38.167  71.690  0.00  0.00    +0.000 A 
ATOM     20  C   UNL     1      58.140  36.896  71.818  0.00  0.00    +0.000 A 
ATOM     21  C   UNL     1      57.936  35.944  70.823  0.00  0.00    +0.000 A 
ATOM     22  C   UNL     1      57.173  36.261  69.702  0.00  0.00    +0.000 A 
ATOM     23  C   UNL     1      56.610  37.530  69.575  0.00  0.00    +0.000 A 
ATOM     24  C   UNL     1      56.812  38.484  70.569  0.00  0.00    +0.000 A 
ENDBRANCH  11  19
BRANCH   9  25
ATOM     25  O   UNL     1      54.535  34.644  79.134  0.00  0.00    +0.000 OA
ATOM     26  H   UNL     1      54.329  34.588  80.082  0.00  0.00    +0.000 HD
ENDBRANCH   9  25
TORSDOF 3
ENDMDL
MODEL 3
REMARK VINA RESULT:      -7.2      3.487      5.672
REMARK  Name = Lobelin.pdbqt.pdb
REMARK  3 active torsions:
REMARK  status: ('A' for Active; 'I' for Inactive)
REMARK    1  A    between atoms: C_9  and  O_10
REMARK    2  A    between atoms: C_9  and  C_12
REMARK    3  A    between atoms: C_19  and  C_21
REMARK                            x       y       z     vdW  Elec       q    Type
REMARK                         _______ _______ _______ _____ _____    ______ ____
ROOT
ATOM      1  N   UNL     1      58.532  36.725  76.781  0.00  0.00    +0.000 N 
ATOM      2  C   UNL     1      57.281  37.035  77.465  0.00  0.00    +0.000 C 
ATOM      3  C   UNL     1      59.034  37.610  75.735  0.00  0.00    +0.000 C 
ATOM      4  C   UNL     1      56.660  38.254  77.053  0.00  0.00    +0.000 C 
ATOM      5  C   UNL     1      58.235  38.770  75.497  0.00  0.00    +0.000 C 
ATOM      6  C   UNL     1      56.946  39.352  76.045  0.00  0.00    +0.000 C 
ATOM      7  C   UNL     1      59.211  35.476  77.049  0.00  0.00    +0.000 C 
ATOM      8  C   UNL     1      56.730  36.197  78.472  0.00  0.00    +0.000 C 
ATOM      9  C   UNL     1      56.199  35.368  79.493  0.00  0.00    +0.000 C 
ATOM     10  C   UNL     1      60.230  37.341  75.022  0.00  0.00    +0.000 C 
ATOM     11  C   UNL     1      61.461  37.084  74.323  0.00  0.00    +0.000 C 
ATOM     12  O   UNL     1      62.313  37.960  74.273  0.00  0.00    +0.000 OA
ENDROOT
BRANCH   9  13
ATOM     13  C   UNL     1      56.869  35.098  80.766  0.00  0.00    +0.000 A 
ATOM     14  C   UNL     1      56.970  36.089  81.746  0.00  0.00    +0.000 A 
ATOM     15  C   UNL     1      57.608  35.833  82.959  0.00  0.00    +0.000 A 
ATOM     16  C   UNL     1      58.154  34.576  83.204  0.00  0.00    +0.000 A 
ATOM     17  C   UNL     1      58.063  33.579  82.238  0.00  0.00    +0.000 A 
ATOM     18  C   UNL     1      57.425  33.842  81.027  0.00  0.00    +0.000 A 
ENDBRANCH   9  13
BRANCH  11  19
ATOM     19  C   UNL     1      61.644  35.772  73.678  0.00  0.00    +0.000 A 
ATOM     20  C   UNL     1      62.905  35.334  73.273  0.00  0.00    +0.000 A 
ATOM     21  C   UNL     1      63.046  34.085  72.673  0.00  0.00    +0.000 A 
ATOM     22  C   UNL     1      61.930  33.275  72.480  0.00  0.00    +0.000 A 
ATOM     23  C   UNL     1      60.670  33.711  72.888  0.00  0.00    +0.000 A 
ATOM     24  C   UNL     1      60.526  34.959  73.489  0.00  0.00    +0.000 A 
ENDBRANCH  11  19
BRANCH   9  25
ATOM     25  O   UNL     1      54.973  34.774  79.299  0.00  0.00    +0.000 OA
ATOM     26  H   UNL     1      54.380  35.331  78.766  0.00  0.00    +0.000 HD
ENDBRANCH   9  25
TORSDOF 3
ENDMDL
MODEL 4
REMARK VINA RESULT:      -7.1      4.040      7.837
REMARK  Name = Lobelin.pdbqt.pdb
REMARK  3 active torsions:
REMARK  status: ('A' for Active; 'I' for Inactive)
REMARK    1  A    between atoms: C_9  and  O_10
REMARK    2  A    between atoms: C_9  and  C_12
REMARK    3  A    between atoms: C_19  and  C_21
REMARK                            x       y       z     vdW  Elec       q    Type
REMARK                         _______ _______ _______ _____ _____    ______ ____
ROOT
ATOM      1  N   UNL     1      58.970  36.963  76.651  0.00  0.00    +0.000 N 
ATOM      2  C   UNL     1      59.653  35.837  77.279  0.00  0.00    +0.000 C 
ATOM      3  C   UNL     1      57.666  37.395  77.144  0.00  0.00    +0.000 C 
ATOM      4  C   UNL     1      58.965  35.264  78.393  0.00  0.00    +0.000 C 
ATOM      5  C   UNL     1      57.179  36.664  78.270  0.00  0.00    +0.000 C 
ATOM      6  C   UNL     1      57.657  35.504  79.123  0.00  0.00    +0.000 C 
ATOM      7  C   UNL     1      59.523  37.572  75.462  0.00  0.00    +0.000 C 
ATOM      8  C   UNL     1      60.911  35.355  76.826  0.00  0.00    +0.000 C 
ATOM      9  C   UNL     1      62.179  34.895  76.383  0.00  0.00    +0.000 C 
ATOM     10  C   UNL     1      56.948  38.466  76.553  0.00  0.00    +0.000 C 
ATOM     11  C   UNL     1      56.236  39.575  75.975  0.00  0.00    +0.000 C 
ATOM     12  O   UNL     1      55.848  40.479  76.701  0.00  0.00    +0.000 OA
ENDROOT
BRANCH   9  13
ATOM     13  C   UNL     1      63.401  35.699  76.411  0.00  0.00    +0.000 A 
ATOM     14  C   UNL     1      64.659  35.089  76.408  0.00  0.00    +0.000 A 
ATOM     15  C   UNL     1      65.824  35.854  76.434  0.00  0.00    +0.000 A 
ATOM     16  C   UNL     1      65.743  37.243  76.463  0.00  0.00    +0.000 A 
ATOM     17  C   UNL     1      64.498  37.865  76.467  0.00  0.00    +0.000 A 
ATOM     18  C   UNL     1      63.337  37.095  76.442  0.00  0.00    +0.000 A 
ENDBRANCH   9  13
BRANCH  11  19
ATOM     19  C   UNL     1      55.991  39.572  74.522  0.00  0.00    +0.000 A 
ATOM     20  C   UNL     1      56.147  38.411  73.764  0.00  0.00    +0.000 A 
ATOM     21  C   UNL     1      55.900  38.439  72.394  0.00  0.00    +0.000 A 
ATOM     22  C   UNL     1      55.498  39.624  71.782  0.00  0.00    +0.000 A 
ATOM     23  C   UNL     1      55.339  40.782  72.540  0.00  0.00    +0.000 A 
ATOM     24  C   UNL     1      55.584  40.758  73.911  0.00  0.00    +0.000 A 
ENDBRANCH  11  19
BRANCH   9  25
ATOM     25  O   UNL     1      62.290  33.612  75.898  0.00  0.00    +0.000 OA
ATOM     26  H   UNL     1      62.985  33.538  75.223  0.00  0.00    +0.000 HD
ENDBRANCH   9  25
TORSDOF 3
ENDMDL
MODEL 5
REMARK VINA RESULT:      -7.0      2.406      3.043
REMARK  Name = Lobelin.pdbqt.pdb
REMARK  3 active torsions:
REMARK  status: ('A' for Active; 'I' for Inactive)
REMARK    1  A    between atoms: C_9  and  O_10
REMARK    2  A    between atoms: C_9  and  C_12
REMARK    3  A    between atoms: C_19  and  C_21
REMARK                            x       y       z     vdW  Elec       q    Type
REMARK                         _______ _______ _______ _____ _____    ______ ____
ROOT
ATOM      1  N   UNL     1      61.655  33.853  75.193  0.00  0.00    +0.000 N 
ATOM      2  C   UNL     1      61.791  34.985  76.103  0.00  0.00    +0.000 C 
ATOM      3  C   UNL     1      62.818  33.357  74.463  0.00  0.00    +0.000 C 
ATOM      4  C   UNL     1      63.119  35.497  76.228  0.00  0.00    +0.000 C 
ATOM      5  C   UNL     1      64.041  34.035  74.753  0.00  0.00    +0.000 C 
ATOM      6  C   UNL     1      64.482  35.186  75.637  0.00  0.00    +0.000 C 
ATOM      7  C   UNL     1      60.348  33.301  74.915  0.00  0.00    +0.000 C 
ATOM      8  C   UNL     1      60.690  35.528  76.820  0.00  0.00    +0.000 C 
ATOM      9  C   UNL     1      59.590  36.048  77.550  0.00  0.00    +0.000 C 
ATOM     10  C   UNL     1      62.735  32.277  73.547  0.00  0.00    +0.000 C 
ATOM     11  C   UNL     1      62.657  31.160  72.643  0.00  0.00    +0.000 C 
ATOM     12  O   UNL     1      63.426  30.221  72.787  0.00  0.00    +0.000 OA
ENDROOT
BRANCH   9  13
ATOM     13  C   UNL     1      58.832  35.291  78.547  0.00  0.00    +0.000 A 
ATOM     14  C   UNL     1      57.452  35.115  78.414  0.00  0.00    +0.000 A 
ATOM     15  C   UNL     1      56.729  34.393  79.363  0.00  0.00    +0.000 A 
ATOM     16  C   UNL     1      57.382  33.838  80.459  0.00  0.00    +0.000 A 
ATOM     17  C   UNL     1      58.755  34.005  80.606  0.00  0.00    +0.000 A 
ATOM     18  C   UNL     1      59.473  34.728  79.655  0.00  0.00    +0.000 A 
ENDBRANCH   9  13
BRANCH  11  19
ATOM     19  C   UNL     1      61.654  31.197  71.564  0.00  0.00    +0.000 A 
ATOM     20  C   UNL     1      60.950  32.365  71.271  0.00  0.00    +0.000 A 
ATOM     21  C   UNL     1      60.013  32.370  70.241  0.00  0.00    +0.000 A 
ATOM     22  C   UNL     1      59.782  31.211  69.504  0.00  0.00    +0.000 A 
ATOM     23  C   UNL     1      60.489  30.046  69.794  0.00  0.00    +0.000 A 
ATOM     24  C   UNL     1      61.426  30.038  70.824  0.00  0.00    +0.000 A 
ENDBRANCH  11  19
BRANCH   9  25
ATOM     25  O   UNL     1      59.199  37.348  77.328  0.00  0.00    +0.000 OA
ATOM     26  H   UNL     1      58.343  37.397  76.870  0.00  0.00    +0.000 HD
ENDBRANCH   9  25
TORSDOF 3
ENDMDL
MODEL 6
REMARK VINA RESULT:      -6.8      3.638      6.746
REMARK  Name = Lobelin.pdbqt.pdb
REMARK  3 active torsions:
REMARK  status: ('A' for Active; 'I' for Inactive)
REMARK    1  A    between atoms: C_9  and  O_10
REMARK    2  A    between atoms: C_9  and  C_12
REMARK    3  A    between atoms: C_19  and  C_21
REMARK                            x       y       z     vdW  Elec       q    Type
REMARK                         _______ _______ _______ _____ _____    ______ ____
ROOT
ATOM      1  N   UNL     1      58.045  36.785  74.563  0.00  0.00    +0.000 N 
ATOM      2  C   UNL     1      57.639  36.864  73.165  0.00  0.00    +0.000 C 
ATOM      3  C   UNL     1      59.031  35.793  74.985  0.00  0.00    +0.000 C 
ATOM      4  C   UNL     1      58.305  35.947  72.294  0.00  0.00    +0.000 C 
ATOM      5  C   UNL     1      59.555  34.984  73.930  0.00  0.00    +0.000 C 
ATOM      6  C   UNL     1      59.351  34.856  72.433  0.00  0.00    +0.000 C 
ATOM      7  C   UNL     1      57.383  37.601  75.556  0.00  0.00    +0.000 C 
ATOM      8  C   UNL     1      56.665  37.790  72.701  0.00  0.00    +0.000 C 
ATOM      9  C   UNL     1      55.710  38.734  72.243  0.00  0.00    +0.000 C 
ATOM     10  C   UNL     1      59.441  35.657  76.335  0.00  0.00    +0.000 C 
ATOM     11  C   UNL     1      59.881  35.542  77.701  0.00  0.00    +0.000 C 
ATOM     12  O   UNL     1      61.079  35.571  77.946  0.00  0.00    +0.000 OA
ENDROOT
BRANCH   9  13
ATOM     13  C   UNL     1      55.889  40.185  72.310  0.00  0.00    +0.000 A 
ATOM     14  C   UNL     1      54.791  41.034  72.476  0.00  0.00    +0.000 A 
ATOM     15  C   UNL     1      54.961  42.416  72.541  0.00  0.00    +0.000 A 
ATOM     16  C   UNL     1      56.235  42.965  72.441  0.00  0.00    +0.000 A 
ATOM     17  C   UNL     1      57.338  42.134  72.275  0.00  0.00    +0.000 A 
ATOM     18  C   UNL     1      57.163  40.752  72.210  0.00  0.00    +0.000 A 
ENDBRANCH   9  13
BRANCH  11  19
ATOM     19  C   UNL     1      58.866  35.381  78.756  0.00  0.00    +0.000 A 
ATOM     20  C   UNL     1      57.530  35.130  78.442  0.00  0.00    +0.000 A 
ATOM     21  C   UNL     1      56.595  34.976  79.463  0.00  0.00    +0.000 A 
ATOM     22  C   UNL     1      56.995  35.072  80.794  0.00  0.00    +0.000 A 
ATOM     23  C   UNL     1      58.330  35.319  81.107  0.00  0.00    +0.000 A 
ATOM     24  C   UNL     1      59.267  35.473  80.088  0.00  0.00    +0.000 A 
ENDBRANCH  11  19
BRANCH   9  25
ATOM     25  O   UNL     1      54.536  38.278  71.688  0.00  0.00    +0.000 OA
ATOM     26  H   UNL     1      53.804  38.288  72.328  0.00  0.00    +0.000 HD
ENDBRANCH   9  25
TORSDOF 3
ENDMDL
MODEL 7
REMARK VINA RESULT:      -6.7      3.686      7.223
REMARK  Name = Lobelin.pdbqt.pdb
REMARK  3 active torsions:
REMARK  status: ('A' for Active; 'I' for Inactive)
REMARK    1  A    between atoms: C_9  and  O_10
REMARK    2  A    between atoms: C_9  and  C_12
REMARK    3  A    between atoms: C_19  and  C_21
REMARK                            x       y       z     vdW  Elec       q    Type
REMARK                         _______ _______ _______ _____ _____    ______ ____
ROOT
ATOM      1  N   UNL     1      57.835  37.034  74.308  0.00  0.00    +0.000 N 
ATOM      2  C   UNL     1      58.810  36.102  74.865  0.00  0.00    +0.000 C 
ATOM      3  C   UNL     1      57.581  37.057  72.870  0.00  0.00    +0.000 C 
ATOM      4  C   UNL     1      59.421  35.233  73.909  0.00  0.00    +0.000 C 
ATOM      5  C   UNL     1      58.318  36.092  72.117  0.00  0.00    +0.000 C 
ATOM      6  C   UNL     1      59.346  35.015  72.409  0.00  0.00    +0.000 C 
ATOM      7  C   UNL     1      57.212  38.023  75.160  0.00  0.00    +0.000 C 
ATOM      8  C   UNL     1      59.118  36.054  76.251  0.00  0.00    +0.000 C 
ATOM      9  C   UNL     1      59.401  35.994  77.641  0.00  0.00    +0.000 C 
ATOM     10  C   UNL     1      56.664  37.960  72.276  0.00  0.00    +0.000 C 
ATOM     11  C   UNL     1      55.709  38.855  71.677  0.00  0.00    +0.000 C 
ATOM     12  O   UNL     1      54.838  38.398  70.951  0.00  0.00    +0.000 OA
ENDROOT
BRANCH   9  13
ATOM     13  C   UNL     1      58.420  35.638  78.667  0.00  0.00    +0.000 A 
ATOM     14  C   UNL     1      57.501  36.581  79.136  0.00  0.00    +0.000 A 
ATOM     15  C   UNL     1      56.566  36.242  80.113  0.00  0.00    +0.000 A 
ATOM     16  C   UNL     1      56.541  34.952  80.632  0.00  0.00    +0.000 A 
ATOM     17  C   UNL     1      57.450  34.002  80.176  0.00  0.00    +0.000 A 
ATOM     18  C   UNL     1      58.383  34.346  79.200  0.00  0.00    +0.000 A 
ENDBRANCH   9  13
BRANCH  11  19
ATOM     19  C   UNL     1      55.826  40.297  71.955  0.00  0.00    +0.000 A 
ATOM     20  C   UNL     1      54.715  41.053  72.329  0.00  0.00    +0.000 A 
ATOM     21  C   UNL     1      54.858  42.413  72.592  0.00  0.00    +0.000 A 
ATOM     22  C   UNL     1      56.109  43.016  72.482  0.00  0.00    +0.000 A 
ATOM     23  C   UNL     1      57.219  42.259  72.111  0.00  0.00    +0.000 A 
ATOM     24  C   UNL     1      57.079  40.899  71.848  0.00  0.00    +0.000 A 
ENDBRANCH  11  19
BRANCH   9  25
ATOM     25  O   UNL     1      60.676  36.280  78.072  0.00  0.00    +0.000 OA
ATOM     26  H   UNL     1      60.725  36.349  79.041  0.00  0.00    +0.000 HD
ENDBRANCH   9  25
TORSDOF 3
ENDMDL
MODEL 8
REMARK VINA RESULT:      -6.7      4.199      8.397
REMARK  Name = Lobelin.pdbqt.pdb
REMARK  3 active torsions:
REMARK  status: ('A' for Active; 'I' for Inactive)
REMARK    1  A    between atoms: C_9  and  O_10
REMARK    2  A    between atoms: C_9  and  C_12
REMARK    3  A    between atoms: C_19  and  C_21
REMARK                            x       y       z     vdW  Elec       q    Type
REMARK                         _______ _______ _______ _____ _____    ______ ____
ROOT
ATOM      1  N   UNL     1      56.749  38.071  73.708  0.00  0.00    +0.000 N 
ATOM      2  C   UNL     1      57.800  37.097  73.981  0.00  0.00    +0.000 C 
ATOM      3  C   UNL     1      56.387  38.391  72.330  0.00  0.00    +0.000 C 
ATOM      4  C   UNL     1      58.374  36.493  72.820  0.00  0.00    +0.000 C 
ATOM      5  C   UNL     1      57.105  37.658  71.337  0.00  0.00    +0.000 C 
ATOM      6  C   UNL     1      58.195  36.603  71.317  0.00  0.00    +0.000 C 
ATOM      7  C   UNL     1      56.151  38.813  74.796  0.00  0.00    +0.000 C 
ATOM      8  C   UNL     1      58.213  36.765  75.300  0.00  0.00    +0.000 C 
ATOM      9  C   UNL     1      58.602  36.420  76.620  0.00  0.00    +0.000 C 
ATOM     10  C   UNL     1      55.391  39.349  72.010  0.00  0.00    +0.000 C 
ATOM     11  C   UNL     1      54.357  40.296  71.687  0.00  0.00    +0.000 C 
ATOM     12  O   UNL     1      53.454  39.960  70.935  0.00  0.00    +0.000 OA
ENDROOT
BRANCH   9  13
ATOM     13  C   UNL     1      57.717  35.794  77.602  0.00  0.00    +0.000 A 
ATOM     14  C   UNL     1      56.343  36.054  77.597  0.00  0.00    +0.000 A 
ATOM     15  C   UNL     1      55.499  35.457  78.531  0.00  0.00    +0.000 A 
ATOM     16  C   UNL     1      56.022  34.590  79.486  0.00  0.00    +0.000 A 
ATOM     17  C   UNL     1      57.387  34.322  79.506  0.00  0.00    +0.000 A 
ATOM     18  C   UNL     1      58.227  34.922  78.569  0.00  0.00    +0.000 A 
ENDBRANCH   9  13
BRANCH  11  19
ATOM     19  C   UNL     1      54.434  41.648  72.269  0.00  0.00    +0.000 A 
ATOM     20  C   UNL     1      55.366  41.956  73.260  0.00  0.00    +0.000 A 
ATOM     21  C   UNL     1      55.419  43.245  73.786  0.00  0.00    +0.000 A 
ATOM     22  C   UNL     1      54.543  44.223  73.322  0.00  0.00    +0.000 A 
ATOM     23  C   UNL     1      53.614  43.915  72.329  0.00  0.00    +0.000 A 
ATOM     24  C   UNL     1      53.559  42.627  71.801  0.00  0.00    +0.000 A 
ENDBRANCH  11  19
BRANCH   9  25
ATOM     25  O   UNL     1      59.893  36.677  77.022  0.00  0.00    +0.000 OA
ATOM     26  H   UNL     1      60.271  35.936  77.524  0.00  0.00    +0.000 HD
ENDBRANCH   9  25
TORSDOF 3
ENDMDL
MODEL 9
REMARK VINA RESULT:      -6.6      2.772      5.634
REMARK  Name = Lobelin.pdbqt.pdb
REMARK  3 active torsions:
REMARK  status: ('A' for Active; 'I' for Inactive)
REMARK    1  A    between atoms: C_9  and  O_10
REMARK    2  A    between atoms: C_9  and  C_12
REMARK    3  A    between atoms: C_19  and  C_21
REMARK                            x       y       z     vdW  Elec       q    Type
REMARK                         _______ _______ _______ _____ _____    ______ ____
ROOT
ATOM      1  N   UNL     1      60.376  34.705  73.856  0.00  0.00    +0.000 N 
ATOM      2  C   UNL     1      60.372  35.172  75.239  0.00  0.00    +0.000 C 
ATOM      3  C   UNL     1      59.162  34.795  73.049  0.00  0.00    +0.000 C 
ATOM      4  C   UNL     1      59.134  35.735  75.677  0.00  0.00    +0.000 C 
ATOM      5  C   UNL     1      58.047  35.394  73.710  0.00  0.00    +0.000 C 
ATOM      6  C   UNL     1      57.759  35.975  75.081  0.00  0.00    +0.000 C 
ATOM      7  C   UNL     1      61.542  34.037  73.322  0.00  0.00    +0.000 C 
ATOM      8  C   UNL     1      61.514  35.085  76.080  0.00  0.00    +0.000 C 
ATOM      9  C   UNL     1      62.666  35.018  76.905  0.00  0.00    +0.000 C 
ATOM     10  C   UNL     1      59.106  34.332  71.710  0.00  0.00    +0.000 C 
ATOM     11  C   UNL     1      59.059  33.892  70.341  0.00  0.00    +0.000 C 
ATOM     12  O   UNL     1      58.653  34.661  69.481  0.00  0.00    +0.000 OA
ENDROOT
BRANCH   9  13
ATOM     13  C   UNL     1      63.917  35.726  76.632  0.00  0.00    +0.000 A 
ATOM     14  C   UNL     1      65.116  35.025  76.469  0.00  0.00    +0.000 A 
ATOM     15  C   UNL     1      66.308  35.698  76.208  0.00  0.00    +0.000 A 
ATOM     16  C   UNL     1      66.314  37.086  76.106  0.00  0.00    +0.000 A 
ATOM     17  C   UNL     1      65.129  37.799  76.267  0.00  0.00    +0.000 A 
ATOM     18  C   UNL     1      63.940  37.120  76.528  0.00  0.00    +0.000 A 
ENDBRANCH   9  13
BRANCH  11  19
ATOM     19  C   UNL     1      59.492  32.520  70.027  0.00  0.00    +0.000 A 
ATOM     20  C   UNL     1      59.948  31.659  71.026  0.00  0.00    +0.000 A 
ATOM     21  C   UNL     1      60.345  30.365  70.699  0.00  0.00    +0.000 A 
ATOM     22  C   UNL     1      60.285  29.932  69.376  0.00  0.00    +0.000 A 
ATOM     23  C   UNL     1      59.827  30.791  68.379  0.00  0.00    +0.000 A 
ATOM     24  C   UNL     1      59.429  32.085  68.703  0.00  0.00    +0.000 A 
ENDBRANCH  11  19
BRANCH   9  25
ATOM     25  O   UNL     1      62.624  34.248  78.045  0.00  0.00    +0.000 OA
ATOM     26  H   UNL     1      63.179  34.617  78.753  0.00  0.00    +0.000 HD
ENDBRANCH   9  25
TORSDOF 3
ENDMDL
