MODEL 1
REMARK VINA RESULT:      -5.6      0.000      0.000
REMARK  Name = LUCANTHONE.pdbqt.pdb
REMARK  5 active torsions:
REMARK  status: ('A' for Active; 'I' for Inactive)
REMARK    1  A    between atoms: C_3  and  N_17
REMARK    2  A    between atoms: N_17  and  C_19
REMARK    3  A    between atoms: C_20  and  N_21
REMARK    4  A    between atoms: N_21  and  C_22
REMARK    5  A    between atoms: N_21  and  C_24
REMARK                            x       y       z     vdW  Elec       q    Type
REMARK                         _______ _______ _______ _____ _____    ______ ____
ROOT
ATOM      1  S   UNL     1      58.962  35.451  71.649  0.00  0.00    +0.000 S 
ATOM      2  O   UNL     1      60.401  37.648  75.099  0.00  0.00    +0.000 OA
ATOM      3  C   UNL     1      60.750  34.883  75.331  0.00  0.00    +0.000 A 
ATOM      4  C   UNL     1      60.093  35.485  74.222  0.00  0.00    +0.000 A 
ATOM      5  C   UNL     1      59.746  34.721  73.089  0.00  0.00    +0.000 A 
ATOM      6  C   UNL     1      60.059  33.341  73.089  0.00  0.00    +0.000 A 
ATOM      7  C   UNL     1      59.801  36.947  74.286  0.00  0.00    +0.000 A 
ATOM      8  C   UNL     1      61.012  33.509  75.290  0.00  0.00    +0.000 A 
ATOM      9  C   UNL     1      58.793  37.581  73.425  0.00  0.00    +0.000 A 
ATOM     10  C   UNL     1      60.685  32.747  74.181  0.00  0.00    +0.000 A 
ATOM     11  C   UNL     1      58.341  36.982  72.258  0.00  0.00    +0.000 A 
ATOM     12  C   UNL     1      59.743  32.410  71.939  0.00  0.00    +0.000 C 
ATOM     13  C   UNL     1      58.302  38.832  73.813  0.00  0.00    +0.000 A 
ATOM     14  C   UNL     1      57.385  37.646  71.486  0.00  0.00    +0.000 A 
ATOM     15  C   UNL     1      57.345  39.482  73.040  0.00  0.00    +0.000 A 
ATOM     16  C   UNL     1      56.882  38.886  71.873  0.00  0.00    +0.000 A 
ENDROOT
BRANCH   3  17
ATOM     17  N   UNL     1      60.998  35.597  76.533  0.00  0.00    +0.000 N 
ATOM     18  H   UNL     1      61.989  35.533  76.809  0.00  0.00    +0.000 HD
BRANCH  17  19
ATOM     19  C   UNL     1      60.022  35.548  77.609  0.00  0.00    +0.000 C 
ATOM     20  C   UNL     1      58.992  35.495  78.742  0.00  0.00    +0.000 C 
BRANCH  20  21
ATOM     21  N   UNL     1      58.006  35.446  79.810  0.00  0.00    +0.000 N 
BRANCH  21  22
ATOM     22  C   UNL     1      58.324  34.297  80.638  0.00  0.00    +0.000 C 
ATOM     23  C   UNL     1      58.665  33.078  81.499  0.00  0.00    +0.000 C 
ENDBRANCH  21  22
BRANCH  21  24
ATOM     24  C   UNL     1      56.723  35.166  79.193  0.00  0.00    +0.000 C 
ATOM     25  C   UNL     1      55.364  34.891  78.543  0.00  0.00    +0.000 C 
ENDBRANCH  21  24
ENDBRANCH  20  21
ENDBRANCH  17  19
ENDBRANCH   3  17
TORSDOF 5
ENDMDL
MODEL 2
REMARK VINA RESULT:      -5.4      6.981     10.962
REMARK  Name = LUCANTHONE.pdbqt.pdb
REMARK  5 active torsions:
REMARK  status: ('A' for Active; 'I' for Inactive)
REMARK    1  A    between atoms: C_3  and  N_17
REMARK    2  A    between atoms: N_17  and  C_19
REMARK    3  A    between atoms: C_20  and  N_21
REMARK    4  A    between atoms: N_21  and  C_22
REMARK    5  A    between atoms: N_21  and  C_24
REMARK                            x       y       z     vdW  Elec       q    Type
REMARK                         _______ _______ _______ _____ _____    ______ ____
ROOT
ATOM      1  S   UNL     1      59.919  33.988  70.089  0.00  0.00    +0.000 S 
ATOM      2  O   UNL     1      60.310  29.735  69.340  0.00  0.00    +0.000 OA
ATOM      3  C   UNL     1      58.732  31.047  67.439  0.00  0.00    +0.000 A 
ATOM      4  C   UNL     1      59.278  31.708  68.575  0.00  0.00    +0.000 A 
ATOM      5  C   UNL     1      59.200  33.111  68.698  0.00  0.00    +0.000 A 
ATOM      6  C   UNL     1      58.557  33.839  67.669  0.00  0.00    +0.000 A 
ATOM      7  C   UNL     1      59.950  30.879  69.617  0.00  0.00    +0.000 A 
ATOM      8  C   UNL     1      58.083  31.813  66.465  0.00  0.00    +0.000 A 
ATOM      9  C   UNL     1      60.174  31.371  70.983  0.00  0.00    +0.000 A 
ATOM     10  C   UNL     1      58.007  33.192  66.567  0.00  0.00    +0.000 A 
ATOM     11  C   UNL     1      60.149  32.723  71.291  0.00  0.00    +0.000 A 
ATOM     12  C   UNL     1      58.406  35.345  67.677  0.00  0.00    +0.000 C 
ATOM     13  C   UNL     1      60.429  30.424  71.981  0.00  0.00    +0.000 A 
ATOM     14  C   UNL     1      60.376  33.119  72.611  0.00  0.00    +0.000 A 
ATOM     15  C   UNL     1      60.647  30.828  73.295  0.00  0.00    +0.000 A 
ATOM     16  C   UNL     1      60.618  32.181  73.612  0.00  0.00    +0.000 A 
ENDROOT
BRANCH   3  17
ATOM     17  N   UNL     1      58.684  29.631  67.349  0.00  0.00    +0.000 N 
ATOM     18  H   UNL     1      59.631  29.226  67.296  0.00  0.00    +0.000 HD
BRANCH  17  19
ATOM     19  C   UNL     1      57.664  29.000  66.528  0.00  0.00    +0.000 C 
ATOM     20  C   UNL     1      56.588  28.334  65.665  0.00  0.00    +0.000 C 
BRANCH  20  21
ATOM     21  N   UNL     1      55.568  27.692  64.851  0.00  0.00    +0.000 N 
BRANCH  21  22
ATOM     22  C   UNL     1      55.955  27.861  63.462  0.00  0.00    +0.000 C 
ATOM     23  C   UNL     1      56.376  28.033  62.000  0.00  0.00    +0.000 C 
ENDBRANCH  21  22
BRANCH  21  24
ATOM     24  C   UNL     1      54.342  28.445  65.031  0.00  0.00    +0.000 C 
ATOM     25  C   UNL     1      53.053  29.247  65.239  0.00  0.00    +0.000 C 
ENDBRANCH  21  24
ENDBRANCH  20  21
ENDBRANCH  17  19
ENDBRANCH   3  17
TORSDOF 5
ENDMDL
MODEL 3
REMARK VINA RESULT:      -5.1     57.646     60.539
REMARK  Name = LUCANTHONE.pdbqt.pdb
REMARK  5 active torsions:
REMARK  status: ('A' for Active; 'I' for Inactive)
REMARK    1  A    between atoms: C_3  and  N_17
REMARK    2  A    between atoms: N_17  and  C_19
REMARK    3  A    between atoms: C_20  and  N_21
REMARK    4  A    between atoms: N_21  and  C_22
REMARK    5  A    between atoms: N_21  and  C_24
REMARK                            x       y       z     vdW  Elec       q    Type
REMARK                         _______ _______ _______ _____ _____    ______ ____
ROOT
ATOM      1  S   UNL     1      12.795   0.331  96.909  0.00  0.00    +0.000 S 
ATOM      2  O   UNL     1      14.028   4.413  96.127  0.00  0.00    +0.000 OA
ATOM      3  C   UNL     1      12.874   4.077  98.653  0.00  0.00    +0.000 A 
ATOM      4  C   UNL     1      12.967   3.022  97.702  0.00  0.00    +0.000 A 
ATOM      5  C   UNL     1      12.643   1.697  98.063  0.00  0.00    +0.000 A 
ATOM      6  C   UNL     1      12.215   1.449  99.389  0.00  0.00    +0.000 A 
ATOM      7  C   UNL     1      13.434   3.354  96.325  0.00  0.00    +0.000 A 
ATOM      8  C   UNL     1      12.419   3.780  99.942  0.00  0.00    +0.000 A 
ATOM      9  C   UNL     1      13.182   2.469  95.179  0.00  0.00    +0.000 A 
ATOM     10  C   UNL     1      12.107   2.483 100.313  0.00  0.00    +0.000 A 
ATOM     11  C   UNL     1      12.865   1.129  95.342  0.00  0.00    +0.000 A 
ATOM     12  C   UNL     1      11.839   0.077  99.904  0.00  0.00    +0.000 C 
ATOM     13  C   UNL     1      13.286   3.020  93.897  0.00  0.00    +0.000 A 
ATOM     14  C   UNL     1      12.644   0.345  94.207  0.00  0.00    +0.000 A 
ATOM     15  C   UNL     1      13.057   2.233  92.773  0.00  0.00    +0.000 A 
ATOM     16  C   UNL     1      12.732   0.890  92.928  0.00  0.00    +0.000 A 
ENDROOT
BRANCH   3  17
ATOM     17  N   UNL     1      13.071   5.435  98.286  0.00  0.00    +0.000 N 
ATOM     18  H   UNL     1      13.886   5.540  97.664  0.00  0.00    +0.000 HD
BRANCH  17  19
ATOM     19  C   UNL     1      12.873   6.480  99.276  0.00  0.00    +0.000 C 
ATOM     20  C   UNL     1      12.662   7.582 100.319  0.00  0.00    +0.000 C 
BRANCH  20  21
ATOM     21  N   UNL     1      12.459   8.636 101.300  0.00  0.00    +0.000 N 
BRANCH  21  22
ATOM     22  C   UNL     1      11.208   9.294 100.974  0.00  0.00    +0.000 C 
ATOM     23  C   UNL     1       9.880   9.977 100.634  0.00  0.00    +0.000 C 
ENDBRANCH  21  22
BRANCH  21  24
ATOM     24  C   UNL     1      13.507   9.618 101.093  0.00  0.00    +0.000 C 
ATOM     25  C   UNL     1      14.602  10.669 100.887  0.00  0.00    +0.000 C 
ENDBRANCH  21  24
ENDBRANCH  20  21
ENDBRANCH  17  19
ENDBRANCH   3  17
TORSDOF 5
ENDMDL
MODEL 4
REMARK VINA RESULT:      -4.9     18.654     20.422
REMARK  Name = LUCANTHONE.pdbqt.pdb
REMARK  5 active torsions:
REMARK  status: ('A' for Active; 'I' for Inactive)
REMARK    1  A    between atoms: C_3  and  N_17
REMARK    2  A    between atoms: N_17  and  C_19
REMARK    3  A    between atoms: C_20  and  N_21
REMARK    4  A    between atoms: N_21  and  C_22
REMARK    5  A    between atoms: N_21  and  C_24
REMARK                            x       y       z     vdW  Elec       q    Type
REMARK                         _______ _______ _______ _____ _____    ______ ____
ROOT
ATOM      1  S   UNL     1      42.038  27.106  85.455  0.00  0.00    +0.000 S 
ATOM      2  O   UNL     1      46.301  27.846  85.745  0.00  0.00    +0.000 OA
ATOM      3  C   UNL     1      45.668  25.699  84.067  0.00  0.00    +0.000 A 
ATOM      4  C   UNL     1      44.684  26.415  84.806  0.00  0.00    +0.000 A 
ATOM      5  C   UNL     1      43.310  26.189  84.581  0.00  0.00    +0.000 A 
ATOM      6  C   UNL     1      42.938  25.228  83.612  0.00  0.00    +0.000 A 
ATOM      7  C   UNL     1      45.148  27.420  85.805  0.00  0.00    +0.000 A 
ATOM      8  C   UNL     1      45.245  24.740  83.140  0.00  0.00    +0.000 A 
ATOM      9  C   UNL     1      44.280  27.904  86.888  0.00  0.00    +0.000 A 
ATOM     10  C   UNL     1      43.899  24.515  82.902  0.00  0.00    +0.000 A 
ATOM     11  C   UNL     1      42.899  27.781  86.834  0.00  0.00    +0.000 A 
ATOM     12  C   UNL     1      41.502  24.891  83.275  0.00  0.00    +0.000 C 
ATOM     13  C   UNL     1      44.892  28.513  87.989  0.00  0.00    +0.000 A 
ATOM     14  C   UNL     1      42.136  28.269  87.897  0.00  0.00    +0.000 A 
ATOM     15  C   UNL     1      44.124  28.989  89.047  0.00  0.00    +0.000 A 
ATOM     16  C   UNL     1      42.740  28.864  89.003  0.00  0.00    +0.000 A 
ENDROOT
BRANCH   3  17
ATOM     17  N   UNL     1      47.053  25.813  84.359  0.00  0.00    +0.000 N 
ATOM     18  H   UNL     1      47.490  26.570  83.811  0.00  0.00    +0.000 HD
BRANCH  17  19
ATOM     19  C   UNL     1      47.846  24.610  84.549  0.00  0.00    +0.000 C 
ATOM     20  C   UNL     1      48.682  23.342  84.751  0.00  0.00    +0.000 C 
BRANCH  20  21
ATOM     21  N   UNL     1      49.484  22.146  84.948  0.00  0.00    +0.000 N 
BRANCH  21  22
ATOM     22  C   UNL     1      48.710  21.240  85.776  0.00  0.00    +0.000 C 
ATOM     23  C   UNL     1      47.887  20.277  86.638  0.00  0.00    +0.000 C 
ENDBRANCH  21  22
BRANCH  21  24
ATOM     24  C   UNL     1      50.641  22.532  85.732  0.00  0.00    +0.000 C 
ATOM     25  C   UNL     1      51.876  22.930  86.547  0.00  0.00    +0.000 C 
ENDBRANCH  21  24
ENDBRANCH  20  21
ENDBRANCH  17  19
ENDBRANCH   3  17
TORSDOF 5
ENDMDL
MODEL 5
REMARK VINA RESULT:      -4.9     15.330     17.162
REMARK  Name = LUCANTHONE.pdbqt.pdb
REMARK  5 active torsions:
REMARK  status: ('A' for Active; 'I' for Inactive)
REMARK    1  A    between atoms: C_3  and  N_17
REMARK    2  A    between atoms: N_17  and  C_19
REMARK    3  A    between atoms: C_20  and  N_21
REMARK    4  A    between atoms: N_21  and  C_22
REMARK    5  A    between atoms: N_21  and  C_24
REMARK                            x       y       z     vdW  Elec       q    Type
REMARK                         _______ _______ _______ _____ _____    ______ ____
ROOT
ATOM      1  S   UNL     1      43.845  27.761  70.477  0.00  0.00    +0.000 S 
ATOM      2  O   UNL     1      47.235  26.979  67.889  0.00  0.00    +0.000 OA
ATOM      3  C   UNL     1      46.152  24.659  69.015  0.00  0.00    +0.000 A 
ATOM      4  C   UNL     1      45.677  25.963  69.332  0.00  0.00    +0.000 A 
ATOM      5  C   UNL     1      44.505  26.136  70.097  0.00  0.00    +0.000 A 
ATOM      6  C   UNL     1      43.822  24.981  70.547  0.00  0.00    +0.000 A 
ATOM      7  C   UNL     1      46.442  27.135  68.817  0.00  0.00    +0.000 A 
ATOM      8  C   UNL     1      45.453  23.552  69.509  0.00  0.00    +0.000 A 
ATOM      9  C   UNL     1      46.304  28.476  69.400  0.00  0.00    +0.000 A 
ATOM     10  C   UNL     1      44.296  23.706  70.254  0.00  0.00    +0.000 A 
ATOM     11  C   UNL     1      45.207  28.834  70.171  0.00  0.00    +0.000 A 
ATOM     12  C   UNL     1      42.556  25.027  71.374  0.00  0.00    +0.000 C 
ATOM     13  C   UNL     1      47.319  29.405  69.143  0.00  0.00    +0.000 A 
ATOM     14  C   UNL     1      45.139  30.129  70.689  0.00  0.00    +0.000 A 
ATOM     15  C   UNL     1      47.246  30.691  69.670  0.00  0.00    +0.000 A 
ATOM     16  C   UNL     1      46.153  31.054  70.448  0.00  0.00    +0.000 A 
ENDROOT
BRANCH   3  17
ATOM     17  N   UNL     1      47.393  24.454  68.357  0.00  0.00    +0.000 N 
ATOM     18  H   UNL     1      47.255  24.218  67.362  0.00  0.00    +0.000 HD
BRANCH  17  19
ATOM     19  C   UNL     1      48.462  23.751  69.046  0.00  0.00    +0.000 C 
ATOM     20  C   UNL     1      49.591  23.012  69.772  0.00  0.00    +0.000 C 
BRANCH  20  21
ATOM     21  N   UNL     1      50.667  22.309  70.451  0.00  0.00    +0.000 N 
BRANCH  21  22
ATOM     22  C   UNL     1      51.282  23.247  71.372  0.00  0.00    +0.000 C 
ATOM     23  C   UNL     1      51.936  24.225  72.352  0.00  0.00    +0.000 C 
ENDBRANCH  21  22
BRANCH  21  24
ATOM     24  C   UNL     1      51.670  21.996  69.451  0.00  0.00    +0.000 C 
ATOM     25  C   UNL     1      52.716  21.654  68.386  0.00  0.00    +0.000 C 
ENDBRANCH  21  24
ENDBRANCH  20  21
ENDBRANCH  17  19
ENDBRANCH   3  17
TORSDOF 5
ENDMDL
MODEL 6
REMARK VINA RESULT:      -4.8     19.337     22.247
REMARK  Name = LUCANTHONE.pdbqt.pdb
REMARK  5 active torsions:
REMARK  status: ('A' for Active; 'I' for Inactive)
REMARK    1  A    between atoms: C_3  and  N_17
REMARK    2  A    between atoms: N_17  and  C_19
REMARK    3  A    between atoms: C_20  and  N_21
REMARK    4  A    between atoms: N_21  and  C_22
REMARK    5  A    between atoms: N_21  and  C_24
REMARK                            x       y       z     vdW  Elec       q    Type
REMARK                         _______ _______ _______ _____ _____    ______ ____
ROOT
ATOM      1  S   UNL     1      40.436  21.585  76.732  0.00  0.00    +0.000 S 
ATOM      2  O   UNL     1      40.381  25.189  79.142  0.00  0.00    +0.000 OA
ATOM      3  C   UNL     1      40.619  22.853  80.662  0.00  0.00    +0.000 A 
ATOM      4  C   UNL     1      40.454  22.839  79.248  0.00  0.00    +0.000 A 
ATOM      5  C   UNL     1      40.587  21.638  78.520  0.00  0.00    +0.000 A 
ATOM      6  C   UNL     1      40.880  20.451  79.232  0.00  0.00    +0.000 A 
ATOM      7  C   UNL     1      40.155  24.129  78.561  0.00  0.00    +0.000 A 
ATOM      8  C   UNL     1      40.880  21.646  81.319  0.00  0.00    +0.000 A 
ATOM      9  C   UNL     1      39.569  24.180  77.215  0.00  0.00    +0.000 A 
ATOM     10  C   UNL     1      41.024  20.461  80.616  0.00  0.00    +0.000 A 
ATOM     11  C   UNL     1      39.619  23.097  76.349  0.00  0.00    +0.000 A 
ATOM     12  C   UNL     1      41.049  19.099  78.573  0.00  0.00    +0.000 C 
ATOM     13  C   UNL     1      38.960  25.375  76.816  0.00  0.00    +0.000 A 
ATOM     14  C   UNL     1      39.046  23.219  75.081  0.00  0.00    +0.000 A 
ATOM     15  C   UNL     1      38.386  25.485  75.554  0.00  0.00    +0.000 A 
ATOM     16  C   UNL     1      38.426  24.402  74.683  0.00  0.00    +0.000 A 
ENDROOT
BRANCH   3  17
ATOM     17  N   UNL     1      40.367  24.018  81.433  0.00  0.00    +0.000 N 
ATOM     18  H   UNL     1      39.806  24.703  80.904  0.00  0.00    +0.000 HD
BRANCH  17  19
ATOM     19  C   UNL     1      41.417  24.557  82.280  0.00  0.00    +0.000 C 
ATOM     20  C   UNL     1      42.525  25.127  83.172  0.00  0.00    +0.000 C 
BRANCH  20  21
ATOM     21  N   UNL     1      43.584  25.666  84.009  0.00  0.00    +0.000 N 
BRANCH  21  22
ATOM     22  C   UNL     1      43.606  27.103  83.806  0.00  0.00    +0.000 C 
ATOM     23  C   UNL     1      43.631  28.621  83.607  0.00  0.00    +0.000 C 
ENDBRANCH  21  22
BRANCH  21  24
ATOM     24  C   UNL     1      44.840  25.159  83.489  0.00  0.00    +0.000 C 
ATOM     25  C   UNL     1      46.162  24.605  82.949  0.00  0.00    +0.000 C 
ENDBRANCH  21  24
ENDBRANCH  20  21
ENDBRANCH  17  19
ENDBRANCH   3  17
TORSDOF 5
ENDMDL
MODEL 7
REMARK VINA RESULT:      -4.8     44.860     48.211
REMARK  Name = LUCANTHONE.pdbqt.pdb
REMARK  5 active torsions:
REMARK  status: ('A' for Active; 'I' for Inactive)
REMARK    1  A    between atoms: C_3  and  N_17
REMARK    2  A    between atoms: N_17  and  C_19
REMARK    3  A    between atoms: C_20  and  N_21
REMARK    4  A    between atoms: N_21  and  C_22
REMARK    5  A    between atoms: N_21  and  C_24
REMARK                            x       y       z     vdW  Elec       q    Type
REMARK                         _______ _______ _______ _____ _____    ______ ____
ROOT
ATOM      1  S   UNL     1      21.334   4.028  82.941  0.00  0.00    +0.000 S 
ATOM      2  O   UNL     1      21.536   5.241  87.099  0.00  0.00    +0.000 OA
ATOM      3  C   UNL     1      20.530   7.237  85.418  0.00  0.00    +0.000 A 
ATOM      4  C   UNL     1      20.998   5.984  84.931  0.00  0.00    +0.000 A 
ATOM      5  C   UNL     1      20.804   5.618  83.583  0.00  0.00    +0.000 A 
ATOM      6  C   UNL     1      20.142   6.532  82.729  0.00  0.00    +0.000 A 
ATOM      7  C   UNL     1      21.680   5.067  85.889  0.00  0.00    +0.000 A 
ATOM      8  C   UNL     1      19.907   8.114  84.523  0.00  0.00    +0.000 A 
ATOM      9  C   UNL     1      22.548   3.970  85.439  0.00  0.00    +0.000 A 
ATOM     10  C   UNL     1      19.701   7.764  83.199  0.00  0.00    +0.000 A 
ATOM     11  C   UNL     1      22.486   3.467  84.148  0.00  0.00    +0.000 A 
ATOM     12  C   UNL     1      19.871   6.262  81.264  0.00  0.00    +0.000 C 
ATOM     13  C   UNL     1      23.444   3.428  86.366  0.00  0.00    +0.000 A 
ATOM     14  C   UNL     1      23.338   2.419  83.791  0.00  0.00    +0.000 A 
ATOM     15  C   UNL     1      24.294   2.390  85.999  0.00  0.00    +0.000 A 
ATOM     16  C   UNL     1      24.243   1.884  84.705  0.00  0.00    +0.000 A 
ENDROOT
BRANCH   3  17
ATOM     17  N   UNL     1      20.822   7.686  86.733  0.00  0.00    +0.000 N 
ATOM     18  H   UNL     1      19.958   7.868  87.266  0.00  0.00    +0.000 HD
BRANCH  17  19
ATOM     19  C   UNL     1      21.922   8.610  86.947  0.00  0.00    +0.000 C 
ATOM     20  C   UNL     1      23.084   9.583  87.175  0.00  0.00    +0.000 C 
BRANCH  20  21
ATOM     21  N   UNL     1      24.186  10.504  87.401  0.00  0.00    +0.000 N 
BRANCH  21  22
ATOM     22  C   UNL     1      25.329  10.000  86.662  0.00  0.00    +0.000 C 
ATOM     23  C   UNL     1      26.531   9.453  85.887  0.00  0.00    +0.000 C 
ENDBRANCH  21  22
BRANCH  21  24
ATOM     24  C   UNL     1      24.534  10.415  88.807  0.00  0.00    +0.000 C 
ATOM     25  C   UNL     1      24.895  10.341  90.294  0.00  0.00    +0.000 C 
ENDBRANCH  21  24
ENDBRANCH  20  21
ENDBRANCH  17  19
ENDBRANCH   3  17
TORSDOF 5
ENDMDL
MODEL 8
REMARK VINA RESULT:      -4.5      4.629      6.735
REMARK  Name = LUCANTHONE.pdbqt.pdb
REMARK  5 active torsions:
REMARK  status: ('A' for Active; 'I' for Inactive)
REMARK    1  A    between atoms: C_3  and  N_17
REMARK    2  A    between atoms: N_17  and  C_19
REMARK    3  A    between atoms: C_20  and  N_21
REMARK    4  A    between atoms: N_21  and  C_22
REMARK    5  A    between atoms: N_21  and  C_24
REMARK                            x       y       z     vdW  Elec       q    Type
REMARK                         _______ _______ _______ _____ _____    ______ ____
ROOT
ATOM      1  S   UNL     1      66.430  37.828  75.785  0.00  0.00    +0.000 S 
ATOM      2  O   UNL     1      62.133  37.297  76.009  0.00  0.00    +0.000 OA
ATOM      3  C   UNL     1      63.560  34.954  76.552  0.00  0.00    +0.000 A 
ATOM      4  C   UNL     1      64.193  36.169  76.165  0.00  0.00    +0.000 A 
ATOM      5  C   UNL     1      65.597  36.298  76.216  0.00  0.00    +0.000 A 
ATOM      6  C   UNL     1      66.356  35.187  76.652  0.00  0.00    +0.000 A 
ATOM      7  C   UNL     1      63.330  37.303  75.725  0.00  0.00    +0.000 A 
ATOM      8  C   UNL     1      64.361  33.877  76.948  0.00  0.00    +0.000 A 
ATOM      9  C   UNL     1      63.855  38.423  74.932  0.00  0.00    +0.000 A 
ATOM     10  C   UNL     1      65.740  33.993  77.012  0.00  0.00    +0.000 A 
ATOM     11  C   UNL     1      65.210  38.712  74.875  0.00  0.00    +0.000 A 
ATOM     12  C   UNL     1      67.866  35.192  76.753  0.00  0.00    +0.000 C 
ATOM     13  C   UNL     1      62.935  39.213  74.233  0.00  0.00    +0.000 A 
ATOM     14  C   UNL     1      65.637  39.797  74.105  0.00  0.00    +0.000 A 
ATOM     15  C   UNL     1      63.370  40.286  73.463  0.00  0.00    +0.000 A 
ATOM     16  C   UNL     1      64.728  40.578  73.396  0.00  0.00    +0.000 A 
ENDROOT
BRANCH   3  17
ATOM     17  N   UNL     1      62.164  34.753  76.391  0.00  0.00    +0.000 N 
ATOM     18  H   UNL     1      61.665  34.861  77.287  0.00  0.00    +0.000 HD
BRANCH  17  19
ATOM     19  C   UNL     1      61.689  33.702  75.508  0.00  0.00    +0.000 C 
ATOM     20  C   UNL     1      61.186  32.594  74.577  0.00  0.00    +0.000 C 
BRANCH  20  21
ATOM     21  N   UNL     1      60.704  31.537  73.703  0.00  0.00    +0.000 N 
BRANCH  21  22
ATOM     22  C   UNL     1      61.846  31.036  72.960  0.00  0.00    +0.000 C 
ATOM     23  C   UNL     1      63.059  30.519  72.183  0.00  0.00    +0.000 C 
ENDBRANCH  21  22
BRANCH  21  24
ATOM     24  C   UNL     1      59.821  32.155  72.732  0.00  0.00    +0.000 C 
ATOM     25  C   UNL     1      58.881  32.789  71.702  0.00  0.00    +0.000 C 
ENDBRANCH  21  24
ENDBRANCH  20  21
ENDBRANCH  17  19
ENDBRANCH   3  17
TORSDOF 5
ENDMDL
MODEL 9
REMARK VINA RESULT:      -4.5     41.508     45.046
REMARK  Name = LUCANTHONE.pdbqt.pdb
REMARK  5 active torsions:
REMARK  status: ('A' for Active; 'I' for Inactive)
REMARK    1  A    between atoms: C_3  and  N_17
REMARK    2  A    between atoms: N_17  and  C_19
REMARK    3  A    between atoms: C_20  and  N_21
REMARK    4  A    between atoms: N_21  and  C_22
REMARK    5  A    between atoms: N_21  and  C_24
REMARK                            x       y       z     vdW  Elec       q    Type
REMARK                         _______ _______ _______ _____ _____    ______ ____
ROOT
ATOM      1  S   UNL     1      24.976   6.597  86.639  0.00  0.00    +0.000 S 
ATOM      2  O   UNL     1      22.724  10.285  86.987  0.00  0.00    +0.000 OA
ATOM      3  C   UNL     1      25.073  10.284  88.504  0.00  0.00    +0.000 A 
ATOM      4  C   UNL     1      24.635   9.151  87.762  0.00  0.00    +0.000 A 
ATOM      5  C   UNL     1      25.470   8.024  87.608  0.00  0.00    +0.000 A 
ATOM      6  C   UNL     1      26.746   8.047  88.219  0.00  0.00    +0.000 A 
ATOM      7  C   UNL     1      23.282   9.199  87.137  0.00  0.00    +0.000 A 
ATOM      8  C   UNL     1      26.334  10.242  89.111  0.00  0.00    +0.000 A 
ATOM      9  C   UNL     1      22.571   7.984  86.717  0.00  0.00    +0.000 A 
ATOM     10  C   UNL     1      27.167   9.146  88.961  0.00  0.00    +0.000 A 
ATOM     11  C   UNL     1      23.231   6.783  86.502  0.00  0.00    +0.000 A 
ATOM     12  C   UNL     1      27.736   6.906  88.132  0.00  0.00    +0.000 C 
ATOM     13  C   UNL     1      21.188   8.074  86.524  0.00  0.00    +0.000 A 
ATOM     14  C   UNL     1      22.491   5.669  86.098  0.00  0.00    +0.000 A 
ATOM     15  C   UNL     1      20.458   6.957  86.129  0.00  0.00    +0.000 A 
ATOM     16  C   UNL     1      21.112   5.748  85.917  0.00  0.00    +0.000 A 
ENDROOT
BRANCH   3  17
ATOM     17  N   UNL     1      24.210  11.376  88.781  0.00  0.00    +0.000 N 
ATOM     18  H   UNL     1      23.220  11.108  88.676  0.00  0.00    +0.000 HD
BRANCH  17  19
ATOM     19  C   UNL     1      24.572  12.708  88.325  0.00  0.00    +0.000 C 
ATOM     20  C   UNL     1      24.951  14.112  87.844  0.00  0.00    +0.000 C 
BRANCH  20  21
ATOM     21  N   UNL     1      25.301  15.447  87.385  0.00  0.00    +0.000 N 
BRANCH  21  22
ATOM     22  C   UNL     1      24.317  16.363  87.933  0.00  0.00    +0.000 C 
ATOM     23  C   UNL     1      23.269  17.319  88.509  0.00  0.00    +0.000 C 
ENDBRANCH  21  22
BRANCH  21  24
ATOM     24  C   UNL     1      25.121  15.463  85.946  0.00  0.00    +0.000 C 
ATOM     25  C   UNL     1      24.937  15.501  84.425  0.00  0.00    +0.000 C 
ENDBRANCH  21  24
ENDBRANCH  20  21
ENDBRANCH  17  19
ENDBRANCH   3  17
TORSDOF 5
ENDMDL
