MODEL 1
REMARK VINA RESULT:      -6.0      0.000      0.000
REMARK  Name = MeIQx.pdbqt.pdb
REMARK  0 active torsions:
REMARK  status: ('A' for Active; 'I' for Inactive)
REMARK                            x       y       z     vdW  Elec       q    Type
REMARK                         _______ _______ _______ _____ _____    ______ ____
ROOT
ATOM      1  N   UNL     1      57.722  35.522  80.736  0.00  0.00    +0.000 N 
ATOM      2  N   UNL     1      56.325  36.762  79.549  0.00  0.00    +0.000 NA
ATOM      3  N   UNL     1      56.855  37.529  76.764  0.00  0.00    +0.000 NA
ATOM      4  N   UNL     1      59.285  36.603  75.609  0.00  0.00    +0.000 NA
ATOM      5  C   UNL     1      58.326  35.650  79.514  0.00  0.00    +0.000 A 
ATOM      6  C   UNL     1      57.432  36.433  78.783  0.00  0.00    +0.000 A 
ATOM      7  C   UNL     1      57.752  36.765  77.443  0.00  0.00    +0.000 A 
ATOM      8  C   UNL     1      58.965  36.297  76.880  0.00  0.00    +0.000 A 
ATOM      9  C   UNL     1      56.519  36.209  80.725  0.00  0.00    +0.000 A 
ATOM     10  C   UNL     1      59.527  35.173  78.986  0.00  0.00    +0.000 A 
ATOM     11  C   UNL     1      59.811  35.521  77.661  0.00  0.00    +0.000 A 
ATOM     12  C   UNL     1      58.243  34.759  81.834  0.00  0.00    +0.000 C 
ATOM     13  C   UNL     1      57.194  37.824  75.493  0.00  0.00    +0.000 A 
ATOM     14  C   UNL     1      58.383  37.370  74.931  0.00  0.00    +0.000 A 
ATOM     15  C   UNL     1      56.253  38.662  74.674  0.00  0.00    +0.000 C 
ATOM     16  N   UNL     1      55.676  36.288  81.778  0.00  0.00    +0.000 N 
ATOM     17  H   UNL     1      54.736  36.637  81.617  0.00  0.00    +0.000 HD
ATOM     18  H   UNL     1      55.777  35.663  82.576  0.00  0.00    +0.000 HD
ENDROOT
TORSDOF 0
ENDMDL
MODEL 2
REMARK VINA RESULT:      -5.5      2.655      4.431
REMARK  Name = MeIQx.pdbqt.pdb
REMARK  0 active torsions:
REMARK  status: ('A' for Active; 'I' for Inactive)
REMARK                            x       y       z     vdW  Elec       q    Type
REMARK                         _______ _______ _______ _____ _____    ______ ____
ROOT
ATOM      1  N   UNL     1      57.106  36.381  76.621  0.00  0.00    +0.000 N 
ATOM      2  N   UNL     1      55.474  36.507  75.129  0.00  0.00    +0.000 NA
ATOM      3  N   UNL     1      55.617  38.239  72.762  0.00  0.00    +0.000 NA
ATOM      4  N   UNL     1      57.980  39.792  72.437  0.00  0.00    +0.000 NA
ATOM      5  C   UNL     1      57.554  37.282  75.692  0.00  0.00    +0.000 A 
ATOM      6  C   UNL     1      56.515  37.348  74.764  0.00  0.00    +0.000 A 
ATOM      7  C   UNL     1      56.652  38.205  73.644  0.00  0.00    +0.000 A 
ATOM      8  C   UNL     1      57.834  38.972  73.495  0.00  0.00    +0.000 A 
ATOM      9  C   UNL     1      55.846  35.937  76.254  0.00  0.00    +0.000 A 
ATOM     10  C   UNL     1      58.731  38.024  75.570  0.00  0.00    +0.000 A 
ATOM     11  C   UNL     1      58.831  38.860  74.454  0.00  0.00    +0.000 A 
ATOM     12  C   UNL     1      57.849  35.943  77.767  0.00  0.00    +0.000 C 
ATOM     13  C   UNL     1      55.784  39.067  71.710  0.00  0.00    +0.000 A 
ATOM     14  C   UNL     1      56.940  39.825  71.555  0.00  0.00    +0.000 A 
ATOM     15  C   UNL     1      54.687  39.159  70.688  0.00  0.00    +0.000 C 
ATOM     16  N   UNL     1      55.117  35.044  76.959  0.00  0.00    +0.000 N 
ATOM     17  H   UNL     1      54.303  34.630  76.514  0.00  0.00    +0.000 HD
ATOM     18  H   UNL     1      55.545  34.482  77.691  0.00  0.00    +0.000 HD
ENDROOT
TORSDOF 0
ENDMDL
MODEL 3
REMARK VINA RESULT:      -5.3     19.081     21.167
REMARK  Name = MeIQx.pdbqt.pdb
REMARK  0 active torsions:
REMARK  status: ('A' for Active; 'I' for Inactive)
REMARK                            x       y       z     vdW  Elec       q    Type
REMARK                         _______ _______ _______ _____ _____    ______ ____
ROOT
ATOM      1  N   UNL     1      40.574  22.793  81.191  0.00  0.00    +0.000 N 
ATOM      2  N   UNL     1      42.116  24.374  81.027  0.00  0.00    +0.000 NA
ATOM      3  N   UNL     1      42.724  26.233  83.217  0.00  0.00    +0.000 NA
ATOM      4  N   UNL     1      41.229  25.933  85.620  0.00  0.00    +0.000 NA
ATOM      5  C   UNL     1      40.548  23.430  82.403  0.00  0.00    +0.000 A 
ATOM      6  C   UNL     1      41.523  24.420  82.279  0.00  0.00    +0.000 A 
ATOM      7  C   UNL     1      41.764  25.283  83.377  0.00  0.00    +0.000 A 
ATOM      8  C   UNL     1      41.013  25.122  84.567  0.00  0.00    +0.000 A 
ATOM      9  C   UNL     1      41.528  23.390  80.383  0.00  0.00    +0.000 A 
ATOM     10  C   UNL     1      39.793  23.246  83.564  0.00  0.00    +0.000 A 
ATOM     11  C   UNL     1      40.057  24.117  84.626  0.00  0.00    +0.000 A 
ATOM     12  C   UNL     1      39.766  21.661  80.840  0.00  0.00    +0.000 C 
ATOM     13  C   UNL     1      42.924  27.035  84.282  0.00  0.00    +0.000 A 
ATOM     14  C   UNL     1      42.191  26.886  85.456  0.00  0.00    +0.000 A 
ATOM     15  C   UNL     1      43.970  28.109  84.186  0.00  0.00    +0.000 C 
ATOM     16  N   UNL     1      41.804  23.004  79.117  0.00  0.00    +0.000 N 
ATOM     17  H   UNL     1      42.647  23.364  78.679  0.00  0.00    +0.000 HD
ATOM     18  H   UNL     1      41.475  22.110  78.760  0.00  0.00    +0.000 HD
ENDROOT
TORSDOF 0
ENDMDL
MODEL 4
REMARK VINA RESULT:      -4.9     17.436     18.918
REMARK  Name = MeIQx.pdbqt.pdb
REMARK  0 active torsions:
REMARK  status: ('A' for Active; 'I' for Inactive)
REMARK                            x       y       z     vdW  Elec       q    Type
REMARK                         _______ _______ _______ _____ _____    ______ ____
ROOT
ATOM      1  N   UNL     1      52.475  20.407  76.783  0.00  0.00    +0.000 N 
ATOM      2  N   UNL     1      52.085  21.205  78.811  0.00  0.00    +0.000 NA
ATOM      3  N   UNL     1      50.390  19.817  80.766  0.00  0.00    +0.000 NA
ATOM      4  N   UNL     1      49.232  17.349  79.951  0.00  0.00    +0.000 NA
ATOM      5  C   UNL     1      51.654  19.480  77.368  0.00  0.00    +0.000 A 
ATOM      6  C   UNL     1      51.420  20.001  78.641  0.00  0.00    +0.000 A 
ATOM      7  C   UNL     1      50.592  19.277  79.535  0.00  0.00    +0.000 A 
ATOM      8  C   UNL     1      50.022  18.049  79.116  0.00  0.00    +0.000 A 
ATOM      9  C   UNL     1      52.711  21.437  77.679  0.00  0.00    +0.000 A 
ATOM     10  C   UNL     1      51.108  18.272  76.929  0.00  0.00    +0.000 A 
ATOM     11  C   UNL     1      50.294  17.586  77.836  0.00  0.00    +0.000 A 
ATOM     12  C   UNL     1      53.029  20.297  75.464  0.00  0.00    +0.000 C 
ATOM     13  C   UNL     1      49.596  19.100  81.587  0.00  0.00    +0.000 A 
ATOM     14  C   UNL     1      49.031  17.894  81.186  0.00  0.00    +0.000 A 
ATOM     15  C   UNL     1      49.327  19.628  82.968  0.00  0.00    +0.000 C 
ATOM     16  N   UNL     1      53.479  22.517  77.413  0.00  0.00    +0.000 N 
ATOM     17  H   UNL     1      53.757  23.111  78.189  0.00  0.00    +0.000 HD
ATOM     18  H   UNL     1      54.105  22.528  76.610  0.00  0.00    +0.000 HD
ENDROOT
TORSDOF 0
ENDMDL
MODEL 5
REMARK VINA RESULT:      -4.8     19.053     21.191
REMARK  Name = MeIQx.pdbqt.pdb
REMARK  0 active torsions:
REMARK  status: ('A' for Active; 'I' for Inactive)
REMARK                            x       y       z     vdW  Elec       q    Type
REMARK                         _______ _______ _______ _____ _____    ______ ____
ROOT
ATOM      1  N   UNL     1      43.236  27.111  84.917  0.00  0.00    +0.000 N 
ATOM      2  N   UNL     1      41.350  26.635  85.976  0.00  0.00    +0.000 NA
ATOM      3  N   UNL     1      39.470  24.588  85.029  0.00  0.00    +0.000 NA
ATOM      4  N   UNL     1      40.163  23.200  82.643  0.00  0.00    +0.000 NA
ATOM      5  C   UNL     1      42.657  26.123  84.167  0.00  0.00    +0.000 A 
ATOM      6  C   UNL     1      41.474  25.838  84.848  0.00  0.00    +0.000 A 
ATOM      7  C   UNL     1      40.612  24.837  84.334  0.00  0.00    +0.000 A 
ATOM      8  C   UNL     1      40.970  24.154  83.146  0.00  0.00    +0.000 A 
ATOM      9  C   UNL     1      42.419  27.399  85.999  0.00  0.00    +0.000 A 
ATOM     10  C   UNL     1      43.037  25.464  82.995  0.00  0.00    +0.000 A 
ATOM     11  C   UNL     1      42.162  24.484  82.516  0.00  0.00    +0.000 A 
ATOM     12  C   UNL     1      44.506  27.716  84.640  0.00  0.00    +0.000 C 
ATOM     13  C   UNL     1      38.676  23.630  84.509  0.00  0.00    +0.000 A 
ATOM     14  C   UNL     1      39.018  22.953  83.342  0.00  0.00    +0.000 A 
ATOM     15  C   UNL     1      37.396  23.293  85.220  0.00  0.00    +0.000 C 
ATOM     16  N   UNL     1      42.696  28.334  86.935  0.00  0.00    +0.000 N 
ATOM     17  H   UNL     1      42.147  28.335  87.790  0.00  0.00    +0.000 HD
ATOM     18  H   UNL     1      43.629  28.731  87.016  0.00  0.00    +0.000 HD
ENDROOT
TORSDOF 0
ENDMDL
MODEL 6
REMARK VINA RESULT:      -4.8     18.332     20.259
REMARK  Name = MeIQx.pdbqt.pdb
REMARK  0 active torsions:
REMARK  status: ('A' for Active; 'I' for Inactive)
REMARK                            x       y       z     vdW  Elec       q    Type
REMARK                         _______ _______ _______ _____ _____    ______ ____
ROOT
ATOM      1  N   UNL     1      41.235  22.457  81.877  0.00  0.00    +0.000 N 
ATOM      2  N   UNL     1      41.102  24.655  81.643  0.00  0.00    +0.000 NA
ATOM      3  N   UNL     1      42.842  26.516  83.102  0.00  0.00    +0.000 NA
ATOM      4  N   UNL     1      44.756  25.377  84.874  0.00  0.00    +0.000 NA
ATOM      5  C   UNL     1      42.199  22.954  82.714  0.00  0.00    +0.000 A 
ATOM      6  C   UNL     1      42.098  24.336  82.553  0.00  0.00    +0.000 A 
ATOM      7  C   UNL     1      42.971  25.175  83.289  0.00  0.00    +0.000 A 
ATOM      8  C   UNL     1      43.919  24.594  84.167  0.00  0.00    +0.000 A 
ATOM      9  C   UNL     1      40.589  23.510  81.250  0.00  0.00    +0.000 A 
ATOM     10  C   UNL     1      43.124  22.353  83.570  0.00  0.00    +0.000 A 
ATOM     11  C   UNL     1      43.968  23.212  84.282  0.00  0.00    +0.000 A 
ATOM     12  C   UNL     1      40.973  21.063  81.661  0.00  0.00    +0.000 C 
ATOM     13  C   UNL     1      43.689  27.282  83.820  0.00  0.00    +0.000 A 
ATOM     14  C   UNL     1      44.624  26.722  84.686  0.00  0.00    +0.000 A 
ATOM     15  C   UNL     1      43.613  28.775  83.668  0.00  0.00    +0.000 C 
ATOM     16  N   UNL     1      39.580  23.366  80.363  0.00  0.00    +0.000 N 
ATOM     17  H   UNL     1      39.308  24.173  79.809  0.00  0.00    +0.000 HD
ATOM     18  H   UNL     1      39.381  22.461  79.941  0.00  0.00    +0.000 HD
ENDROOT
TORSDOF 0
ENDMDL
MODEL 7
REMARK VINA RESULT:      -4.7      2.977      4.708
REMARK  Name = MeIQx.pdbqt.pdb
REMARK  0 active torsions:
REMARK  status: ('A' for Active; 'I' for Inactive)
REMARK                            x       y       z     vdW  Elec       q    Type
REMARK                         _______ _______ _______ _____ _____    ______ ____
ROOT
ATOM      1  N   UNL     1      57.184  37.056  76.328  0.00  0.00    +0.000 N 
ATOM      2  N   UNL     1      56.176  37.231  74.364  0.00  0.00    +0.000 NA
ATOM      3  N   UNL     1      57.446  36.404  71.849  0.00  0.00    +0.000 NA
ATOM      4  N   UNL     1      60.082  35.344  72.019  0.00  0.00    +0.000 NA
ATOM      5  C   UNL     1      58.095  36.573  75.428  0.00  0.00    +0.000 A 
ATOM      6  C   UNL     1      57.443  36.692  74.200  0.00  0.00    +0.000 A 
ATOM      7  C   UNL     1      58.116  36.273  73.025  0.00  0.00    +0.000 A 
ATOM      8  C   UNL     1      59.428  35.747  73.125  0.00  0.00    +0.000 A 
ATOM      9  C   UNL     1      56.039  37.448  75.653  0.00  0.00    +0.000 A 
ATOM     10  C   UNL     1      59.386  36.056  75.557  0.00  0.00    +0.000 A 
ATOM     11  C   UNL     1      60.020  35.655  74.377  0.00  0.00    +0.000 A 
ATOM     12  C   UNL     1      57.378  37.104  77.749  0.00  0.00    +0.000 C 
ATOM     13  C   UNL     1      58.119  35.995  70.754  0.00  0.00    +0.000 A 
ATOM     14  C   UNL     1      59.408  35.477  70.841  0.00  0.00    +0.000 A 
ATOM     15  C   UNL     1      57.446  36.104  69.415  0.00  0.00    +0.000 C 
ATOM     16  N   UNL     1      54.946  37.975  76.248  0.00  0.00    +0.000 N 
ATOM     17  H   UNL     1      54.090  38.044  75.706  0.00  0.00    +0.000 HD
ATOM     18  H   UNL     1      54.819  37.914  77.256  0.00  0.00    +0.000 HD
ENDROOT
TORSDOF 0
ENDMDL
MODEL 8
REMARK VINA RESULT:      -4.7     56.778     59.038
REMARK  Name = MeIQx.pdbqt.pdb
REMARK  0 active torsions:
REMARK  status: ('A' for Active; 'I' for Inactive)
REMARK                            x       y       z     vdW  Elec       q    Type
REMARK                         _______ _______ _______ _____ _____    ______ ____
ROOT
ATOM      1  N   UNL     1      13.494   6.084  98.093  0.00  0.00    +0.000 N 
ATOM      2  N   UNL     1      14.078   4.696  96.469  0.00  0.00    +0.000 NA
ATOM      3  N   UNL     1      13.344   1.853  96.468  0.00  0.00    +0.000 NA
ATOM      4  N   UNL     1      11.820   0.911  98.679  0.00  0.00    +0.000 NA
ATOM      5  C   UNL     1      12.968   4.875  98.464  0.00  0.00    +0.000 A 
ATOM      6  C   UNL     1      13.346   4.017  97.431  0.00  0.00    +0.000 A 
ATOM      7  C   UNL     1      12.957   2.656  97.495  0.00  0.00    +0.000 A 
ATOM      8  C   UNL     1      12.198   2.201  98.601  0.00  0.00    +0.000 A 
ATOM      9  C   UNL     1      14.161   5.940  96.887  0.00  0.00    +0.000 A 
ATOM     10  C   UNL     1      12.218   4.455  99.565  0.00  0.00    +0.000 A 
ATOM     11  C   UNL     1      11.854   3.106  99.596  0.00  0.00    +0.000 A 
ATOM     12  C   UNL     1      13.338   7.308  98.825  0.00  0.00    +0.000 C 
ATOM     13  C   UNL     1      12.956   0.565  96.565  0.00  0.00    +0.000 A 
ATOM     14  C   UNL     1      12.211   0.108  97.648  0.00  0.00    +0.000 A 
ATOM     15  C   UNL     1      13.341  -0.386  95.468  0.00  0.00    +0.000 C 
ATOM     16  N   UNL     1      14.800   6.943  96.245  0.00  0.00    +0.000 N 
ATOM     17  H   UNL     1      15.084   6.792  95.281  0.00  0.00    +0.000 HD
ATOM     18  H   UNL     1      14.642   7.914  96.506  0.00  0.00    +0.000 HD
ENDROOT
TORSDOF 0
ENDMDL
MODEL 9
REMARK VINA RESULT:      -4.7     56.859     58.702
REMARK  Name = MeIQx.pdbqt.pdb
REMARK  0 active torsions:
REMARK  status: ('A' for Active; 'I' for Inactive)
REMARK                            x       y       z     vdW  Elec       q    Type
REMARK                         _______ _______ _______ _____ _____    ______ ____
ROOT
ATOM      1  N   UNL     1      12.661   7.807  99.902  0.00  0.00    +0.000 N 
ATOM      2  N   UNL     1      11.693   5.922 100.544  0.00  0.00    +0.000 NA
ATOM      3  N   UNL     1      12.062   3.381  99.120  0.00  0.00    +0.000 NA
ATOM      4  N   UNL     1      13.748   3.417  96.827  0.00  0.00    +0.000 NA
ATOM      5  C   UNL     1      13.080   6.874  98.991  0.00  0.00    +0.000 A 
ATOM      6  C   UNL     1      12.460   5.697  99.412  0.00  0.00    +0.000 A 
ATOM      7  C   UNL     1      12.684   4.506  98.677  0.00  0.00    +0.000 A 
ATOM      8  C   UNL     1      13.525   4.539  97.538  0.00  0.00    +0.000 A 
ATOM      9  C   UNL     1      11.822   7.200 100.823  0.00  0.00    +0.000 A 
ATOM     10  C   UNL     1      13.916   6.936  97.874  0.00  0.00    +0.000 A 
ATOM     11  C   UNL     1      14.112   5.742  97.172  0.00  0.00    +0.000 A 
ATOM     12  C   UNL     1      13.067   9.183  99.915  0.00  0.00    +0.000 C 
ATOM     13  C   UNL     1      12.298   2.268  98.395  0.00  0.00    +0.000 A 
ATOM     14  C   UNL     1      13.123   2.290  97.274  0.00  0.00    +0.000 A 
ATOM     15  C   UNL     1      11.651   0.982  98.822  0.00  0.00    +0.000 C 
ATOM     16  N   UNL     1      11.230   7.843 101.854  0.00  0.00    +0.000 N 
ATOM     17  H   UNL     1      10.800   7.284 102.585  0.00  0.00    +0.000 HD
ATOM     18  H   UNL     1      11.541   8.768 102.139  0.00  0.00    +0.000 HD
ENDROOT
TORSDOF 0
ENDMDL
