MODEL 1
REMARK VINA RESULT:      -6.8      0.000      0.000
REMARK  Name = Methotrexate.pdbqt.pdb
REMARK  9 active torsions:
REMARK  status: ('A' for Active; 'I' for Inactive)
REMARK    1  A    between atoms: C_1  and  N_22
REMARK    2  A    between atoms: C_2  and  C_9
REMARK    3  A    between atoms: CA_11  and  C_13
REMARK    4  A    between atoms: CA_11  and  CB_16
REMARK    5  A    between atoms: C_13  and  O_14
REMARK    6  A    between atoms: CG_17  and  CD_19
REMARK    7  A    between atoms: CD_19  and  OE1_20
REMARK    8  A    between atoms: N_22  and  C_24
REMARK    9  A    between atoms: C_24  and  C_31
REMARK                            x       y       z     vdW  Elec       q    Type
REMARK                         _______ _______ _______ _____ _____    ______ ____
ROOT
ATOM      1  C   UNL     1      47.488  20.419  83.304  0.00  0.00    +0.000 A 
ATOM      2  C   UNL     1      45.538  22.443  83.620  0.00  0.00    +0.000 A 
ATOM      3  C   UNL     1      47.822  21.777  83.205  0.00  0.00    +0.000 A 
ATOM      4  C   UNL     1      46.145  20.105  83.558  0.00  0.00    +0.000 A 
ATOM      5  C   UNL     1      46.865  22.779  83.363  0.00  0.00    +0.000 A 
ATOM      6  C   UNL     1      45.180  21.100  83.717  0.00  0.00    +0.000 A 
ENDROOT
BRANCH   2   9
ATOM      7  O   UNL     1      44.550  24.222  84.759  0.00  0.00    +0.000 OA
ATOM      8  N   UNL     1      43.492  23.498  82.830  0.00  0.00    +0.000 N 
ATOM      9  C   ACE A   0      44.482  23.472  83.793  0.00  0.00    +0.000 C 
ATOM     10  H   UNL     1      43.521  22.832  82.063  0.00  0.00    +0.000 HD
ATOM     11  CA  UNL     1      42.407  24.355  82.773  0.00  0.00    +0.000 C 
BRANCH  11  13
ATOM     12  OXT UNL     1      40.514  24.859  81.406  0.00  0.00    +0.000 OA
ATOM     13  C   UNL     1      41.492  24.159  81.621  0.00  0.00    +0.000 C 
BRANCH  13  14
ATOM     14  O   UNL     1      41.827  23.137  80.820  0.00  0.00    +0.000 OA
ATOM     15  H   UNL     1      42.320  22.514  81.393  0.00  0.00    +0.000 HD
ENDBRANCH  13  14
ENDBRANCH  11  13
BRANCH  11  16
ATOM     16  CB  UNL     1      42.177  25.354  83.755  0.00  0.00    +0.000 C 
ATOM     17  CG  UNL     1      41.941  26.441  84.811  0.00  0.00    +0.000 C 
BRANCH  17  19
ATOM     18  OE2 UNL     1      41.031  27.320  86.776  0.00  0.00    +0.000 OA
ATOM     19  CD  UNL     1      41.738  27.462  85.793  0.00  0.00    +0.000 C 
BRANCH  19  20
ATOM     20  OE1 UNL     1      42.383  28.613  85.529  0.00  0.00    +0.000 OA
ATOM     21  HE1 UNL     1      43.215  28.315  85.110  0.00  0.00    +0.000 HD
ENDBRANCH  19  20
ENDBRANCH  17  19
ENDBRANCH  11  16
ENDBRANCH   2   9
BRANCH   1  22
ATOM     22  N   UNL     1      48.468  19.414  83.122  0.00  0.00    +0.000 N 
ATOM     23  C   UNL     1      49.111  18.772  84.254  0.00  0.00    +0.000 C 
BRANCH  22  24
ATOM     24  C   UNL     1      49.167  19.293  81.859  0.00  0.00    +0.000 C 
BRANCH  24  31
ATOM     25  N   UNL     1      50.670  20.143  80.316  0.00  0.00    +0.000 NA
ATOM     26  N   UNL     1      50.260  17.895  78.397  0.00  0.00    +0.000 NA
ATOM     27  N   UNL     1      51.753  18.894  76.939  0.00  0.00    +0.000 NA
ATOM     28  N   UNL     1      52.902  20.894  77.480  0.00  0.00    +0.000 NA
ATOM     29  N   UNL     1      52.683  22.055  79.443  0.00  0.00    +0.000 N 
ATOM     30  N   UNL     1      53.205  19.826  75.462  0.00  0.00    +0.000 N 
ATOM     31  C   UNL     1      49.851  19.176  80.621  0.00  0.00    +0.000 C 
ATOM     32  C   UNL     1      49.761  18.169  79.611  0.00  0.00    +0.000 C 
ATOM     33  C   UNL     1      51.334  20.008  79.080  0.00  0.00    +0.000 C 
ATOM     34  C   UNL     1      51.086  18.868  78.121  0.00  0.00    +0.000 C 
ATOM     35  C   UNL     1      52.336  20.999  78.641  0.00  0.00    +0.000 C 
ATOM     36  C   UNL     1      52.575  19.853  76.661  0.00  0.00    +0.000 C 
ATOM     37  H   UNL     1      53.108  22.831  78.949  0.00  0.00    +0.000 HD
ATOM     38  H   UNL     1      52.009  22.312  80.156  0.00  0.00    +0.000 HD
ATOM     39  H   UNL     1      54.097  20.302  75.473  0.00  0.00    +0.000 HD
ATOM     40  H   UNL     1      53.223  18.902  75.052  0.00  0.00    +0.000 HD
ENDBRANCH  24  31
ENDBRANCH  22  24
ENDBRANCH   1  22
TORSDOF 9
ENDMDL
MODEL 2
REMARK VINA RESULT:      -6.4      5.534     11.075
REMARK  Name = Methotrexate.pdbqt.pdb
REMARK  9 active torsions:
REMARK  status: ('A' for Active; 'I' for Inactive)
REMARK    1  A    between atoms: C_1  and  N_22
REMARK    2  A    between atoms: C_2  and  C_9
REMARK    3  A    between atoms: CA_11  and  C_13
REMARK    4  A    between atoms: CA_11  and  CB_16
REMARK    5  A    between atoms: C_13  and  O_14
REMARK    6  A    between atoms: CG_17  and  CD_19
REMARK    7  A    between atoms: CD_19  and  OE1_20
REMARK    8  A    between atoms: N_22  and  C_24
REMARK    9  A    between atoms: C_24  and  C_31
REMARK                            x       y       z     vdW  Elec       q    Type
REMARK                         _______ _______ _______ _____ _____    ______ ____
ROOT
ATOM      1  C   UNL     1      47.925  21.080  84.150  0.00  0.00    +0.000 A 
ATOM      2  C   UNL     1      50.398  20.444  82.934  0.00  0.00    +0.000 A 
ATOM      3  C   UNL     1      49.126  21.125  84.871  0.00  0.00    +0.000 A 
ATOM      4  C   UNL     1      47.999  20.699  82.802  0.00  0.00    +0.000 A 
ATOM      5  C   UNL     1      50.349  20.814  84.276  0.00  0.00    +0.000 A 
ATOM      6  C   UNL     1      49.217  20.387  82.197  0.00  0.00    +0.000 A 
ENDROOT
BRANCH   2   9
ATOM      7  O   UNL     1      52.493  19.422  82.860  0.00  0.00    +0.000 OA
ATOM      8  N   UNL     1      51.832  20.592  80.972  0.00  0.00    +0.000 N 
ATOM      9  C   ACE A   0      51.674  20.103  82.256  0.00  0.00    +0.000 C 
ATOM     10  H   UNL     1      51.093  21.151  80.554  0.00  0.00    +0.000 HD
ATOM     11  CA  UNL     1      52.924  20.415  80.142  0.00  0.00    +0.000 C 
BRANCH  11  13
ATOM     12  OXT UNL     1      51.954  20.798  77.993  0.00  0.00    +0.000 OA
ATOM     13  C   UNL     1      52.828  21.055  78.807  0.00  0.00    +0.000 C 
BRANCH  13  14
ATOM     14  O   UNL     1      53.793  21.953  78.556  0.00  0.00    +0.000 OA
ATOM     15  H   UNL     1      53.320  22.796  78.395  0.00  0.00    +0.000 HD
ENDBRANCH  13  14
ENDBRANCH  11  13
BRANCH  11  16
ATOM     16  CB  UNL     1      54.067  19.672  80.539  0.00  0.00    +0.000 C 
ATOM     17  CG  UNL     1      55.303  18.878  80.980  0.00  0.00    +0.000 C 
BRANCH  17  19
ATOM     18  OE2 UNL     1      56.848  18.116  82.559  0.00  0.00    +0.000 OA
ATOM     19  CD  UNL     1      56.460  18.150  81.404  0.00  0.00    +0.000 C 
BRANCH  19  20
ATOM     20  OE1 UNL     1      57.103  17.514  80.409  0.00  0.00    +0.000 OA
ATOM     21  HE1 UNL     1      58.040  17.546  80.688  0.00  0.00    +0.000 HD
ENDBRANCH  19  20
ENDBRANCH  17  19
ENDBRANCH  11  16
ENDBRANCH   2   9
BRANCH   1  22
ATOM     22  N   UNL     1      46.690  21.378  84.774  0.00  0.00    +0.000 N 
ATOM     23  C   UNL     1      45.887  20.340  85.395  0.00  0.00    +0.000 C 
BRANCH  22  24
ATOM     24  C   UNL     1      45.985  22.602  84.455  0.00  0.00    +0.000 C 
BRANCH  24  31
ATOM     25  N   UNL     1      45.734  24.890  84.705  0.00  0.00    +0.000 NA
ATOM     26  N   UNL     1      43.325  25.008  82.948  0.00  0.00    +0.000 NA
ATOM     27  N   UNL     1      43.181  27.285  83.333  0.00  0.00    +0.000 NA
ATOM     28  N   UNL     1      44.774  28.449  84.644  0.00  0.00    +0.000 NA
ATOM     29  N   UNL     1      46.591  27.499  85.669  0.00  0.00    +0.000 N 
ATOM     30  N   UNL     1      42.982  29.522  83.674  0.00  0.00    +0.000 N 
ATOM     31  C   UNL     1      45.291  23.800  84.144  0.00  0.00    +0.000 C 
ATOM     32  C   UNL     1      44.137  24.011  83.328  0.00  0.00    +0.000 C 
ATOM     33  C   UNL     1      45.027  26.067  84.385  0.00  0.00    +0.000 C 
ATOM     34  C   UNL     1      43.796  26.089  83.510  0.00  0.00    +0.000 C 
ATOM     35  C   UNL     1      45.461  27.380  84.901  0.00  0.00    +0.000 C 
ATOM     36  C   UNL     1      43.646  28.359  83.883  0.00  0.00    +0.000 C 
ATOM     37  H   UNL     1      46.626  28.342  86.230  0.00  0.00    +0.000 HD
ATOM     38  H   UNL     1      46.902  26.654  86.136  0.00  0.00    +0.000 HD
ATOM     39  H   UNL     1      43.579  30.336  83.739  0.00  0.00    +0.000 HD
ATOM     40  H   UNL     1      42.394  29.492  82.852  0.00  0.00    +0.000 HD
ENDBRANCH  24  31
ENDBRANCH  22  24
ENDBRANCH   1  22
TORSDOF 9
ENDMDL
MODEL 3
REMARK VINA RESULT:      -6.4     18.473     20.569
REMARK  Name = Methotrexate.pdbqt.pdb
REMARK  9 active torsions:
REMARK  status: ('A' for Active; 'I' for Inactive)
REMARK    1  A    between atoms: C_1  and  N_22
REMARK    2  A    between atoms: C_2  and  C_9
REMARK    3  A    between atoms: CA_11  and  C_13
REMARK    4  A    between atoms: CA_11  and  CB_16
REMARK    5  A    between atoms: C_13  and  O_14
REMARK    6  A    between atoms: CG_17  and  CD_19
REMARK    7  A    between atoms: CD_19  and  OE1_20
REMARK    8  A    between atoms: N_22  and  C_24
REMARK    9  A    between atoms: C_24  and  C_31
REMARK                            x       y       z     vdW  Elec       q    Type
REMARK                         _______ _______ _______ _____ _____    ______ ____
ROOT
ATOM      1  C   UNL     1      64.043  33.475  86.812  0.00  0.00    +0.000 A 
ATOM      2  C   UNL     1      61.253  33.923  86.699  0.00  0.00    +0.000 A 
ATOM      3  C   UNL     1      63.517  34.707  86.398  0.00  0.00    +0.000 A 
ATOM      4  C   UNL     1      63.128  32.472  87.161  0.00  0.00    +0.000 A 
ATOM      5  C   UNL     1      62.142  34.934  86.343  0.00  0.00    +0.000 A 
ATOM      6  C   UNL     1      61.751  32.688  87.109  0.00  0.00    +0.000 A 
ENDROOT
BRANCH   2   9
ATOM      7  O   UNL     1      59.091  33.529  87.480  0.00  0.00    +0.000 OA
ATOM      8  N   UNL     1      59.305  34.955  85.666  0.00  0.00    +0.000 N 
ATOM      9  C   ACE A   0      59.781  34.114  86.655  0.00  0.00    +0.000 C 
ATOM     10  H   UNL     1      59.958  35.396  85.025  0.00  0.00    +0.000 HD
ATOM     11  CA  UNL     1      57.984  35.287  85.421  0.00  0.00    +0.000 C 
BRANCH  11  13
ATOM     12  OXT UNL     1      56.768  36.179  83.568  0.00  0.00    +0.000 OA
ATOM     13  C   UNL     1      57.755  36.217  84.287  0.00  0.00    +0.000 C 
BRANCH  13  14
ATOM     14  O   UNL     1      58.732  37.118  84.108  0.00  0.00    +0.000 OA
ATOM     15  H   UNL     1      59.296  37.044  84.906  0.00  0.00    +0.000 HD
ENDBRANCH  13  14
ENDBRANCH  11  13
BRANCH  11  16
ATOM     16  CB  UNL     1      56.914  34.770  86.198  0.00  0.00    +0.000 C 
ATOM     17  CG  UNL     1      55.767  34.202  87.041  0.00  0.00    +0.000 C 
BRANCH  17  19
ATOM     18  OE2 UNL     1      54.861  32.746  88.630  0.00  0.00    +0.000 OA
ATOM     19  CD  UNL     1      54.707  33.657  87.834  0.00  0.00    +0.000 C 
BRANCH  19  20
ATOM     20  OE1 UNL     1      53.508  34.226  87.613  0.00  0.00    +0.000 OA
ATOM     21  HE1 UNL     1      53.299  34.651  88.468  0.00  0.00    +0.000 HD
ENDBRANCH  19  20
ENDBRANCH  17  19
ENDBRANCH  11  16
ENDBRANCH   2   9
BRANCH   1  22
ATOM     22  N   UNL     1      65.441  33.255  86.844  0.00  0.00    +0.000 N 
ATOM     23  C   UNL     1      66.178  33.259  88.095  0.00  0.00    +0.000 C 
BRANCH  22  24
ATOM     24  C   UNL     1      66.239  33.446  85.651  0.00  0.00    +0.000 C 
BRANCH  24  31
ATOM     25  N   UNL     1      67.746  32.620  84.098  0.00  0.00    +0.000 NA
ATOM     26  N   UNL     1      67.866  35.183  82.574  0.00  0.00    +0.000 NA
ATOM     27  N   UNL     1      69.402  34.229  81.131  0.00  0.00    +0.000 NA
ATOM     28  N   UNL     1      70.079  31.966  81.320  0.00  0.00    +0.000 NA
ATOM     29  N   UNL     1      69.331  30.491  82.906  0.00  0.00    +0.000 N 
ATOM     30  N   UNL     1      70.916  33.352  79.682  0.00  0.00    +0.000 N 
ATOM     31  C   UNL     1      67.020  33.634  84.481  0.00  0.00    +0.000 C 
ATOM     32  C   UNL     1      67.177  34.788  83.654  0.00  0.00    +0.000 C 
ATOM     33  C   UNL     1      68.516  32.831  82.936  0.00  0.00    +0.000 C 
ATOM     34  C   UNL     1      68.573  34.149  82.202  0.00  0.00    +0.000 C 
ATOM     35  C   UNL     1      69.333  31.747  82.358  0.00  0.00    +0.000 C 
ATOM     36  C   UNL     1      70.101  33.207  80.754  0.00  0.00    +0.000 C 
ATOM     37  H   UNL     1      70.137  29.928  82.660  0.00  0.00    +0.000 HD
ATOM     38  H   UNL     1      69.040  30.430  83.876  0.00  0.00    +0.000 HD
ATOM     39  H   UNL     1      71.082  32.483  79.191  0.00  0.00    +0.000 HD
ATOM     40  H   UNL     1      70.650  34.128  79.092  0.00  0.00    +0.000 HD
ENDBRANCH  24  31
ENDBRANCH  22  24
ENDBRANCH   1  22
TORSDOF 9
ENDMDL
MODEL 4
REMARK VINA RESULT:      -6.3     35.007     38.843
REMARK  Name = Methotrexate.pdbqt.pdb
REMARK  9 active torsions:
REMARK  status: ('A' for Active; 'I' for Inactive)
REMARK    1  A    between atoms: C_1  and  N_22
REMARK    2  A    between atoms: C_2  and  C_9
REMARK    3  A    between atoms: CA_11  and  C_13
REMARK    4  A    between atoms: CA_11  and  CB_16
REMARK    5  A    between atoms: C_13  and  O_14
REMARK    6  A    between atoms: CG_17  and  CD_19
REMARK    7  A    between atoms: CD_19  and  OE1_20
REMARK    8  A    between atoms: N_22  and  C_24
REMARK    9  A    between atoms: C_24  and  C_31
REMARK                            x       y       z     vdW  Elec       q    Type
REMARK                         _______ _______ _______ _____ _____    ______ ____
ROOT
ATOM      1  C   UNL     1      14.800   8.670  99.868  0.00  0.00    +0.000 A 
ATOM      2  C   UNL     1      14.222   6.537  98.103  0.00  0.00    +0.000 A 
ATOM      3  C   UNL     1      14.524   8.898  98.513  0.00  0.00    +0.000 A 
ATOM      4  C   UNL     1      14.785   7.340 100.311  0.00  0.00    +0.000 A 
ATOM      5  C   UNL     1      14.236   7.849  97.638  0.00  0.00    +0.000 A 
ATOM      6  C   UNL     1      14.498   6.284  99.445  0.00  0.00    +0.000 A 
ENDROOT
BRANCH   2   9
ATOM      7  O   UNL     1      13.802   5.594  96.011  0.00  0.00    +0.000 OA
ATOM      8  N   UNL     1      13.806   4.154  97.827  0.00  0.00    +0.000 N 
ATOM      9  C   ACE A   0      13.924   5.387  97.213  0.00  0.00    +0.000 C 
ATOM     10  H   UNL     1      13.923   4.082  98.834  0.00  0.00    +0.000 HD
ATOM     11  CA  UNL     1      13.531   2.943  97.217  0.00  0.00    +0.000 C 
BRANCH  11  13
ATOM     12  OXT UNL     1      12.447   1.429  98.714  0.00  0.00    +0.000 OA
ATOM     13  C   UNL     1      13.461   1.769  98.122  0.00  0.00    +0.000 C 
BRANCH  13  14
ATOM     14  O   UNL     1      14.616   1.098  98.244  0.00  0.00    +0.000 OA
ATOM     15  H   UNL     1      15.272   1.769  98.524  0.00  0.00    +0.000 HD
ENDBRANCH  13  14
ENDBRANCH  11  13
BRANCH  11  16
ATOM     16  CB  UNL     1      13.324   2.827  95.817  0.00  0.00    +0.000 C 
ATOM     17  CG  UNL     1      13.114   2.697  94.304  0.00  0.00    +0.000 C 
BRANCH  17  19
ATOM     18  OE2 UNL     1      12.273   1.689  92.370  0.00  0.00    +0.000 OA
ATOM     19  CD  UNL     1      12.936   2.571  92.890  0.00  0.00    +0.000 C 
BRANCH  19  20
ATOM     20  OE1 UNL     1      13.584   3.505  92.169  0.00  0.00    +0.000 OA
ATOM     21  HE1 UNL     1      13.081   4.323  92.356  0.00  0.00    +0.000 HD
ENDBRANCH  19  20
ENDBRANCH  17  19
ENDBRANCH  11  16
ENDBRANCH   2   9
BRANCH   1  22
ATOM     22  N   UNL     1      15.110   9.743 100.737  0.00  0.00    +0.000 N 
ATOM     23  C   UNL     1      14.099  10.702 101.143  0.00  0.00    +0.000 C 
BRANCH  22  24
ATOM     24  C   UNL     1      16.481  10.176 100.906  0.00  0.00    +0.000 C 
BRANCH  24  31
ATOM     25  N   UNL     1      18.381  11.183 100.045  0.00  0.00    +0.000 NA
ATOM     26  N   UNL     1      19.967  10.747 102.535  0.00  0.00    +0.000 NA
ATOM     27  N   UNL     1      21.795  11.738 101.519  0.00  0.00    +0.000 NA
ATOM     28  N   UNL     1      21.688  12.647  99.334  0.00  0.00    +0.000 NA
ATOM     29  N   UNL     1      19.829  12.653  97.994  0.00  0.00    +0.000 N 
ATOM     30  N   UNL     1      23.626  12.696 100.576  0.00  0.00    +0.000 N 
ATOM     31  C   UNL     1      17.824  10.604 101.072  0.00  0.00    +0.000 C 
ATOM     32  C   UNL     1      18.701  10.468 102.192  0.00  0.00    +0.000 C 
ATOM     33  C   UNL     1      19.716  11.595 100.232  0.00  0.00    +0.000 C 
ATOM     34  C   UNL     1      20.498  11.337 101.498  0.00  0.00    +0.000 C 
ATOM     35  C   UNL     1      20.444  12.319  99.172  0.00  0.00    +0.000 C 
ATOM     36  C   UNL     1      22.325  12.327 100.496  0.00  0.00    +0.000 C 
ATOM     37  H   UNL     1      20.468  12.842  97.230  0.00  0.00    +0.000 HD
ATOM     38  H   UNL     1      19.011  12.106  97.749  0.00  0.00    +0.000 HD
ATOM     39  H   UNL     1      23.851  13.486  99.987  0.00  0.00    +0.000 HD
ATOM     40  H   UNL     1      23.951  12.774 101.531  0.00  0.00    +0.000 HD
ENDBRANCH  24  31
ENDBRANCH  22  24
ENDBRANCH   1  22
TORSDOF 9
ENDMDL
MODEL 5
REMARK VINA RESULT:      -6.0      6.094     11.174
REMARK  Name = Methotrexate.pdbqt.pdb
REMARK  9 active torsions:
REMARK  status: ('A' for Active; 'I' for Inactive)
REMARK    1  A    between atoms: C_1  and  N_22
REMARK    2  A    between atoms: C_2  and  C_9
REMARK    3  A    between atoms: CA_11  and  C_13
REMARK    4  A    between atoms: CA_11  and  CB_16
REMARK    5  A    between atoms: C_13  and  O_14
REMARK    6  A    between atoms: CG_17  and  CD_19
REMARK    7  A    between atoms: CD_19  and  OE1_20
REMARK    8  A    between atoms: N_22  and  C_24
REMARK    9  A    between atoms: C_24  and  C_31
REMARK                            x       y       z     vdW  Elec       q    Type
REMARK                         _______ _______ _______ _____ _____    ______ ____
ROOT
ATOM      1  C   UNL     1      47.468  20.804  83.760  0.00  0.00    +0.000 A 
ATOM      2  C   UNL     1      50.275  20.519  83.564  0.00  0.00    +0.000 A 
ATOM      3  C   UNL     1      48.056  20.048  82.736  0.00  0.00    +0.000 A 
ATOM      4  C   UNL     1      48.330  21.420  84.679  0.00  0.00    +0.000 A 
ATOM      5  C   UNL     1      49.440  19.903  82.636  0.00  0.00    +0.000 A 
ATOM      6  C   UNL     1      49.715  21.280  84.588  0.00  0.00    +0.000 A 
ENDROOT
BRANCH   2   9
ATOM      7  O   UNL     1      52.252  19.837  82.530  0.00  0.00    +0.000 OA
ATOM      8  N   UNL     1      52.457  20.935  84.561  0.00  0.00    +0.000 N 
ATOM      9  C   ACE A   0      51.753  20.396  83.500  0.00  0.00    +0.000 C 
ATOM     10  H   UNL     1      51.952  21.380  85.322  0.00  0.00    +0.000 HD
ATOM     11  CA  UNL     1      53.830  20.943  84.731  0.00  0.00    +0.000 C 
BRANCH  11  13
ATOM     12  OXT UNL     1      54.282  21.066  87.073  0.00  0.00    +0.000 OA
ATOM     13  C   UNL     1      54.320  21.592  85.971  0.00  0.00    +0.000 C 
BRANCH  13  14
ATOM     14  O   UNL     1      54.817  22.825  85.788  0.00  0.00    +0.000 OA
ATOM     15  H   UNL     1      55.557  22.899  86.425  0.00  0.00    +0.000 HD
ENDBRANCH  13  14
ENDBRANCH  11  13
BRANCH  11  16
ATOM     16  CB  UNL     1      54.716  20.364  83.784  0.00  0.00    +0.000 C 
ATOM     17  CG  UNL     1      55.683  19.741  82.771  0.00  0.00    +0.000 C 
BRANCH  17  19
ATOM     18  OE2 UNL     1      57.106  19.784  80.917  0.00  0.00    +0.000 OA
ATOM     19  CD  UNL     1      56.600  19.163  81.837  0.00  0.00    +0.000 C 
BRANCH  19  20
ATOM     20  OE1 UNL     1      56.849  17.858  82.047  0.00  0.00    +0.000 OA
ATOM     21  HE1 UNL     1      57.784  17.759  81.779  0.00  0.00    +0.000 HD
ENDBRANCH  19  20
ENDBRANCH  17  19
ENDBRANCH  11  16
ENDBRANCH   2   9
BRANCH   1  22
ATOM     22  N   UNL     1      46.063  20.958  83.835  0.00  0.00    +0.000 N 
ATOM     23  C   UNL     1      45.168  19.834  83.630  0.00  0.00    +0.000 C 
BRANCH  22  24
ATOM     24  C   UNL     1      45.461  22.267  83.688  0.00  0.00    +0.000 C 
BRANCH  24  31
ATOM     25  N   UNL     1      45.463  24.533  84.167  0.00  0.00    +0.000 NA
ATOM     26  N   UNL     1      42.960  25.052  82.628  0.00  0.00    +0.000 NA
ATOM     27  N   UNL     1      43.076  27.283  83.231  0.00  0.00    +0.000 NA
ATOM     28  N   UNL     1      44.868  28.154  84.512  0.00  0.00    +0.000 NA
ATOM     29  N   UNL     1      46.647  26.940  85.295  0.00  0.00    +0.000 N 
ATOM     30  N   UNL     1      43.130  29.483  83.792  0.00  0.00    +0.000 N 
ATOM     31  C   UNL     1      44.873  23.551  83.545  0.00  0.00    +0.000 C 
ATOM     32  C   UNL     1      43.691  23.950  82.848  0.00  0.00    +0.000 C 
ATOM     33  C   UNL     1      44.859  25.797  84.015  0.00  0.00    +0.000 C 
ATOM     34  C   UNL     1      43.578  26.022  83.248  0.00  0.00    +0.000 C 
ATOM     35  C   UNL     1      45.459  27.005  84.613  0.00  0.00    +0.000 C 
ATOM     36  C   UNL     1      43.685  28.248  83.839  0.00  0.00    +0.000 C 
ATOM     37  H   UNL     1      46.807  27.716  85.927  0.00  0.00    +0.000 HD
ATOM     38  H   UNL     1      46.902  26.027  85.656  0.00  0.00    +0.000 HD
ATOM     39  H   UNL     1      43.810  30.226  83.884  0.00  0.00    +0.000 HD
ATOM     40  H   UNL     1      42.486  29.591  83.021  0.00  0.00    +0.000 HD
ENDBRANCH  24  31
ENDBRANCH  22  24
ENDBRANCH   1  22
TORSDOF 9
ENDMDL
MODEL 6
REMARK VINA RESULT:      -6.0      6.932     11.876
REMARK  Name = Methotrexate.pdbqt.pdb
REMARK  9 active torsions:
REMARK  status: ('A' for Active; 'I' for Inactive)
REMARK    1  A    between atoms: C_1  and  N_22
REMARK    2  A    between atoms: C_2  and  C_9
REMARK    3  A    between atoms: CA_11  and  C_13
REMARK    4  A    between atoms: CA_11  and  CB_16
REMARK    5  A    between atoms: C_13  and  O_14
REMARK    6  A    between atoms: CG_17  and  CD_19
REMARK    7  A    between atoms: CD_19  and  OE1_20
REMARK    8  A    between atoms: N_22  and  C_24
REMARK    9  A    between atoms: C_24  and  C_31
REMARK                            x       y       z     vdW  Elec       q    Type
REMARK                         _______ _______ _______ _____ _____    ______ ____
ROOT
ATOM      1  C   UNL     1      49.395  22.176  85.050  0.00  0.00    +0.000 A 
ATOM      2  C   UNL     1      52.110  22.049  85.831  0.00  0.00    +0.000 A 
ATOM      3  C   UNL     1      50.159  21.017  84.850  0.00  0.00    +0.000 A 
ATOM      4  C   UNL     1      50.035  23.272  85.646  0.00  0.00    +0.000 A 
ATOM      5  C   UNL     1      51.498  20.949  85.236  0.00  0.00    +0.000 A 
ATOM      6  C   UNL     1      51.373  23.214  86.035  0.00  0.00    +0.000 A 
ENDROOT
BRANCH   2   9
ATOM      7  O   UNL     1      53.797  22.283  87.425  0.00  0.00    +0.000 OA
ATOM      8  N   UNL     1      54.457  21.712  85.279  0.00  0.00    +0.000 N 
ATOM      9  C   ACE A   0      53.532  22.027  86.257  0.00  0.00    +0.000 C 
ATOM     10  H   UNL     1      54.140  21.515  84.333  0.00  0.00    +0.000 HD
ATOM     11  CA  UNL     1      55.830  21.630  85.426  0.00  0.00    +0.000 C 
BRANCH  11  13
ATOM     12  OXT UNL     1      56.855  20.123  83.883  0.00  0.00    +0.000 OA
ATOM     13  C   UNL     1      56.589  21.271  84.203  0.00  0.00    +0.000 C 
BRANCH  13  14
ATOM     14  O   UNL     1      56.967  22.323  83.461  0.00  0.00    +0.000 OA
ATOM     15  H   UNL     1      56.408  23.066  83.768  0.00  0.00    +0.000 HD
ENDBRANCH  13  14
ENDBRANCH  11  13
BRANCH  11  16
ATOM     16  CB  UNL     1      56.477  21.878  86.666  0.00  0.00    +0.000 C 
ATOM     17  CG  UNL     1      57.176  22.131  88.007  0.00  0.00    +0.000 C 
BRANCH  17  19
ATOM     18  OE2 UNL     1      58.005  23.455  89.746  0.00  0.00    +0.000 OA
ATOM     19  CD  UNL     1      57.828  22.350  89.262  0.00  0.00    +0.000 C 
BRANCH  19  20
ATOM     20  OE1 UNL     1      58.253  21.223  89.863  0.00  0.00    +0.000 OA
ATOM     21  HE1 UNL     1      57.738  21.202  90.694  0.00  0.00    +0.000 HD
ENDBRANCH  19  20
ENDBRANCH  17  19
ENDBRANCH  11  16
ENDBRANCH   2   9
BRANCH   1  22
ATOM     22  N   UNL     1      48.043  22.236  84.634  0.00  0.00    +0.000 N 
ATOM     23  C   UNL     1      47.471  21.213  83.777  0.00  0.00    +0.000 C 
BRANCH  22  24
ATOM     24  C   UNL     1      47.319  23.489  84.676  0.00  0.00    +0.000 C 
BRANCH  24  31
ATOM     25  N   UNL     1      45.508  24.773  84.018  0.00  0.00    +0.000 NA
ATOM     26  N   UNL     1      46.440  27.186  85.506  0.00  0.00    +0.000 NA
ATOM     27  N   UNL     1      44.599  28.352  84.727  0.00  0.00    +0.000 NA
ATOM     28  N   UNL     1      42.933  27.334  83.384  0.00  0.00    +0.000 NA
ATOM     29  N   UNL     1      42.939  25.146  82.703  0.00  0.00    +0.000 N 
ATOM     30  N   UNL     1      42.816  29.552  83.992  0.00  0.00    +0.000 N 
ATOM     31  C   UNL     1      46.608  24.717  84.715  0.00  0.00    +0.000 C 
ATOM     32  C   UNL     1      46.924  25.943  85.376  0.00  0.00    +0.000 C 
ATOM     33  C   UNL     1      44.822  26.004  84.067  0.00  0.00    +0.000 C 
ATOM     34  C   UNL     1      45.333  27.214  84.812  0.00  0.00    +0.000 C 
ATOM     35  C   UNL     1      43.531  26.183  83.376  0.00  0.00    +0.000 C 
ATOM     36  C   UNL     1      43.500  28.384  84.045  0.00  0.00    +0.000 C 
ATOM     37  H   UNL     1      42.256  25.433  82.012  0.00  0.00    +0.000 HD
ATOM     38  H   UNL     1      43.555  24.393  82.417  0.00  0.00    +0.000 HD
ATOM     39  H   UNL     1      41.824  29.423  83.843  0.00  0.00    +0.000 HD
ATOM     40  H   UNL     1      43.052  30.177  84.751  0.00  0.00    +0.000 HD
ENDBRANCH  24  31
ENDBRANCH  22  24
ENDBRANCH   1  22
TORSDOF 9
ENDMDL
MODEL 7
REMARK VINA RESULT:      -5.9      9.183     12.399
REMARK  Name = Methotrexate.pdbqt.pdb
REMARK  9 active torsions:
REMARK  status: ('A' for Active; 'I' for Inactive)
REMARK    1  A    between atoms: C_1  and  N_22
REMARK    2  A    between atoms: C_2  and  C_9
REMARK    3  A    between atoms: CA_11  and  C_13
REMARK    4  A    between atoms: CA_11  and  CB_16
REMARK    5  A    between atoms: C_13  and  O_14
REMARK    6  A    between atoms: CG_17  and  CD_19
REMARK    7  A    between atoms: CD_19  and  OE1_20
REMARK    8  A    between atoms: N_22  and  C_24
REMARK    9  A    between atoms: C_24  and  C_31
REMARK                            x       y       z     vdW  Elec       q    Type
REMARK                         _______ _______ _______ _____ _____    ______ ____
ROOT
ATOM      1  C   UNL     1      37.084  22.548  84.744  0.00  0.00    +0.000 A 
ATOM      2  C   UNL     1      34.680  22.360  83.266  0.00  0.00    +0.000 A 
ATOM      3  C   UNL     1      37.081  22.609  83.343  0.00  0.00    +0.000 A 
ATOM      4  C   UNL     1      35.847  22.383  85.382  0.00  0.00    +0.000 A 
ATOM      5  C   UNL     1      35.898  22.518  82.610  0.00  0.00    +0.000 A 
ATOM      6  C   UNL     1      34.657  22.292  84.658  0.00  0.00    +0.000 A 
ENDROOT
BRANCH   2   9
ATOM      7  O   UNL     1      33.426  22.106  81.316  0.00  0.00    +0.000 OA
ATOM      8  N   UNL     1      32.246  22.341  83.296  0.00  0.00    +0.000 N 
ATOM      9  C   ACE A   0      33.394  22.257  82.531  0.00  0.00    +0.000 C 
ATOM     10  H   UNL     1      32.321  22.468  84.302  0.00  0.00    +0.000 HD
ATOM     11  CA  UNL     1      30.939  22.277  82.846  0.00  0.00    +0.000 C 
BRANCH  11  13
ATOM     12  OXT UNL     1      29.452  21.448  84.521  0.00  0.00    +0.000 OA
ATOM     13  C   UNL     1      29.893  22.397  83.891  0.00  0.00    +0.000 C 
BRANCH  13  14
ATOM     14  O   UNL     1      29.458  23.650  84.094  0.00  0.00    +0.000 OA
ATOM     15  H   UNL     1      29.208  23.980  83.206  0.00  0.00    +0.000 HD
ENDBRANCH  13  14
ENDBRANCH  11  13
BRANCH  11  16
ATOM     16  CB  UNL     1      30.616  22.111  81.474  0.00  0.00    +0.000 C 
ATOM     17  CG  UNL     1      30.256  21.941  79.993  0.00  0.00    +0.000 C 
BRANCH  17  19
ATOM     18  OE2 UNL     1      29.766  22.733  77.849  0.00  0.00    +0.000 OA
ATOM     19  CD  UNL     1      29.906  21.793  78.613  0.00  0.00    +0.000 C 
BRANCH  19  20
ATOM     20  OE1 UNL     1      29.721  20.517  78.227  0.00  0.00    +0.000 OA
ATOM     21  HE1 UNL     1      29.609  20.039  79.073  0.00  0.00    +0.000 HD
ENDBRANCH  19  20
ENDBRANCH  17  19
ENDBRANCH  11  16
ENDBRANCH   2   9
BRANCH   1  22
ATOM     22  N   UNL     1      38.295  22.621  85.472  0.00  0.00    +0.000 N 
ATOM     23  C   UNL     1      38.361  22.235  86.870  0.00  0.00    +0.000 C 
BRANCH  22  24
ATOM     24  C   UNL     1      39.380  23.462  85.009  0.00  0.00    +0.000 C 
BRANCH  24  31
ATOM     25  N   UNL     1      41.053  24.997  85.463  0.00  0.00    +0.000 NA
ATOM     26  N   UNL     1      41.873  25.232  82.604  0.00  0.00    +0.000 NA
ATOM     27  N   UNL     1      43.472  26.790  83.212  0.00  0.00    +0.000 NA
ATOM     28  N   UNL     1      43.845  27.404  85.470  0.00  0.00    +0.000 NA
ATOM     29  N   UNL     1      42.705  26.567  87.273  0.00  0.00    +0.000 N 
ATOM     30  N   UNL     1      45.056  28.328  83.743  0.00  0.00    +0.000 N 
ATOM     31  C   UNL     1      40.444  24.285  84.556  0.00  0.00    +0.000 C 
ATOM     32  C   UNL     1      40.947  24.498  83.236  0.00  0.00    +0.000 C 
ATOM     33  C   UNL     1      42.103  25.810  84.991  0.00  0.00    +0.000 C 
ATOM     34  C   UNL     1      42.478  25.924  83.532  0.00  0.00    +0.000 C 
ATOM     35  C   UNL     1      42.916  26.619  85.919  0.00  0.00    +0.000 C 
ATOM     36  C   UNL     1      44.077  27.475  84.128  0.00  0.00    +0.000 C 
ATOM     37  H   UNL     1      43.065  27.366  87.781  0.00  0.00    +0.000 HD
ATOM     38  H   UNL     1      41.790  26.242  87.567  0.00  0.00    +0.000 HD
ATOM     39  H   UNL     1      45.748  28.488  84.464  0.00  0.00    +0.000 HD
ATOM     40  H   UNL     1      45.437  28.101  82.835  0.00  0.00    +0.000 HD
ENDBRANCH  24  31
ENDBRANCH  22  24
ENDBRANCH   1  22
TORSDOF 9
ENDMDL
MODEL 8
REMARK VINA RESULT:      -5.7      9.174     15.632
REMARK  Name = Methotrexate.pdbqt.pdb
REMARK  9 active torsions:
REMARK  status: ('A' for Active; 'I' for Inactive)
REMARK    1  A    between atoms: C_1  and  N_22
REMARK    2  A    between atoms: C_2  and  C_9
REMARK    3  A    between atoms: CA_11  and  C_13
REMARK    4  A    between atoms: CA_11  and  CB_16
REMARK    5  A    between atoms: C_13  and  O_14
REMARK    6  A    between atoms: CG_17  and  CD_19
REMARK    7  A    between atoms: CD_19  and  OE1_20
REMARK    8  A    between atoms: N_22  and  C_24
REMARK    9  A    between atoms: C_24  and  C_31
REMARK                            x       y       z     vdW  Elec       q    Type
REMARK                         _______ _______ _______ _____ _____    ______ ____
ROOT
ATOM      1  C   UNL     1      35.129  21.497  83.193  0.00  0.00    +0.000 A 
ATOM      2  C   UNL     1      37.444  23.046  83.681  0.00  0.00    +0.000 A 
ATOM      3  C   UNL     1      36.162  21.582  82.250  0.00  0.00    +0.000 A 
ATOM      4  C   UNL     1      35.286  22.218  84.385  0.00  0.00    +0.000 A 
ATOM      5  C   UNL     1      37.308  22.343  82.487  0.00  0.00    +0.000 A 
ATOM      6  C   UNL     1      36.428  22.982  84.632  0.00  0.00    +0.000 A 
ENDROOT
BRANCH   2   9
ATOM      7  O   UNL     1      38.626  24.588  84.972  0.00  0.00    +0.000 OA
ATOM      8  N   UNL     1      39.697  23.757  83.093  0.00  0.00    +0.000 N 
ATOM      9  C   ACE A   0      38.642  23.871  83.979  0.00  0.00    +0.000 C 
ATOM     10  H   UNL     1      39.616  23.134  82.294  0.00  0.00    +0.000 HD
ATOM     11  CA  UNL     1      40.910  24.420  83.153  0.00  0.00    +0.000 C 
BRANCH  11  13
ATOM     12  OXT UNL     1      41.727  24.484  80.909  0.00  0.00    +0.000 OA
ATOM     13  C   UNL     1      41.867  24.108  82.063  0.00  0.00    +0.000 C 
BRANCH  13  14
ATOM     14  O   UNL     1      42.917  23.368  82.448  0.00  0.00    +0.000 OA
ATOM     15  H   UNL     1      43.610  24.015  82.691  0.00  0.00    +0.000 HD
ENDBRANCH  13  14
ENDBRANCH  11  13
BRANCH  11  16
ATOM     16  CB  UNL     1      41.221  25.342  84.186  0.00  0.00    +0.000 C 
ATOM     17  CG  UNL     1      41.557  26.328  85.311  0.00  0.00    +0.000 C 
BRANCH  17  19
ATOM     18  OE2 UNL     1      41.843  26.924  87.554  0.00  0.00    +0.000 OA
ATOM     19  CD  UNL     1      41.870  27.234  86.374  0.00  0.00    +0.000 C 
BRANCH  19  20
ATOM     20  OE1 UNL     1      42.182  28.476  85.963  0.00  0.00    +0.000 OA
ATOM     21  HE1 UNL     1      42.899  28.326  85.315  0.00  0.00    +0.000 HD
ENDBRANCH  19  20
ENDBRANCH  17  19
ENDBRANCH  11  16
ENDBRANCH   2   9
BRANCH   1  22
ATOM     22  N   UNL     1      33.964  20.737  82.929  0.00  0.00    +0.000 N 
ATOM     23  C   UNL     1      34.010  19.551  82.093  0.00  0.00    +0.000 C 
BRANCH  22  24
ATOM     24  C   UNL     1      32.652  21.322  83.106  0.00  0.00    +0.000 C 
BRANCH  24  31
ATOM     25  N   UNL     1      31.117  22.983  82.608  0.00  0.00    +0.000 NA
ATOM     26  N   UNL     1      29.051  21.892  84.464  0.00  0.00    +0.000 NA
ATOM     27  N   UNL     1      27.646  23.641  83.896  0.00  0.00    +0.000 NA
ATOM     28  N   UNL     1      28.240  25.264  82.276  0.00  0.00    +0.000 NA
ATOM     29  N   UNL     1      30.214  25.311  81.112  0.00  0.00    +0.000 N 
ATOM     30  N   UNL     1      26.223  25.336  83.385  0.00  0.00    +0.000 N 
ATOM     31  C   UNL     1      31.365  21.895  83.282  0.00  0.00    +0.000 C 
ATOM     32  C   UNL     1      30.284  21.490  84.123  0.00  0.00    +0.000 C 
ATOM     33  C   UNL     1      29.835  23.537  82.801  0.00  0.00    +0.000 C 
ATOM     34  C   UNL     1      28.820  22.973  83.767  0.00  0.00    +0.000 C 
ATOM     35  C   UNL     1      29.401  24.732  82.052  0.00  0.00    +0.000 C 
ATOM     36  C   UNL     1      27.411  24.709  83.205  0.00  0.00    +0.000 C 
ATOM     37  H   UNL     1      29.983  26.274  80.898  0.00  0.00    +0.000 HD
ATOM     38  H   UNL     1      31.204  25.111  81.198  0.00  0.00    +0.000 HD
ATOM     39  H   UNL     1      25.922  25.854  82.570  0.00  0.00    +0.000 HD
ATOM     40  H   UNL     1      25.519  24.730  83.784  0.00  0.00    +0.000 HD
ENDBRANCH  24  31
ENDBRANCH  22  24
ENDBRANCH   1  22
TORSDOF 9
ENDMDL
MODEL 9
REMARK VINA RESULT:      -5.6      1.903      2.360
REMARK  Name = Methotrexate.pdbqt.pdb
REMARK  9 active torsions:
REMARK  status: ('A' for Active; 'I' for Inactive)
REMARK    1  A    between atoms: C_1  and  N_22
REMARK    2  A    between atoms: C_2  and  C_9
REMARK    3  A    between atoms: CA_11  and  C_13
REMARK    4  A    between atoms: CA_11  and  CB_16
REMARK    5  A    between atoms: C_13  and  O_14
REMARK    6  A    between atoms: CG_17  and  CD_19
REMARK    7  A    between atoms: CD_19  and  OE1_20
REMARK    8  A    between atoms: N_22  and  C_24
REMARK    9  A    between atoms: C_24  and  C_31
REMARK                            x       y       z     vdW  Elec       q    Type
REMARK                         _______ _______ _______ _____ _____    ______ ____
ROOT
ATOM      1  C   UNL     1      47.686  20.110  83.218  0.00  0.00    +0.000 A 
ATOM      2  C   UNL     1      45.881  22.241  83.663  0.00  0.00    +0.000 A 
ATOM      3  C   UNL     1      46.340  19.874  83.529  0.00  0.00    +0.000 A 
ATOM      4  C   UNL     1      48.103  21.447  83.144  0.00  0.00    +0.000 A 
ATOM      5  C   UNL     1      45.445  20.922  83.747  0.00  0.00    +0.000 A 
ATOM      6  C   UNL     1      47.216  22.502  83.360  0.00  0.00    +0.000 A 
ENDROOT
BRANCH   2   9
ATOM      7  O   UNL     1      45.382  24.520  83.653  0.00  0.00    +0.000 OA
ATOM      8  N   UNL     1      43.704  23.083  84.353  0.00  0.00    +0.000 N 
ATOM      9  C   ACE A   0      44.969  23.391  83.888  0.00  0.00    +0.000 C 
ATOM     10  H   UNL     1      43.453  22.112  84.520  0.00  0.00    +0.000 HD
ATOM     11  CA  UNL     1      42.683  23.972  84.641  0.00  0.00    +0.000 C 
BRANCH  11  13
ATOM     12  OXT UNL     1      41.186  22.167  85.094  0.00  0.00    +0.000 OA
ATOM     13  C   UNL     1      41.421  23.365  85.129  0.00  0.00    +0.000 C 
BRANCH  13  14
ATOM     14  O   UNL     1      40.539  24.249  85.620  0.00  0.00    +0.000 OA
ATOM     15  H   UNL     1      39.704  24.069  85.141  0.00  0.00    +0.000 HD
ENDBRANCH  13  14
ENDBRANCH  11  13
BRANCH  11  16
ATOM     16  CB  UNL     1      42.832  25.375  84.483  0.00  0.00    +0.000 C 
ATOM     17  CG  UNL     1      42.999  26.888  84.301  0.00  0.00    +0.000 C 
BRANCH  17  19
ATOM     18  OE2 UNL     1      44.185  28.805  83.679  0.00  0.00    +0.000 OA
ATOM     19  CD  UNL     1      43.165  28.298  84.116  0.00  0.00    +0.000 C 
BRANCH  19  20
ATOM     20  OE1 UNL     1      42.098  29.029  84.484  0.00  0.00    +0.000 OA
ATOM     21  HE1 UNL     1      41.340  28.499  84.167  0.00  0.00    +0.000 HD
ENDBRANCH  19  20
ENDBRANCH  17  19
ENDBRANCH  11  16
ENDBRANCH   2   9
BRANCH   1  22
ATOM     22  N   UNL     1      48.585  19.035  83.020  0.00  0.00    +0.000 N 
ATOM     23  C   UNL     1      49.116  18.278  84.139  0.00  0.00    +0.000 C 
BRANCH  22  24
ATOM     24  C   UNL     1      49.333  18.924  81.784  0.00  0.00    +0.000 C 
BRANCH  24  31
ATOM     25  N   UNL     1      51.331  18.531  80.681  0.00  0.00    +0.000 NA
ATOM     26  N   UNL     1      50.149  19.000  77.982  0.00  0.00    +0.000 NA
ATOM     27  N   UNL     1      52.226  18.626  77.031  0.00  0.00    +0.000 NA
ATOM     28  N   UNL     1      54.117  18.019  78.323  0.00  0.00    +0.000 NA
ATOM     29  N   UNL     1      54.131  17.744  80.597  0.00  0.00    +0.000 N 
ATOM     30  N   UNL     1      54.238  18.274  76.037  0.00  0.00    +0.000 N 
ATOM     31  C   UNL     1      50.063  18.816  80.572  0.00  0.00    +0.000 C 
ATOM     32  C   UNL     1      49.639  19.008  79.221  0.00  0.00    +0.000 C 
ATOM     33  C   UNL     1      52.037  18.433  79.465  0.00  0.00    +0.000 C 
ATOM     34  C   UNL     1      51.414  18.700  78.116  0.00  0.00    +0.000 C 
ATOM     35  C   UNL     1      53.463  18.055  79.442  0.00  0.00    +0.000 C 
ATOM     36  C   UNL     1      53.477  18.325  77.157  0.00  0.00    +0.000 C 
ATOM     37  H   UNL     1      55.139  17.818  80.529  0.00  0.00    +0.000 HD
ATOM     38  H   UNL     1      53.727  18.104  81.455  0.00  0.00    +0.000 HD
ATOM     39  H   UNL     1      55.027  17.648  76.122  0.00  0.00    +0.000 HD
ATOM     40  H   UNL     1      53.687  18.150  75.198  0.00  0.00    +0.000 HD
ENDBRANCH  24  31
ENDBRANCH  22  24
ENDBRANCH   1  22
TORSDOF 9
ENDMDL
