MODEL 1
REMARK VINA RESULT:      -6.3      0.000      0.000
REMARK  Name = 
REMARK  21 active torsions:
REMARK  status: ('A' for Active; 'I' for Inactive)
REMARK    1  A    between atoms: O_3  and  C_27
REMARK    2  A    between atoms: O_3  and  C_28
REMARK    3  A    between atoms: N_6  and  CA_9
REMARK    4  A    between atoms: N_7  and  CA_15
REMARK    5  A    between atoms: N_8  and  CA_12
REMARK    6  A    between atoms: CA_9  and  CB_10
REMARK    7  A    between atoms: CA_9  and  C_16
REMARK    8  A    between atoms: CB_10  and  CG_11
REMARK    9  A    between atoms: CG_11  and  CD1_20
REMARK   10  A    between atoms: CG_11  and  CD2_21
REMARK   11  A    between atoms: CA_12  and  CB_13
REMARK   12  A    between atoms: CA_12  and  C_18
REMARK   13  A    between atoms: CB_13  and  CG_14
REMARK   14  A    between atoms: CG_14  and  CD1_22
REMARK   15  A    between atoms: CG_14  and  CD2_23
REMARK   16  A    between atoms: CA_15  and  CB_17
REMARK   17  A    between atoms: CA_15  and  C_26
REMARK   18  A    between atoms: CB_17  and  CG_19
REMARK   19  A    between atoms: CG_19  and  CD1_24
REMARK   20  A    between atoms: CG_19  and  CD2_25
REMARK   21  A    between atoms: C_28  and  C_29
REMARK                            x       y       z     vdW  Elec       q    Type
REMARK                         _______ _______ _______ _____ _____    ______ ____
ROOT
ATOM      1  O   UNL     1      57.406  34.223  73.153  0.00  0.00    +0.000 OA
ATOM      2  N   UNL     1      58.894  35.632  72.150  0.00  0.00    +0.000 N 
ATOM      3  C   UNL     1      57.962  35.317  73.124  0.00  0.00    +0.000 C 
ATOM      4  H   UNL     1      59.618  36.274  72.465  0.00  0.00    +0.000 HD
ENDROOT
BRANCH   2   5
ATOM      5  CA  UNL     1      59.332  34.600  71.209  0.00  0.00    +0.000 C 
BRANCH   5   8
ATOM      6  O   UNL     1      61.678  35.051  71.570  0.00  0.00    +0.000 OA
ATOM      7  N   UNL     1      61.055  32.991  72.136  0.00  0.00    +0.000 N 
ATOM      8  C   UNL     1      60.759  34.231  71.657  0.00  0.00    +0.000 C 
ATOM      9  H   UNL     1      62.029  32.931  72.411  0.00  0.00    +0.000 HD
BRANCH   7  10
ATOM     10  CA  UNL     1      60.157  31.969  72.673  0.00  0.00    +0.000 C 
BRANCH  10  12
ATOM     11  O   UNL     1      61.042  32.151  74.936  0.00  0.00    +0.000 OA
ATOM     12  C   UNL     1      60.703  31.434  73.997  0.00  0.00    +0.000 C 
ENDBRANCH  10  12
BRANCH  10  13
ATOM     13  CB  UNL     1      59.847  30.870  71.645  0.00  0.00    +0.000 C 
BRANCH  13  14
ATOM     14  CG  UNL     1      60.763  30.776  70.405  0.00  0.00    +0.000 C 
ATOM     15  CD1 UNL     1      61.889  29.756  70.552  0.00  0.00    +0.000 C 
ATOM     16  CD2 UNL     1      59.917  30.428  69.174  0.00  0.00    +0.000 C 
ENDBRANCH  13  14
ENDBRANCH  10  13
ENDBRANCH   7  10
ENDBRANCH   5   8
BRANCH   5  17
ATOM     17  CB  UNL     1      59.351  35.167  69.782  0.00  0.00    +0.000 C 
BRANCH  17  18
ATOM     18  CG  UNL     1      59.327  34.103  68.668  0.00  0.00    +0.000 C 
ATOM     19  CD1 UNL     1      58.306  34.426  67.577  0.00  0.00    +0.000 C 
ATOM     20  CD2 UNL     1      60.719  33.982  68.039  0.00  0.00    +0.000 C 
ENDBRANCH  17  18
ENDBRANCH   5  17
ENDBRANCH   2   5
BRANCH   3  21
ATOM     21  CA  UNL     1      57.754  36.413  74.198  0.00  0.00    +0.000 C 
BRANCH  21  23
ATOM     22  O   UNL     1      55.529  38.035  74.821  0.00  0.00    +0.000 OA
ATOM     23  N   UNL     1      56.635  36.042  75.076  0.00  0.00    +0.000 N 
ATOM     24  C   ACE A   0      55.626  36.931  75.333  0.00  0.00    +0.000 C 
ATOM     25  H   UNL     1      56.810  35.346  75.786  0.00  0.00    +0.000 HD
BRANCH  24  26
ATOM     26  O   UNL     1      54.789  36.506  76.309  0.00  0.00    +0.000 OA
BRANCH  26  27
ATOM     27  C   UNL     1      54.948  37.145  77.582  0.00  0.00    +0.000 C 
BRANCH  27  28
ATOM     28  C   UNL     1      55.727  36.243  78.508  0.00  0.00    +0.000 A 
ATOM     29  C   UNL     1      56.507  36.787  79.539  0.00  0.00    +0.000 A 
ATOM     30  C   UNL     1      55.733  34.854  78.318  0.00  0.00    +0.000 A 
ATOM     31  C   UNL     1      57.254  35.956  80.377  0.00  0.00    +0.000 A 
ATOM     32  C   UNL     1      56.480  34.024  79.156  0.00  0.00    +0.000 A 
ATOM     33  C   UNL     1      57.240  34.576  80.186  0.00  0.00    +0.000 A 
ENDBRANCH  27  28
ENDBRANCH  26  27
ENDBRANCH  24  26
ENDBRANCH  21  23
BRANCH  21  34
ATOM     34  CB  UNL     1      59.026  36.629  75.037  0.00  0.00    +0.000 C 
BRANCH  34  35
ATOM     35  CG  UNL     1      58.822  36.714  76.564  0.00  0.00    +0.000 C 
ATOM     36  CD1 UNL     1      59.945  36.030  77.344  0.00  0.00    +0.000 C 
ATOM     37  CD2 UNL     1      58.727  38.184  76.986  0.00  0.00    +0.000 C 
ENDBRANCH  34  35
ENDBRANCH  21  34
ENDBRANCH   3  21
TORSDOF 15
ENDMDL
MODEL 2
REMARK VINA RESULT:      -5.9      2.681      8.740
REMARK  Name = 
REMARK  21 active torsions:
REMARK  status: ('A' for Active; 'I' for Inactive)
REMARK    1  A    between atoms: O_3  and  C_27
REMARK    2  A    between atoms: O_3  and  C_28
REMARK    3  A    between atoms: N_6  and  CA_9
REMARK    4  A    between atoms: N_7  and  CA_15
REMARK    5  A    between atoms: N_8  and  CA_12
REMARK    6  A    between atoms: CA_9  and  CB_10
REMARK    7  A    between atoms: CA_9  and  C_16
REMARK    8  A    between atoms: CB_10  and  CG_11
REMARK    9  A    between atoms: CG_11  and  CD1_20
REMARK   10  A    between atoms: CG_11  and  CD2_21
REMARK   11  A    between atoms: CA_12  and  CB_13
REMARK   12  A    between atoms: CA_12  and  C_18
REMARK   13  A    between atoms: CB_13  and  CG_14
REMARK   14  A    between atoms: CG_14  and  CD1_22
REMARK   15  A    between atoms: CG_14  and  CD2_23
REMARK   16  A    between atoms: CA_15  and  CB_17
REMARK   17  A    between atoms: CA_15  and  C_26
REMARK   18  A    between atoms: CB_17  and  CG_19
REMARK   19  A    between atoms: CG_19  and  CD1_24
REMARK   20  A    between atoms: CG_19  and  CD2_25
REMARK   21  A    between atoms: C_28  and  C_29
REMARK                            x       y       z     vdW  Elec       q    Type
REMARK                         _______ _______ _______ _____ _____    ______ ____
ROOT
ATOM      1  O   UNL     1      57.232  35.477  74.355  0.00  0.00    +0.000 OA
ATOM      2  N   UNL     1      57.918  36.696  76.157  0.00  0.00    +0.000 N 
ATOM      3  C   UNL     1      58.126  35.780  75.140  0.00  0.00    +0.000 C 
ATOM      4  H   UNL     1      58.747  37.233  76.403  0.00  0.00    +0.000 HD
ENDROOT
BRANCH   2   5
ATOM      5  CA  UNL     1      56.650  37.424  76.226  0.00  0.00    +0.000 C 
BRANCH   5   8
ATOM      6  O   UNL     1      57.471  39.530  77.080  0.00  0.00    +0.000 OA
ATOM      7  N   UNL     1      56.889  39.589  74.934  0.00  0.00    +0.000 N 
ATOM      8  C   UNL     1      57.036  38.910  76.105  0.00  0.00    +0.000 C 
ATOM      9  H   UNL     1      57.218  40.544  75.023  0.00  0.00    +0.000 HD
BRANCH   7  10
ATOM     10  CA  UNL     1      56.750  39.068  73.574  0.00  0.00    +0.000 C 
BRANCH  10  12
ATOM     11  O   UNL     1      59.124  39.429  73.164  0.00  0.00    +0.000 OA
ATOM     12  C   UNL     1      58.125  38.734  72.996  0.00  0.00    +0.000 C 
ENDBRANCH  10  12
BRANCH  10  13
ATOM     13  CB  UNL     1      55.914  39.996  72.679  0.00  0.00    +0.000 C 
BRANCH  13  14
ATOM     14  CG  UNL     1      55.977  41.512  72.969  0.00  0.00    +0.000 C 
ATOM     15  CD1 UNL     1      57.100  42.231  72.224  0.00  0.00    +0.000 C 
ATOM     16  CD2 UNL     1      54.633  42.155  72.609  0.00  0.00    +0.000 C 
ENDBRANCH  13  14
ENDBRANCH  10  13
ENDBRANCH   7  10
ENDBRANCH   5   8
BRANCH   5  17
ATOM     17  CB  UNL     1      55.967  37.159  77.576  0.00  0.00    +0.000 C 
BRANCH  17  18
ATOM     18  CG  UNL     1      56.592  36.014  78.398  0.00  0.00    +0.000 C 
ATOM     19  CD1 UNL     1      57.097  36.486  79.761  0.00  0.00    +0.000 C 
ATOM     20  CD2 UNL     1      55.559  34.900  78.597  0.00  0.00    +0.000 C 
ENDBRANCH  17  18
ENDBRANCH   5  17
ENDBRANCH   2   5
BRANCH   3  21
ATOM     21  CA  UNL     1      59.577  35.250  75.033  0.00  0.00    +0.000 C 
BRANCH  21  23
ATOM     22  O   UNL     1      60.868  32.740  75.012  0.00  0.00    +0.000 OA
ATOM     23  N   UNL     1      59.694  34.351  73.878  0.00  0.00    +0.000 N 
ATOM     24  C   ACE A   0      60.378  33.169  73.980  0.00  0.00    +0.000 C 
ATOM     25  H   UNL     1      59.649  34.764  72.957  0.00  0.00    +0.000 HD
BRANCH  24  26
ATOM     26  O   UNL     1      60.559  32.562  72.782  0.00  0.00    +0.000 OA
BRANCH  26  27
ATOM     27  C   UNL     1      59.679  32.988  71.735  0.00  0.00    +0.000 C 
BRANCH  27  28
ATOM     28  C   UNL     1      59.751  32.014  70.584  0.00  0.00    +0.000 A 
ATOM     29  C   UNL     1      60.202  30.703  70.791  0.00  0.00    +0.000 A 
ATOM     30  C   UNL     1      59.427  32.419  69.281  0.00  0.00    +0.000 A 
ATOM     31  C   UNL     1      60.300  29.809  69.721  0.00  0.00    +0.000 A 
ATOM     32  C   UNL     1      59.526  31.526  68.213  0.00  0.00    +0.000 A 
ATOM     33  C   UNL     1      59.962  30.221  68.434  0.00  0.00    +0.000 A 
ENDBRANCH  27  28
ENDBRANCH  26  27
ENDBRANCH  24  26
ENDBRANCH  21  23
BRANCH  21  34
ATOM     34  CB  UNL     1      60.589  36.402  74.901  0.00  0.00    +0.000 C 
BRANCH  34  35
ATOM     35  CG  UNL     1      61.958  36.181  75.578  0.00  0.00    +0.000 C 
ATOM     36  CD1 UNL     1      62.780  37.467  75.670  0.00  0.00    +0.000 C 
ATOM     37  CD2 UNL     1      61.745  35.608  76.984  0.00  0.00    +0.000 C 
ENDBRANCH  34  35
ENDBRANCH  21  34
ENDBRANCH   3  21
TORSDOF 15
ENDMDL
MODEL 3
REMARK VINA RESULT:      -5.8      4.350      8.505
REMARK  Name = 
REMARK  21 active torsions:
REMARK  status: ('A' for Active; 'I' for Inactive)
REMARK    1  A    between atoms: O_3  and  C_27
REMARK    2  A    between atoms: O_3  and  C_28
REMARK    3  A    between atoms: N_6  and  CA_9
REMARK    4  A    between atoms: N_7  and  CA_15
REMARK    5  A    between atoms: N_8  and  CA_12
REMARK    6  A    between atoms: CA_9  and  CB_10
REMARK    7  A    between atoms: CA_9  and  C_16
REMARK    8  A    between atoms: CB_10  and  CG_11
REMARK    9  A    between atoms: CG_11  and  CD1_20
REMARK   10  A    between atoms: CG_11  and  CD2_21
REMARK   11  A    between atoms: CA_12  and  CB_13
REMARK   12  A    between atoms: CA_12  and  C_18
REMARK   13  A    between atoms: CB_13  and  CG_14
REMARK   14  A    between atoms: CG_14  and  CD1_22
REMARK   15  A    between atoms: CG_14  and  CD2_23
REMARK   16  A    between atoms: CA_15  and  CB_17
REMARK   17  A    between atoms: CA_15  and  C_26
REMARK   18  A    between atoms: CB_17  and  CG_19
REMARK   19  A    between atoms: CG_19  and  CD1_24
REMARK   20  A    between atoms: CG_19  and  CD2_25
REMARK   21  A    between atoms: C_28  and  C_29
REMARK                            x       y       z     vdW  Elec       q    Type
REMARK                         _______ _______ _______ _____ _____    ______ ____
ROOT
ATOM      1  O   UNL     1      55.510  37.171  74.678  0.00  0.00    +0.000 OA
ATOM      2  N   UNL     1      57.615  38.033  74.862  0.00  0.00    +0.000 N 
ATOM      3  C   UNL     1      56.348  37.987  74.305  0.00  0.00    +0.000 C 
ATOM      4  H   UNL     1      58.023  38.964  74.879  0.00  0.00    +0.000 HD
ENDROOT
BRANCH   2   5
ATOM      5  CA  UNL     1      57.929  37.184  76.012  0.00  0.00    +0.000 C 
BRANCH   5   8
ATOM      6  O   UNL     1      57.692  39.285  77.184  0.00  0.00    +0.000 OA
ATOM      7  N   UNL     1      57.277  37.495  78.440  0.00  0.00    +0.000 N 
ATOM      8  C   UNL     1      57.618  38.053  77.245  0.00  0.00    +0.000 C 
ATOM      9  H   UNL     1      57.078  38.210  79.132  0.00  0.00    +0.000 HD
BRANCH   7  10
ATOM     10  CA  UNL     1      56.775  36.151  78.723  0.00  0.00    +0.000 C 
BRANCH  10  12
ATOM     11  O   UNL     1      55.020  34.979  77.506  0.00  0.00    +0.000 OA
ATOM     12  C   UNL     1      55.378  35.976  78.127  0.00  0.00    +0.000 C 
ENDBRANCH  10  12
BRANCH  10  13
ATOM     13  CB  UNL     1      56.855  35.804  80.218  0.00  0.00    +0.000 C 
BRANCH  13  14
ATOM     14  CG  UNL     1      57.827  34.678  80.637  0.00  0.00    +0.000 C 
ATOM     15  CD1 UNL     1      57.902  34.465  82.147  0.00  0.00    +0.000 C 
ATOM     16  CD2 UNL     1      57.410  33.369  79.957  0.00  0.00    +0.000 C 
ENDBRANCH  13  14
ENDBRANCH  10  13
ENDBRANCH   7  10
ENDBRANCH   5   8
BRANCH   5  17
ATOM     17  CB  UNL     1      59.416  36.802  75.991  0.00  0.00    +0.000 C 
BRANCH  17  18
ATOM     18  CG  UNL     1      59.726  35.398  76.546  0.00  0.00    +0.000 C 
ATOM     19  CD1 UNL     1      60.666  34.607  75.636  0.00  0.00    +0.000 C 
ATOM     20  CD2 UNL     1      60.353  35.521  77.938  0.00  0.00    +0.000 C 
ENDBRANCH  17  18
ENDBRANCH   5  17
ENDBRANCH   2   5
BRANCH   3  21
ATOM     21  CA  UNL     1      56.064  39.088  73.253  0.00  0.00    +0.000 C 
BRANCH  21  23
ATOM     22  O   UNL     1      56.072  38.585  70.475  0.00  0.00    +0.000 OA
ATOM     23  N   UNL     1      54.899  38.711  72.442  0.00  0.00    +0.000 N 
ATOM     24  C   ACE A   0      55.019  38.528  71.090  0.00  0.00    +0.000 C 
ATOM     25  H   UNL     1      53.987  38.989  72.776  0.00  0.00    +0.000 HD
BRANCH  24  26
ATOM     26  O   UNL     1      53.822  38.383  70.472  0.00  0.00    +0.000 OA
BRANCH  26  27
ATOM     27  C   UNL     1      53.537  39.341  69.445  0.00  0.00    +0.000 C 
BRANCH  27  28
ATOM     28  C   UNL     1      53.270  40.689  70.069  0.00  0.00    +0.000 A 
ATOM     29  C   UNL     1      52.291  40.830  71.063  0.00  0.00    +0.000 A 
ATOM     30  C   UNL     1      53.952  41.832  69.626  0.00  0.00    +0.000 A 
ATOM     31  C   UNL     1      52.020  42.083  71.619  0.00  0.00    +0.000 A 
ATOM     32  C   UNL     1      53.680  43.083  70.182  0.00  0.00    +0.000 A 
ATOM     33  C   UNL     1      52.715  43.208  71.179  0.00  0.00    +0.000 A 
ENDBRANCH  27  28
ENDBRANCH  26  27
ENDBRANCH  24  26
ENDBRANCH  21  23
BRANCH  21  34
ATOM     34  CB  UNL     1      55.817  40.453  73.919  0.00  0.00    +0.000 C 
BRANCH  34  35
ATOM     35  CG  UNL     1      55.660  41.653  72.961  0.00  0.00    +0.000 C 
ATOM     36  CD1 UNL     1      55.407  42.965  73.705  0.00  0.00    +0.000 C 
ATOM     37  CD2 UNL     1      56.919  41.787  72.099  0.00  0.00    +0.000 C 
ENDBRANCH  34  35
ENDBRANCH  21  34
ENDBRANCH   3  21
TORSDOF 15
ENDMDL
MODEL 4
REMARK VINA RESULT:      -5.8      3.869      6.391
REMARK  Name = 
REMARK  21 active torsions:
REMARK  status: ('A' for Active; 'I' for Inactive)
REMARK    1  A    between atoms: O_3  and  C_27
REMARK    2  A    between atoms: O_3  and  C_28
REMARK    3  A    between atoms: N_6  and  CA_9
REMARK    4  A    between atoms: N_7  and  CA_15
REMARK    5  A    between atoms: N_8  and  CA_12
REMARK    6  A    between atoms: CA_9  and  CB_10
REMARK    7  A    between atoms: CA_9  and  C_16
REMARK    8  A    between atoms: CB_10  and  CG_11
REMARK    9  A    between atoms: CG_11  and  CD1_20
REMARK   10  A    between atoms: CG_11  and  CD2_21
REMARK   11  A    between atoms: CA_12  and  CB_13
REMARK   12  A    between atoms: CA_12  and  C_18
REMARK   13  A    between atoms: CB_13  and  CG_14
REMARK   14  A    between atoms: CG_14  and  CD1_22
REMARK   15  A    between atoms: CG_14  and  CD2_23
REMARK   16  A    between atoms: CA_15  and  CB_17
REMARK   17  A    between atoms: CA_15  and  C_26
REMARK   18  A    between atoms: CB_17  and  CG_19
REMARK   19  A    between atoms: CG_19  and  CD1_24
REMARK   20  A    between atoms: CG_19  and  CD2_25
REMARK   21  A    between atoms: C_28  and  C_29
REMARK                            x       y       z     vdW  Elec       q    Type
REMARK                         _______ _______ _______ _____ _____    ______ ____
ROOT
ATOM      1  O   UNL     1      55.347  37.572  74.252  0.00  0.00    +0.000 OA
ATOM      2  N   UNL     1      57.319  38.589  73.723  0.00  0.00    +0.000 N 
ATOM      3  C   UNL     1      56.528  37.778  74.518  0.00  0.00    +0.000 C 
ATOM      4  H   UNL     1      58.300  38.316  73.705  0.00  0.00    +0.000 HD
ENDROOT
BRANCH   2   5
ATOM      5  CA  UNL     1      56.785  39.108  72.463  0.00  0.00    +0.000 C 
BRANCH   5   8
ATOM      6  O   UNL     1      58.259  37.408  71.582  0.00  0.00    +0.000 OA
ATOM      7  N   UNL     1      56.638  38.014  70.184  0.00  0.00    +0.000 N 
ATOM      8  C   UNL     1      57.268  38.119  71.386  0.00  0.00    +0.000 C 
ATOM      9  H   UNL     1      57.068  37.297  69.609  0.00  0.00    +0.000 HD
BRANCH   7  10
ATOM     10  CA  UNL     1      55.288  38.435  69.807  0.00  0.00    +0.000 C 
BRANCH  10  12
ATOM     11  O   UNL     1      54.811  36.084  69.380  0.00  0.00    +0.000 OA
ATOM     12  C   UNL     1      54.389  37.212  69.623  0.00  0.00    +0.000 C 
ENDBRANCH  10  12
BRANCH  10  13
ATOM     13  CB  UNL     1      55.292  39.385  68.599  0.00  0.00    +0.000 C 
BRANCH  13  14
ATOM     14  CG  UNL     1      55.942  40.773  68.787  0.00  0.00    +0.000 C 
ATOM     15  CD1 UNL     1      57.265  40.936  68.042  0.00  0.00    +0.000 C 
ATOM     16  CD2 UNL     1      54.962  41.859  68.328  0.00  0.00    +0.000 C 
ENDBRANCH  13  14
ENDBRANCH  10  13
ENDBRANCH   7  10
ENDBRANCH   5   8
BRANCH   5  17
ATOM     17  CB  UNL     1      57.352  40.510  72.192  0.00  0.00    +0.000 C 
BRANCH  17  18
ATOM     18  CG  UNL     1      56.386  41.666  72.516  0.00  0.00    +0.000 C 
ATOM     19  CD1 UNL     1      56.596  42.873  71.601  0.00  0.00    +0.000 C 
ATOM     20  CD2 UNL     1      54.939  41.181  72.390  0.00  0.00    +0.000 C 
ENDBRANCH  17  18
ENDBRANCH   5  17
ENDBRANCH   2   5
BRANCH   3  21
ATOM     21  CA  UNL     1      57.272  37.104  75.697  0.00  0.00    +0.000 C 
BRANCH  21  23
ATOM     22  O   UNL     1      57.405  37.743  78.443  0.00  0.00    +0.000 OA
ATOM     23  N   UNL     1      56.306  36.694  76.725  0.00  0.00    +0.000 N 
ATOM     24  C   ACE A   0      56.496  37.036  78.038  0.00  0.00    +0.000 C 
ATOM     25  H   UNL     1      55.769  35.856  76.555  0.00  0.00    +0.000 HD
BRANCH  24  26
ATOM     26  O   UNL     1      55.629  36.415  78.872  0.00  0.00    +0.000 OA
BRANCH  26  27
ATOM     27  C   UNL     1      55.766  34.991  78.959  0.00  0.00    +0.000 C 
BRANCH  27  28
ATOM     28  C   UNL     1      56.683  34.639  80.105  0.00  0.00    +0.000 A 
ATOM     29  C   UNL     1      57.289  33.376  80.167  0.00  0.00    +0.000 A 
ATOM     30  C   UNL     1      56.897  35.543  81.155  0.00  0.00    +0.000 A 
ATOM     31  C   UNL     1      58.112  33.036  81.243  0.00  0.00    +0.000 A 
ATOM     32  C   UNL     1      57.720  35.202  82.230  0.00  0.00    +0.000 A 
ATOM     33  C   UNL     1      58.328  33.948  82.273  0.00  0.00    +0.000 A 
ENDBRANCH  27  28
ENDBRANCH  26  27
ENDBRANCH  24  26
ENDBRANCH  21  23
BRANCH  21  34
ATOM     34  CB  UNL     1      58.083  35.883  75.227  0.00  0.00    +0.000 C 
BRANCH  34  35
ATOM     35  CG  UNL     1      59.523  35.779  75.771  0.00  0.00    +0.000 C 
ATOM     36  CD1 UNL     1      59.573  35.223  77.194  0.00  0.00    +0.000 C 
ATOM     37  CD2 UNL     1      60.355  34.886  74.844  0.00  0.00    +0.000 C 
ENDBRANCH  34  35
ENDBRANCH  21  34
ENDBRANCH   3  21
TORSDOF 15
ENDMDL
MODEL 5
REMARK VINA RESULT:      -5.3      4.490      8.526
REMARK  Name = 
REMARK  21 active torsions:
REMARK  status: ('A' for Active; 'I' for Inactive)
REMARK    1  A    between atoms: O_3  and  C_27
REMARK    2  A    between atoms: O_3  and  C_28
REMARK    3  A    between atoms: N_6  and  CA_9
REMARK    4  A    between atoms: N_7  and  CA_15
REMARK    5  A    between atoms: N_8  and  CA_12
REMARK    6  A    between atoms: CA_9  and  CB_10
REMARK    7  A    between atoms: CA_9  and  C_16
REMARK    8  A    between atoms: CB_10  and  CG_11
REMARK    9  A    between atoms: CG_11  and  CD1_20
REMARK   10  A    between atoms: CG_11  and  CD2_21
REMARK   11  A    between atoms: CA_12  and  CB_13
REMARK   12  A    between atoms: CA_12  and  C_18
REMARK   13  A    between atoms: CB_13  and  CG_14
REMARK   14  A    between atoms: CG_14  and  CD1_22
REMARK   15  A    between atoms: CG_14  and  CD2_23
REMARK   16  A    between atoms: CA_15  and  CB_17
REMARK   17  A    between atoms: CA_15  and  C_26
REMARK   18  A    between atoms: CB_17  and  CG_19
REMARK   19  A    between atoms: CG_19  and  CD1_24
REMARK   20  A    between atoms: CG_19  and  CD2_25
REMARK   21  A    between atoms: C_28  and  C_29
REMARK                            x       y       z     vdW  Elec       q    Type
REMARK                         _______ _______ _______ _____ _____    ______ ____
ROOT
ATOM      1  O   UNL     1      55.257  37.403  74.305  0.00  0.00    +0.000 OA
ATOM      2  N   UNL     1      57.386  38.146  74.651  0.00  0.00    +0.000 N 
ATOM      3  C   UNL     1      56.149  38.200  74.031  0.00  0.00    +0.000 C 
ATOM      4  H   UNL     1      57.835  39.053  74.751  0.00  0.00    +0.000 HD
ENDROOT
BRANCH   2   5
ATOM      5  CA  UNL     1      57.600  37.209  75.754  0.00  0.00    +0.000 C 
BRANCH   5   8
ATOM      6  O   UNL     1      57.752  39.320  76.920  0.00  0.00    +0.000 OA
ATOM      7  N   UNL     1      57.727  37.545  78.261  0.00  0.00    +0.000 N 
ATOM      8  C   UNL     1      57.690  38.090  77.014  0.00  0.00    +0.000 C 
ATOM      9  H   UNL     1      57.755  38.267  78.974  0.00  0.00    +0.000 HD
BRANCH   7  10
ATOM     10  CA  UNL     1      57.324  36.208  78.699  0.00  0.00    +0.000 C 
BRANCH  10  12
ATOM     11  O   UNL     1      55.018  36.053  77.929  0.00  0.00    +0.000 OA
ATOM     12  C   UNL     1      55.806  36.146  78.866  0.00  0.00    +0.000 C 
ENDBRANCH  10  12
BRANCH  10  13
ATOM     13  CB  UNL     1      58.101  35.744  79.941  0.00  0.00    +0.000 C 
BRANCH  13  14
ATOM     14  CG  UNL     1      57.291  35.107  81.091  0.00  0.00    +0.000 C 
ATOM     15  CD1 UNL     1      57.619  33.635  81.328  0.00  0.00    +0.000 C 
ATOM     16  CD2 UNL     1      57.533  35.898  82.382  0.00  0.00    +0.000 C 
ENDBRANCH  13  14
ENDBRANCH  10  13
ENDBRANCH   7  10
ENDBRANCH   5   8
BRANCH   5  17
ATOM     17  CB  UNL     1      58.916  36.445  75.544  0.00  0.00    +0.000 C 
BRANCH  17  18
ATOM     18  CG  UNL     1      59.835  37.037  74.457  0.00  0.00    +0.000 C 
ATOM     19  CD1 UNL     1      60.933  37.924  75.045  0.00  0.00    +0.000 C 
ATOM     20  CD2 UNL     1      60.476  35.903  73.651  0.00  0.00    +0.000 C 
ENDBRANCH  17  18
ENDBRANCH   5  17
ENDBRANCH   2   5
BRANCH   3  21
ATOM     21  CA  UNL     1      55.971  39.380  73.044  0.00  0.00    +0.000 C 
BRANCH  21  23
ATOM     22  O   UNL     1      56.239  38.607  70.343  0.00  0.00    +0.000 OA
ATOM     23  N   UNL     1      54.869  39.090  72.117  0.00  0.00    +0.000 N 
ATOM     24  C   ACE A   0      55.123  38.758  70.813  0.00  0.00    +0.000 C 
ATOM     25  H   UNL     1      53.976  39.525  72.302  0.00  0.00    +0.000 HD
BRANCH  24  26
ATOM     26  O   UNL     1      54.002  38.720  70.053  0.00  0.00    +0.000 OA
BRANCH  26  27
ATOM     27  C   UNL     1      53.146  37.592  70.270  0.00  0.00    +0.000 C 
BRANCH  27  28
ATOM     28  C   UNL     1      51.705  38.007  70.098  0.00  0.00    +0.000 A 
ATOM     29  C   UNL     1      51.033  37.759  68.894  0.00  0.00    +0.000 A 
ATOM     30  C   UNL     1      51.034  38.700  71.116  0.00  0.00    +0.000 A 
ATOM     31  C   UNL     1      49.710  38.171  68.721  0.00  0.00    +0.000 A 
ATOM     32  C   UNL     1      49.711  39.112  70.943  0.00  0.00    +0.000 A 
ATOM     33  C   UNL     1      49.049  38.846  69.746  0.00  0.00    +0.000 A 
ENDBRANCH  27  28
ENDBRANCH  26  27
ENDBRANCH  24  26
ENDBRANCH  21  23
BRANCH  21  34
ATOM     34  CB  UNL     1      55.694  40.699  73.788  0.00  0.00    +0.000 C 
BRANCH  34  35
ATOM     35  CG  UNL     1      56.173  41.985  73.083  0.00  0.00    +0.000 C 
ATOM     36  CD1 UNL     1      57.365  41.737  72.159  0.00  0.00    +0.000 C 
ATOM     37  CD2 UNL     1      55.017  42.588  72.278  0.00  0.00    +0.000 C 
ENDBRANCH  34  35
ENDBRANCH  21  34
ENDBRANCH   3  21
TORSDOF 15
ENDMDL
MODEL 6
REMARK VINA RESULT:      -5.3      2.165      8.256
REMARK  Name = 
REMARK  21 active torsions:
REMARK  status: ('A' for Active; 'I' for Inactive)
REMARK    1  A    between atoms: O_3  and  C_27
REMARK    2  A    between atoms: O_3  and  C_28
REMARK    3  A    between atoms: N_6  and  CA_9
REMARK    4  A    between atoms: N_7  and  CA_15
REMARK    5  A    between atoms: N_8  and  CA_12
REMARK    6  A    between atoms: CA_9  and  CB_10
REMARK    7  A    between atoms: CA_9  and  C_16
REMARK    8  A    between atoms: CB_10  and  CG_11
REMARK    9  A    between atoms: CG_11  and  CD1_20
REMARK   10  A    between atoms: CG_11  and  CD2_21
REMARK   11  A    between atoms: CA_12  and  CB_13
REMARK   12  A    between atoms: CA_12  and  C_18
REMARK   13  A    between atoms: CB_13  and  CG_14
REMARK   14  A    between atoms: CG_14  and  CD1_22
REMARK   15  A    between atoms: CG_14  and  CD2_23
REMARK   16  A    between atoms: CA_15  and  CB_17
REMARK   17  A    between atoms: CA_15  and  C_26
REMARK   18  A    between atoms: CB_17  and  CG_19
REMARK   19  A    between atoms: CG_19  and  CD1_24
REMARK   20  A    between atoms: CG_19  and  CD2_25
REMARK   21  A    between atoms: C_28  and  C_29
REMARK                            x       y       z     vdW  Elec       q    Type
REMARK                         _______ _______ _______ _____ _____    ______ ____
ROOT
ATOM      1  O   UNL     1      60.414  36.159  73.369  0.00  0.00    +0.000 OA
ATOM      2  N   UNL     1      58.235  35.505  73.527  0.00  0.00    +0.000 N 
ATOM      3  C   UNL     1      59.553  35.312  73.150  0.00  0.00    +0.000 C 
ATOM      4  H   UNL     1      57.746  34.645  73.767  0.00  0.00    +0.000 HD
ENDROOT
BRANCH   2   5
ATOM      5  CA  UNL     1      57.875  36.679  74.323  0.00  0.00    +0.000 C 
BRANCH   5   8
ATOM      6  O   UNL     1      55.965  35.401  75.068  0.00  0.00    +0.000 OA
ATOM      7  N   UNL     1      56.993  36.523  76.692  0.00  0.00    +0.000 N 
ATOM      8  C   UNL     1      56.890  36.155  75.385  0.00  0.00    +0.000 C 
ATOM      9  H   UNL     1      56.285  36.064  77.255  0.00  0.00    +0.000 HD
BRANCH   7  10
ATOM     10  CA  UNL     1      58.138  37.084  77.407  0.00  0.00    +0.000 C 
BRANCH  10  12
ATOM     11  O   UNL     1      57.377  39.334  76.865  0.00  0.00    +0.000 OA
ATOM     12  C   UNL     1      57.917  38.575  77.665  0.00  0.00    +0.000 C 
ENDBRANCH  10  12
BRANCH  10  13
ATOM     13  CB  UNL     1      59.470  36.771  76.708  0.00  0.00    +0.000 C 
BRANCH  13  14
ATOM     14  CG  UNL     1      60.189  35.461  77.100  0.00  0.00    +0.000 C 
ATOM     15  CD1 UNL     1      61.701  35.506  76.888  0.00  0.00    +0.000 C 
ATOM     16  CD2 UNL     1      59.889  35.137  78.568  0.00  0.00    +0.000 C 
ENDBRANCH  13  14
ENDBRANCH  10  13
ENDBRANCH   7  10
ENDBRANCH   5   8
BRANCH   5  17
ATOM     17  CB  UNL     1      57.190  37.726  73.432  0.00  0.00    +0.000 C 
BRANCH  17  18
ATOM     18  CG  UNL     1      58.143  38.774  72.825  0.00  0.00    +0.000 C 
ATOM     19  CD1 UNL     1      57.391  39.944  72.189  0.00  0.00    +0.000 C 
ATOM     20  CD2 UNL     1      59.083  39.307  73.911  0.00  0.00    +0.000 C 
ENDBRANCH  17  18
ENDBRANCH   5  17
ENDBRANCH   2   5
BRANCH   3  21
ATOM     21  CA  UNL     1      59.850  33.930  72.519  0.00  0.00    +0.000 C 
BRANCH  21  23
ATOM     22  O   UNL     1      59.005  33.992  69.826  0.00  0.00    +0.000 OA
ATOM     23  N   UNL     1      60.719  34.096  71.346  0.00  0.00    +0.000 N 
ATOM     24  C   ACE A   0      60.196  34.074  70.081  0.00  0.00    +0.000 C 
ATOM     25  H   UNL     1      61.685  33.812  71.436  0.00  0.00    +0.000 HD
BRANCH  24  26
ATOM     26  O   UNL     1      61.150  34.039  69.120  0.00  0.00    +0.000 OA
BRANCH  26  27
ATOM     27  C   UNL     1      61.080  32.927  68.219  0.00  0.00    +0.000 C 
BRANCH  27  28
ATOM     28  C   UNL     1      61.428  31.656  68.954  0.00  0.00    +0.000 A 
ATOM     29  C   UNL     1      62.754  31.389  69.322  0.00  0.00    +0.000 A 
ATOM     30  C   UNL     1      60.444  30.694  69.228  0.00  0.00    +0.000 A 
ATOM     31  C   UNL     1      63.083  30.198  69.974  0.00  0.00    +0.000 A 
ATOM     32  C   UNL     1      60.774  29.505  69.879  0.00  0.00    +0.000 A 
ATOM     33  C   UNL     1      62.094  29.258  70.253  0.00  0.00    +0.000 A 
ENDBRANCH  27  28
ENDBRANCH  26  27
ENDBRANCH  24  26
ENDBRANCH  21  23
BRANCH  21  34
ATOM     34  CB  UNL     1      60.515  32.980  73.531  0.00  0.00    +0.000 C 
BRANCH  34  35
ATOM     35  CG  UNL     1      61.373  31.847  72.931  0.00  0.00    +0.000 C 
ATOM     36  CD1 UNL     1      62.866  32.036  73.205  0.00  0.00    +0.000 C 
ATOM     37  CD2 UNL     1      60.914  30.501  73.502  0.00  0.00    +0.000 C 
ENDBRANCH  34  35
ENDBRANCH  21  34
ENDBRANCH   3  21
TORSDOF 15
ENDMDL
MODEL 7
REMARK VINA RESULT:      -4.9      4.607      6.938
REMARK  Name = 
REMARK  21 active torsions:
REMARK  status: ('A' for Active; 'I' for Inactive)
REMARK    1  A    between atoms: O_3  and  C_27
REMARK    2  A    between atoms: O_3  and  C_28
REMARK    3  A    between atoms: N_6  and  CA_9
REMARK    4  A    between atoms: N_7  and  CA_15
REMARK    5  A    between atoms: N_8  and  CA_12
REMARK    6  A    between atoms: CA_9  and  CB_10
REMARK    7  A    between atoms: CA_9  and  C_16
REMARK    8  A    between atoms: CB_10  and  CG_11
REMARK    9  A    between atoms: CG_11  and  CD1_20
REMARK   10  A    between atoms: CG_11  and  CD2_21
REMARK   11  A    between atoms: CA_12  and  CB_13
REMARK   12  A    between atoms: CA_12  and  C_18
REMARK   13  A    between atoms: CB_13  and  CG_14
REMARK   14  A    between atoms: CG_14  and  CD1_22
REMARK   15  A    between atoms: CG_14  and  CD2_23
REMARK   16  A    between atoms: CA_15  and  CB_17
REMARK   17  A    between atoms: CA_15  and  C_26
REMARK   18  A    between atoms: CB_17  and  CG_19
REMARK   19  A    between atoms: CG_19  and  CD1_24
REMARK   20  A    between atoms: CG_19  and  CD2_25
REMARK   21  A    between atoms: C_28  and  C_29
REMARK                            x       y       z     vdW  Elec       q    Type
REMARK                         _______ _______ _______ _____ _____    ______ ____
ROOT
ATOM      1  O   UNL     1      54.853  38.022  72.688  0.00  0.00    +0.000 OA
ATOM      2  N   UNL     1      56.569  39.480  72.323  0.00  0.00    +0.000 N 
ATOM      3  C   UNL     1      55.930  38.487  73.047  0.00  0.00    +0.000 C 
ATOM      4  H   UNL     1      57.584  39.441  72.379  0.00  0.00    +0.000 HD
ENDROOT
BRANCH   2   5
ATOM      5  CA  UNL     1      56.024  39.896  71.030  0.00  0.00    +0.000 C 
BRANCH   5   8
ATOM      6  O   UNL     1      57.434  38.203  70.038  0.00  0.00    +0.000 OA
ATOM      7  N   UNL     1      55.358  38.233  69.239  0.00  0.00    +0.000 N 
ATOM      8  C   UNL     1      56.313  38.720  70.078  0.00  0.00    +0.000 C 
ATOM      9  H   UNL     1      55.709  37.444  68.707  0.00  0.00    +0.000 HD
BRANCH   7  10
ATOM     10  CA  UNL     1      53.904  38.385  69.306  0.00  0.00    +0.000 C 
BRANCH  10  12
ATOM     11  O   UNL     1      52.048  36.819  69.503  0.00  0.00    +0.000 OA
ATOM     12  C   UNL     1      53.250  37.040  69.625  0.00  0.00    +0.000 C 
ENDBRANCH  10  12
BRANCH  10  13
ATOM     13  CB  UNL     1      53.333  39.067  68.054  0.00  0.00    +0.000 C 
BRANCH  13  14
ATOM     14  CG  UNL     1      52.791  40.505  68.210  0.00  0.00    +0.000 C 
ATOM     15  CD1 UNL     1      52.092  40.753  69.546  0.00  0.00    +0.000 C 
ATOM     16  CD2 UNL     1      53.942  41.503  68.044  0.00  0.00    +0.000 C 
ENDBRANCH  13  14
ENDBRANCH  10  13
ENDBRANCH   7  10
ENDBRANCH   5   8
BRANCH   5  17
ATOM     17  CB  UNL     1      56.739  41.164  70.544  0.00  0.00    +0.000 C 
BRANCH  17  18
ATOM     18  CG  UNL     1      56.195  42.477  71.141  0.00  0.00    +0.000 C 
ATOM     19  CD1 UNL     1      56.252  43.636  70.145  0.00  0.00    +0.000 C 
ATOM     20  CD2 UNL     1      54.747  42.274  71.599  0.00  0.00    +0.000 C 
ENDBRANCH  17  18
ENDBRANCH   5  17
ENDBRANCH   2   5
BRANCH   3  21
ATOM     21  CA  UNL     1      56.721  37.971  74.274  0.00  0.00    +0.000 C 
BRANCH  21  23
ATOM     22  O   UNL     1      55.351  38.495  76.686  0.00  0.00    +0.000 OA
ATOM     23  N   UNL     1      55.901  37.012  75.026  0.00  0.00    +0.000 N 
ATOM     24  C   ACE A   0      55.312  37.373  76.208  0.00  0.00    +0.000 C 
ATOM     25  H   UNL     1      56.107  36.029  74.911  0.00  0.00    +0.000 HD
BRANCH  24  26
ATOM     26  O   UNL     1      54.764  36.321  76.864  0.00  0.00    +0.000 OA
BRANCH  26  27
ATOM     27  C   UNL     1      55.616  35.181  77.023  0.00  0.00    +0.000 C 
BRANCH  27  28
ATOM     28  C   UNL     1      56.660  35.469  78.075  0.00  0.00    +0.000 A 
ATOM     29  C   UNL     1      56.284  35.689  79.407  0.00  0.00    +0.000 A 
ATOM     30  C   UNL     1      58.014  35.582  77.728  0.00  0.00    +0.000 A 
ATOM     31  C   UNL     1      57.245  35.988  80.376  0.00  0.00    +0.000 A 
ATOM     32  C   UNL     1      58.974  35.881  78.697  0.00  0.00    +0.000 A 
ATOM     33  C   UNL     1      58.588  36.083  80.021  0.00  0.00    +0.000 A 
ENDBRANCH  27  28
ENDBRANCH  26  27
ENDBRANCH  24  26
ENDBRANCH  21  23
BRANCH  21  34
ATOM     34  CB  UNL     1      58.045  37.309  73.854  0.00  0.00    +0.000 C 
BRANCH  34  35
ATOM     35  CG  UNL     1      59.321  37.869  74.517  0.00  0.00    +0.000 C 
ATOM     36  CD1 UNL     1      59.013  38.741  75.734  0.00  0.00    +0.000 C 
ATOM     37  CD2 UNL     1      60.231  36.709  74.934  0.00  0.00    +0.000 C 
ENDBRANCH  34  35
ENDBRANCH  21  34
ENDBRANCH   3  21
TORSDOF 15
ENDMDL
MODEL 8
REMARK VINA RESULT:      -4.9      4.797      7.271
REMARK  Name = 
REMARK  21 active torsions:
REMARK  status: ('A' for Active; 'I' for Inactive)
REMARK    1  A    between atoms: O_3  and  C_27
REMARK    2  A    between atoms: O_3  and  C_28
REMARK    3  A    between atoms: N_6  and  CA_9
REMARK    4  A    between atoms: N_7  and  CA_15
REMARK    5  A    between atoms: N_8  and  CA_12
REMARK    6  A    between atoms: CA_9  and  CB_10
REMARK    7  A    between atoms: CA_9  and  C_16
REMARK    8  A    between atoms: CB_10  and  CG_11
REMARK    9  A    between atoms: CG_11  and  CD1_20
REMARK   10  A    between atoms: CG_11  and  CD2_21
REMARK   11  A    between atoms: CA_12  and  CB_13
REMARK   12  A    between atoms: CA_12  and  C_18
REMARK   13  A    between atoms: CB_13  and  CG_14
REMARK   14  A    between atoms: CG_14  and  CD1_22
REMARK   15  A    between atoms: CG_14  and  CD2_23
REMARK   16  A    between atoms: CA_15  and  CB_17
REMARK   17  A    between atoms: CA_15  and  C_26
REMARK   18  A    between atoms: CB_17  and  CG_19
REMARK   19  A    between atoms: CG_19  and  CD1_24
REMARK   20  A    between atoms: CG_19  and  CD2_25
REMARK   21  A    between atoms: C_28  and  C_29
REMARK                            x       y       z     vdW  Elec       q    Type
REMARK                         _______ _______ _______ _____ _____    ______ ____
ROOT
ATOM      1  O   UNL     1      57.406  38.287  71.002  0.00  0.00    +0.000 OA
ATOM      2  N   UNL     1      55.402  38.644  72.033  0.00  0.00    +0.000 N 
ATOM      3  C   UNL     1      56.758  38.365  72.042  0.00  0.00    +0.000 C 
ATOM      4  H   UNL     1      55.083  39.160  72.850  0.00  0.00    +0.000 HD
ENDROOT
BRANCH   2   5
ATOM      5  CA  UNL     1      54.744  38.988  70.772  0.00  0.00    +0.000 C 
BRANCH   5   8
ATOM      6  O   UNL     1      52.962  40.415  71.565  0.00  0.00    +0.000 OA
ATOM      7  N   UNL     1      54.670  41.517  70.660  0.00  0.00    +0.000 N 
ATOM      8  C   UNL     1      54.074  40.351  71.031  0.00  0.00    +0.000 C 
ATOM      9  H   UNL     1      54.106  42.316  70.931  0.00  0.00    +0.000 HD
BRANCH   7  10
ATOM     10  CA  UNL     1      56.076  41.781  70.352  0.00  0.00    +0.000 C 
BRANCH  10  12
ATOM     11  O   UNL     1      57.448  42.438  72.255  0.00  0.00    +0.000 OA
ATOM     12  C   UNL     1      56.661  42.761  71.368  0.00  0.00    +0.000 C 
ENDBRANCH  10  12
BRANCH  10  13
ATOM     13  CB  UNL     1      56.279  42.212  68.891  0.00  0.00    +0.000 C 
BRANCH  13  14
ATOM     14  CG  UNL     1      56.456  43.721  68.612  0.00  0.00    +0.000 C 
ATOM     15  CD1 UNL     1      57.349  44.020  67.409  0.00  0.00    +0.000 C 
ATOM     16  CD2 UNL     1      55.080  44.362  68.398  0.00  0.00    +0.000 C 
ENDBRANCH  13  14
ENDBRANCH  10  13
ENDBRANCH   7  10
ENDBRANCH   5   8
BRANCH   5  17
ATOM     17  CB  UNL     1      53.685  37.930  70.429  0.00  0.00    +0.000 C 
BRANCH  17  18
ATOM     18  CG  UNL     1      54.084  36.969  69.291  0.00  0.00    +0.000 C 
ATOM     19  CD1 UNL     1      52.898  36.601  68.399  0.00  0.00    +0.000 C 
ATOM     20  CD2 UNL     1      55.182  37.609  68.436  0.00  0.00    +0.000 C 
ENDBRANCH  17  18
ENDBRANCH   5  17
ENDBRANCH   2   5
BRANCH   3  21
ATOM     21  CA  UNL     1      57.385  38.246  73.453  0.00  0.00    +0.000 C 
BRANCH  21  23
ATOM     22  O   UNL     1      56.007  39.443  75.607  0.00  0.00    +0.000 OA
ATOM     23  N   UNL     1      56.446  37.570  74.358  0.00  0.00    +0.000 N 
ATOM     24  C   ACE A   0      55.863  38.250  75.395  0.00  0.00    +0.000 C 
ATOM     25  H   UNL     1      56.551  36.573  74.480  0.00  0.00    +0.000 HD
BRANCH  24  26
ATOM     26  O   UNL     1      55.188  37.436  76.242  0.00  0.00    +0.000 OA
BRANCH  26  27
ATOM     27  C   UNL     1      55.524  36.045  76.162  0.00  0.00    +0.000 C 
BRANCH  27  28
ATOM     28  C   UNL     1      56.181  35.607  77.448  0.00  0.00    +0.000 A 
ATOM     29  C   UNL     1      55.463  34.864  78.395  0.00  0.00    +0.000 A 
ATOM     30  C   UNL     1      57.498  35.986  77.746  0.00  0.00    +0.000 A 
ATOM     31  C   UNL     1      56.058  34.485  79.600  0.00  0.00    +0.000 A 
ATOM     32  C   UNL     1      58.092  35.607  78.950  0.00  0.00    +0.000 A 
ATOM     33  C   UNL     1      57.372  34.856  79.877  0.00  0.00    +0.000 A 
ENDBRANCH  27  28
ENDBRANCH  26  27
ENDBRANCH  24  26
ENDBRANCH  21  23
BRANCH  21  34
ATOM     34  CB  UNL     1      58.718  37.478  73.415  0.00  0.00    +0.000 C 
BRANCH  34  35
ATOM     35  CG  UNL     1      59.278  37.028  74.781  0.00  0.00    +0.000 C 
ATOM     36  CD1 UNL     1      59.708  35.561  74.782  0.00  0.00    +0.000 C 
ATOM     37  CD2 UNL     1      60.472  37.912  75.159  0.00  0.00    +0.000 C 
ENDBRANCH  34  35
ENDBRANCH  21  34
ENDBRANCH   3  21
TORSDOF 15
ENDMDL
MODEL 9
REMARK VINA RESULT:      -4.9      4.713      7.506
REMARK  Name = 
REMARK  21 active torsions:
REMARK  status: ('A' for Active; 'I' for Inactive)
REMARK    1  A    between atoms: O_3  and  C_27
REMARK    2  A    between atoms: O_3  and  C_28
REMARK    3  A    between atoms: N_6  and  CA_9
REMARK    4  A    between atoms: N_7  and  CA_15
REMARK    5  A    between atoms: N_8  and  CA_12
REMARK    6  A    between atoms: CA_9  and  CB_10
REMARK    7  A    between atoms: CA_9  and  C_16
REMARK    8  A    between atoms: CB_10  and  CG_11
REMARK    9  A    between atoms: CG_11  and  CD1_20
REMARK   10  A    between atoms: CG_11  and  CD2_21
REMARK   11  A    between atoms: CA_12  and  CB_13
REMARK   12  A    between atoms: CA_12  and  C_18
REMARK   13  A    between atoms: CB_13  and  CG_14
REMARK   14  A    between atoms: CG_14  and  CD1_22
REMARK   15  A    between atoms: CG_14  and  CD2_23
REMARK   16  A    between atoms: CA_15  and  CB_17
REMARK   17  A    between atoms: CA_15  and  C_26
REMARK   18  A    between atoms: CB_17  and  CG_19
REMARK   19  A    between atoms: CG_19  and  CD1_24
REMARK   20  A    between atoms: CG_19  and  CD2_25
REMARK   21  A    between atoms: C_28  and  C_29
REMARK                            x       y       z     vdW  Elec       q    Type
REMARK                         _______ _______ _______ _____ _____    ______ ____
ROOT
ATOM      1  O   UNL     1      55.332  38.580  72.950  0.00  0.00    +0.000 OA
ATOM      2  N   UNL     1      56.342  40.359  73.960  0.00  0.00    +0.000 N 
ATOM      3  C   UNL     1      56.106  39.004  73.802  0.00  0.00    +0.000 C 
ATOM      4  H   UNL     1      57.281  40.579  74.282  0.00  0.00    +0.000 HD
ENDROOT
BRANCH   2   5
ATOM      5  CA  UNL     1      55.763  41.308  73.008  0.00  0.00    +0.000 C 
BRANCH   5   8
ATOM      6  O   UNL     1      57.956  42.142  72.428  0.00  0.00    +0.000 OA
ATOM      7  N   UNL     1      56.781  41.398  70.690  0.00  0.00    +0.000 N 
ATOM      8  C   UNL     1      56.904  41.634  72.026  0.00  0.00    +0.000 C 
ATOM      9  H   UNL     1      57.634  41.642  70.198  0.00  0.00    +0.000 HD
BRANCH   7  10
ATOM     10  CA  UNL     1      55.849  40.514  69.989  0.00  0.00    +0.000 C 
BRANCH  10  12
ATOM     11  O   UNL     1      55.917  38.200  69.232  0.00  0.00    +0.000 OA
ATOM     12  C   UNL     1      56.496  39.150  69.753  0.00  0.00    +0.000 C 
ENDBRANCH  10  12
BRANCH  10  13
ATOM     13  CB  UNL     1      55.287  41.159  68.713  0.00  0.00    +0.000 C 
BRANCH  13  14
ATOM     14  CG  UNL     1      53.793  41.553  68.712  0.00  0.00    +0.000 C 
ATOM     15  CD1 UNL     1      53.439  42.610  67.668  0.00  0.00    +0.000 C 
ATOM     16  CD2 UNL     1      52.938  40.302  68.481  0.00  0.00    +0.000 C 
ENDBRANCH  13  14
ENDBRANCH  10  13
ENDBRANCH   7  10
ENDBRANCH   5   8
BRANCH   5  17
ATOM     17  CB  UNL     1      55.313  42.579  73.743  0.00  0.00    +0.000 C 
BRANCH  17  18
ATOM     18  CG  UNL     1      54.316  43.455  72.959  0.00  0.00    +0.000 C 
ATOM     19  CD1 UNL     1      55.018  44.464  72.050  0.00  0.00    +0.000 C 
ATOM     20  CD2 UNL     1      53.399  42.564  72.115  0.00  0.00    +0.000 C 
ENDBRANCH  17  18
ENDBRANCH   5  17
ENDBRANCH   2   5
BRANCH   3  21
ATOM     21  CA  UNL     1      56.953  38.090  74.721  0.00  0.00    +0.000 C 
BRANCH  21  23
ATOM     22  O   UNL     1      55.588  38.583  77.142  0.00  0.00    +0.000 OA
ATOM     23  N   UNL     1      56.077  37.144  75.425  0.00  0.00    +0.000 N 
ATOM     24  C   ACE A   0      55.495  37.485  76.617  0.00  0.00    +0.000 C 
ATOM     25  H   UNL     1      56.233  36.158  75.270  0.00  0.00    +0.000 HD
BRANCH  24  26
ATOM     26  O   UNL     1      54.887  36.438  77.223  0.00  0.00    +0.000 OA
BRANCH  26  27
ATOM     27  C   UNL     1      55.587  35.190  77.149  0.00  0.00    +0.000 C 
BRANCH  27  28
ATOM     28  C   UNL     1      56.527  35.064  78.324  0.00  0.00    +0.000 A 
ATOM     29  C   UNL     1      56.031  34.767  79.601  0.00  0.00    +0.000 A 
ATOM     30  C   UNL     1      57.901  35.301  78.171  0.00  0.00    +0.000 A 
ATOM     31  C   UNL     1      56.895  34.683  80.696  0.00  0.00    +0.000 A 
ATOM     32  C   UNL     1      58.763  35.217  79.265  0.00  0.00    +0.000 A 
ATOM     33  C   UNL     1      58.260  34.906  80.527  0.00  0.00    +0.000 A 
ENDBRANCH  27  28
ENDBRANCH  26  27
ENDBRANCH  24  26
ENDBRANCH  21  23
BRANCH  21  34
ATOM     34  CB  UNL     1      58.018  37.318  73.922  0.00  0.00    +0.000 C 
BRANCH  34  35
ATOM     35  CG  UNL     1      58.314  35.881  74.400  0.00  0.00    +0.000 C 
ATOM     36  CD1 UNL     1      58.277  34.865  73.259  0.00  0.00    +0.000 C 
ATOM     37  CD2 UNL     1      59.688  35.841  75.078  0.00  0.00    +0.000 C 
ENDBRANCH  34  35
ENDBRANCH  21  34
ENDBRANCH   3  21
TORSDOF 15
ENDMDL
