MODEL 1
REMARK VINA RESULT:      -5.9      0.000      0.000
REMARK  Name = Monobenzone.pdbqt.pdb
REMARK  4 active torsions:
REMARK  status: ('A' for Active; 'I' for Inactive)
REMARK    1  A    between atoms: C_1  and  O_7
REMARK    2  A    between atoms: C_6  and  O_15
REMARK    3  A    between atoms: O_7  and  C_8
REMARK    4  A    between atoms: C_8  and  C_9
REMARK                            x       y       z     vdW  Elec       q    Type
REMARK                         _______ _______ _______ _____ _____    ______ ____
ROOT
ATOM      1  C   UNL     1      55.401  36.265  76.848  0.00  0.00    +0.000 A 
ATOM      2  C   UNL     1      55.843  36.362  75.526  0.00  0.00    +0.000 A 
ATOM      3  C   UNL     1      55.213  37.425  77.601  0.00  0.00    +0.000 A 
ATOM      4  C   UNL     1      56.095  37.610  74.960  0.00  0.00    +0.000 A 
ATOM      5  C   UNL     1      55.464  38.674  77.041  0.00  0.00    +0.000 A 
ATOM      6  C   UNL     1      55.903  38.757  75.723  0.00  0.00    +0.000 A 
ENDROOT
BRANCH   6   7
ATOM      7  O   UNL     1      56.141  39.992  75.195  0.00  0.00    +0.000 OA
ATOM      8  H   UNL     1      56.114  40.643  75.917  0.00  0.00    +0.000 HD
ENDBRANCH   6   7
BRANCH   1   9
ATOM      9  O   UNL     1      55.127  35.083  77.490  0.00  0.00    +0.000 OA
BRANCH   9  10
ATOM     10  C   UNL     1      55.827  34.877  78.603  0.00  0.00    +0.000 C 
BRANCH  10  11
ATOM     11  C   UNL     1      56.581  34.641  79.791  0.00  0.00    +0.000 A 
ATOM     12  C   UNL     1      57.197  33.408  79.987  0.00  0.00    +0.000 A 
ATOM     13  C   UNL     1      57.930  33.176  81.149  0.00  0.00    +0.000 A 
ATOM     14  C   UNL     1      58.045  34.177  82.111  0.00  0.00    +0.000 A 
ATOM     15  C   UNL     1      57.428  35.410  81.912  0.00  0.00    +0.000 A 
ATOM     16  C   UNL     1      56.695  35.644  80.751  0.00  0.00    +0.000 A 
ENDBRANCH  10  11
ENDBRANCH   9  10
ENDBRANCH   1   9
TORSDOF 4
ENDMDL
MODEL 2
REMARK VINA RESULT:      -5.4      1.831      2.561
REMARK  Name = Monobenzone.pdbqt.pdb
REMARK  4 active torsions:
REMARK  status: ('A' for Active; 'I' for Inactive)
REMARK    1  A    between atoms: C_1  and  O_7
REMARK    2  A    between atoms: C_6  and  O_15
REMARK    3  A    between atoms: O_7  and  C_8
REMARK    4  A    between atoms: C_8  and  C_9
REMARK                            x       y       z     vdW  Elec       q    Type
REMARK                         _______ _______ _______ _____ _____    ______ ____
ROOT
ATOM      1  C   UNL     1      57.502  37.951  77.315  0.00  0.00    +0.000 A 
ATOM      2  C   UNL     1      56.702  39.029  76.926  0.00  0.00    +0.000 A 
ATOM      3  C   UNL     1      57.587  36.823  76.498  0.00  0.00    +0.000 A 
ATOM      4  C   UNL     1      55.994  38.980  75.728  0.00  0.00    +0.000 A 
ATOM      5  C   UNL     1      56.880  36.769  75.299  0.00  0.00    +0.000 A 
ATOM      6  C   UNL     1      56.089  37.849  74.924  0.00  0.00    +0.000 A 
ENDROOT
BRANCH   6   7
ATOM      7  O   UNL     1      55.406  37.774  73.745  0.00  0.00    +0.000 OA
ATOM      8  H   UNL     1      54.639  37.189  73.873  0.00  0.00    +0.000 HD
ENDBRANCH   6   7
BRANCH   1   9
ATOM      9  O   UNL     1      58.235  37.907  78.474  0.00  0.00    +0.000 OA
BRANCH   9  10
ATOM     10  C   UNL     1      58.145  36.764  79.150  0.00  0.00    +0.000 C 
BRANCH  10  11
ATOM     11  C   UNL     1      58.044  35.532  79.861  0.00  0.00    +0.000 A 
ATOM     12  C   UNL     1      58.706  35.377  81.077  0.00  0.00    +0.000 A 
ATOM     13  C   UNL     1      58.611  34.171  81.768  0.00  0.00    +0.000 A 
ATOM     14  C   UNL     1      57.857  33.125  81.243  0.00  0.00    +0.000 A 
ATOM     15  C   UNL     1      57.195  33.283  80.027  0.00  0.00    +0.000 A 
ATOM     16  C   UNL     1      57.288  34.487  79.335  0.00  0.00    +0.000 A 
ENDBRANCH  10  11
ENDBRANCH   9  10
ENDBRANCH   1   9
TORSDOF 4
ENDMDL
MODEL 3
REMARK VINA RESULT:      -5.0      2.215      3.334
REMARK  Name = Monobenzone.pdbqt.pdb
REMARK  4 active torsions:
REMARK  status: ('A' for Active; 'I' for Inactive)
REMARK    1  A    between atoms: C_1  and  O_7
REMARK    2  A    between atoms: C_6  and  O_15
REMARK    3  A    between atoms: O_7  and  C_8
REMARK    4  A    between atoms: C_8  and  C_9
REMARK                            x       y       z     vdW  Elec       q    Type
REMARK                         _______ _______ _______ _____ _____    ______ ____
ROOT
ATOM      1  C   UNL     1      56.916  37.349  74.246  0.00  0.00    +0.000 A 
ATOM      2  C   UNL     1      56.284  38.435  73.635  0.00  0.00    +0.000 A 
ATOM      3  C   UNL     1      58.292  37.392  74.481  0.00  0.00    +0.000 A 
ATOM      4  C   UNL     1      57.020  39.557  73.264  0.00  0.00    +0.000 A 
ATOM      5  C   UNL     1      59.032  38.511  74.111  0.00  0.00    +0.000 A 
ATOM      6  C   UNL     1      58.389  39.586  73.504  0.00  0.00    +0.000 A 
ENDROOT
BRANCH   6   7
ATOM      7  O   UNL     1      59.135  40.672  73.151  0.00  0.00    +0.000 OA
ATOM      8  H   UNL     1      59.677  40.933  73.915  0.00  0.00    +0.000 HD
ENDBRANCH   6   7
BRANCH   1   9
ATOM      9  O   UNL     1      56.277  36.202  74.647  0.00  0.00    +0.000 OA
BRANCH   9  10
ATOM     10  C   UNL     1      56.376  35.932  75.946  0.00  0.00    +0.000 C 
BRANCH  10  11
ATOM     11  C   UNL     1      56.491  35.629  77.335  0.00  0.00    +0.000 A 
ATOM     12  C   UNL     1      57.557  36.142  78.070  0.00  0.00    +0.000 A 
ATOM     13  C   UNL     1      57.672  35.841  79.426  0.00  0.00    +0.000 A 
ATOM     14  C   UNL     1      56.723  35.030  80.042  0.00  0.00    +0.000 A 
ATOM     15  C   UNL     1      55.658  34.518  79.304  0.00  0.00    +0.000 A 
ATOM     16  C   UNL     1      55.541  34.817  77.950  0.00  0.00    +0.000 A 
ENDBRANCH  10  11
ENDBRANCH   9  10
ENDBRANCH   1   9
TORSDOF 4
ENDMDL
MODEL 4
REMARK VINA RESULT:      -5.0      4.188      5.778
REMARK  Name = Monobenzone.pdbqt.pdb
REMARK  4 active torsions:
REMARK  status: ('A' for Active; 'I' for Inactive)
REMARK    1  A    between atoms: C_1  and  O_7
REMARK    2  A    between atoms: C_6  and  O_15
REMARK    3  A    between atoms: O_7  and  C_8
REMARK    4  A    between atoms: C_8  and  C_9
REMARK                            x       y       z     vdW  Elec       q    Type
REMARK                         _______ _______ _______ _____ _____    ______ ____
ROOT
ATOM      1  C   UNL     1      57.212  35.955  77.207  0.00  0.00    +0.000 A 
ATOM      2  C   UNL     1      56.018  35.286  77.489  0.00  0.00    +0.000 A 
ATOM      3  C   UNL     1      57.940  36.538  78.246  0.00  0.00    +0.000 A 
ATOM      4  C   UNL     1      55.555  35.200  78.799  0.00  0.00    +0.000 A 
ATOM      5  C   UNL     1      57.480  36.456  79.558  0.00  0.00    +0.000 A 
ATOM      6  C   UNL     1      56.290  35.786  79.824  0.00  0.00    +0.000 A 
ENDROOT
BRANCH   6   7
ATOM      7  O   UNL     1      55.860  35.717  81.117  0.00  0.00    +0.000 OA
ATOM      8  H   UNL     1      56.368  36.359  81.643  0.00  0.00    +0.000 HD
ENDBRANCH   6   7
BRANCH   1   9
ATOM      9  O   UNL     1      57.748  36.092  75.951  0.00  0.00    +0.000 OA
BRANCH   9  10
ATOM     10  C   UNL     1      59.044  36.394  75.926  0.00  0.00    +0.000 C 
BRANCH  10  11
ATOM     11  C   UNL     1      60.434  36.716  75.915  0.00  0.00    +0.000 A 
ATOM     12  C   UNL     1      60.896  37.763  75.121  0.00  0.00    +0.000 A 
ATOM     13  C   UNL     1      62.255  38.073  75.107  0.00  0.00    +0.000 A 
ATOM     14  C   UNL     1      63.145  37.338  75.885  0.00  0.00    +0.000 A 
ATOM     15  C   UNL     1      62.680  36.292  76.679  0.00  0.00    +0.000 A 
ATOM     16  C   UNL     1      61.323  35.980  76.695  0.00  0.00    +0.000 A 
ENDBRANCH  10  11
ENDBRANCH   9  10
ENDBRANCH   1   9
TORSDOF 4
ENDMDL
MODEL 5
REMARK VINA RESULT:      -4.6      8.558     11.070
REMARK  Name = Monobenzone.pdbqt.pdb
REMARK  4 active torsions:
REMARK  status: ('A' for Active; 'I' for Inactive)
REMARK    1  A    between atoms: C_1  and  O_7
REMARK    2  A    between atoms: C_6  and  O_15
REMARK    3  A    between atoms: O_7  and  C_8
REMARK    4  A    between atoms: C_8  and  C_9
REMARK                            x       y       z     vdW  Elec       q    Type
REMARK                         _______ _______ _______ _____ _____    ______ ____
ROOT
ATOM      1  C   UNL     1      60.844  30.774  72.405  0.00  0.00    +0.000 A 
ATOM      2  C   UNL     1      61.857  30.657  73.360  0.00  0.00    +0.000 A 
ATOM      3  C   UNL     1      59.950  31.844  72.474  0.00  0.00    +0.000 A 
ATOM      4  C   UNL     1      61.977  31.602  74.375  0.00  0.00    +0.000 A 
ATOM      5  C   UNL     1      60.066  32.792  73.487  0.00  0.00    +0.000 A 
ATOM      6  C   UNL     1      61.080  32.663  74.431  0.00  0.00    +0.000 A 
ENDROOT
BRANCH   6   7
ATOM      7  O   UNL     1      61.174  33.604  75.414  0.00  0.00    +0.000 OA
ATOM      8  H   UNL     1      60.281  33.938  75.604  0.00  0.00    +0.000 HD
ENDBRANCH   6   7
BRANCH   1   9
ATOM      9  O   UNL     1      60.646  29.895  71.370  0.00  0.00    +0.000 OA
BRANCH   9  10
ATOM     10  C   UNL     1      60.133  30.435  70.268  0.00  0.00    +0.000 C 
BRANCH  10  11
ATOM     11  C   UNL     1      59.587  31.002  69.078  0.00  0.00    +0.000 A 
ATOM     12  C   UNL     1      59.389  32.378  68.993  0.00  0.00    +0.000 A 
ATOM     13  C   UNL     1      58.851  32.930  67.832  0.00  0.00    +0.000 A 
ATOM     14  C   UNL     1      58.513  32.106  66.761  0.00  0.00    +0.000 A 
ATOM     15  C   UNL     1      58.712  30.730  66.849  0.00  0.00    +0.000 A 
ATOM     16  C   UNL     1      59.250  30.177  68.008  0.00  0.00    +0.000 A 
ENDBRANCH  10  11
ENDBRANCH   9  10
ENDBRANCH   1   9
TORSDOF 4
ENDMDL
MODEL 6
REMARK VINA RESULT:      -4.6     55.085     56.370
REMARK  Name = Monobenzone.pdbqt.pdb
REMARK  4 active torsions:
REMARK  status: ('A' for Active; 'I' for Inactive)
REMARK    1  A    between atoms: C_1  and  O_7
REMARK    2  A    between atoms: C_6  and  O_15
REMARK    3  A    between atoms: O_7  and  C_8
REMARK    4  A    between atoms: C_8  and  C_9
REMARK                            x       y       z     vdW  Elec       q    Type
REMARK                         _______ _______ _______ _____ _____    ______ ____
ROOT
ATOM      1  C   UNL     1      12.852   6.514  99.329  0.00  0.00    +0.000 A 
ATOM      2  C   UNL     1      13.064   5.244  98.786  0.00  0.00    +0.000 A 
ATOM      3  C   UNL     1      13.384   7.636  98.691  0.00  0.00    +0.000 A 
ATOM      4  C   UNL     1      13.800   5.096  97.614  0.00  0.00    +0.000 A 
ATOM      5  C   UNL     1      14.122   7.493  97.519  0.00  0.00    +0.000 A 
ATOM      6  C   UNL     1      14.324   6.223  96.989  0.00  0.00    +0.000 A 
ENDROOT
BRANCH   6   7
ATOM      7  O   UNL     1      15.050   6.106  95.840  0.00  0.00    +0.000 OA
ATOM      8  H   UNL     1      15.995   6.126  96.072  0.00  0.00    +0.000 HD
ENDBRANCH   6   7
BRANCH   1   9
ATOM      9  O   UNL     1      12.141   6.760 100.477  0.00  0.00    +0.000 OA
BRANCH   9  10
ATOM     10  C   UNL     1      11.736   8.019 100.624  0.00  0.00    +0.000 C 
BRANCH  10  11
ATOM     11  C   UNL     1      11.295   9.365 100.797  0.00  0.00    +0.000 A 
ATOM     12  C   UNL     1       9.935   9.660 100.750  0.00  0.00    +0.000 A 
ATOM     13  C   UNL     1       9.505  10.976 100.913  0.00  0.00    +0.000 A 
ATOM     14  C   UNL     1      10.435  11.990 101.124  0.00  0.00    +0.000 A 
ATOM     15  C   UNL     1      11.795  11.692 101.172  0.00  0.00    +0.000 A 
ATOM     16  C   UNL     1      12.227  10.378 101.008  0.00  0.00    +0.000 A 
ENDBRANCH  10  11
ENDBRANCH   9  10
ENDBRANCH   1   9
TORSDOF 4
ENDMDL
MODEL 7
REMARK VINA RESULT:      -4.6     14.947     15.970
REMARK  Name = Monobenzone.pdbqt.pdb
REMARK  4 active torsions:
REMARK  status: ('A' for Active; 'I' for Inactive)
REMARK    1  A    between atoms: C_1  and  O_7
REMARK    2  A    between atoms: C_6  and  O_15
REMARK    3  A    between atoms: O_7  and  C_8
REMARK    4  A    between atoms: C_8  and  C_9
REMARK                            x       y       z     vdW  Elec       q    Type
REMARK                         _______ _______ _______ _____ _____    ______ ____
ROOT
ATOM      1  C   UNL     1      44.279  26.354  84.804  0.00  0.00    +0.000 A 
ATOM      2  C   UNL     1      42.965  26.594  85.215  0.00  0.00    +0.000 A 
ATOM      3  C   UNL     1      44.949  27.309  84.037  0.00  0.00    +0.000 A 
ATOM      4  C   UNL     1      42.326  27.780  84.864  0.00  0.00    +0.000 A 
ATOM      5  C   UNL     1      44.314  28.496  83.682  0.00  0.00    +0.000 A 
ATOM      6  C   UNL     1      43.006  28.722  84.099  0.00  0.00    +0.000 A 
ENDROOT
BRANCH   6   7
ATOM      7  O   UNL     1      42.404  29.893  83.740  0.00  0.00    +0.000 OA
ATOM      8  H   UNL     1      42.893  30.626  84.151  0.00  0.00    +0.000 HD
ENDBRANCH   6   7
BRANCH   1   9
ATOM      9  O   UNL     1      44.990  25.218  85.100  0.00  0.00    +0.000 OA
BRANCH   9  10
ATOM     10  C   UNL     1      46.191  25.433  85.631  0.00  0.00    +0.000 C 
BRANCH  10  11
ATOM     11  C   UNL     1      47.478  25.649  86.206  0.00  0.00    +0.000 A 
ATOM     12  C   UNL     1      48.621  25.255  85.515  0.00  0.00    +0.000 A 
ATOM     13  C   UNL     1      49.879  25.461  86.080  0.00  0.00    +0.000 A 
ATOM     14  C   UNL     1      49.989  26.061  87.332  0.00  0.00    +0.000 A 
ATOM     15  C   UNL     1      48.844  26.455  88.021  0.00  0.00    +0.000 A 
ATOM     16  C   UNL     1      47.587  26.249  87.458  0.00  0.00    +0.000 A 
ENDBRANCH  10  11
ENDBRANCH   9  10
ENDBRANCH   1   9
TORSDOF 4
ENDMDL
MODEL 8
REMARK VINA RESULT:      -4.5     15.414     16.723
REMARK  Name = Monobenzone.pdbqt.pdb
REMARK  4 active torsions:
REMARK  status: ('A' for Active; 'I' for Inactive)
REMARK    1  A    between atoms: C_1  and  O_7
REMARK    2  A    between atoms: C_6  and  O_15
REMARK    3  A    between atoms: O_7  and  C_8
REMARK    4  A    between atoms: C_8  and  C_9
REMARK                            x       y       z     vdW  Elec       q    Type
REMARK                         _______ _______ _______ _____ _____    ______ ____
ROOT
ATOM      1  C   UNL     1      51.337  21.577  69.884  0.00  0.00    +0.000 A 
ATOM      2  C   UNL     1      51.028  20.225  69.721  0.00  0.00    +0.000 A 
ATOM      3  C   UNL     1      52.364  22.147  69.130  0.00  0.00    +0.000 A 
ATOM      4  C   UNL     1      51.738  19.447  68.811  0.00  0.00    +0.000 A 
ATOM      5  C   UNL     1      53.078  21.374  68.219  0.00  0.00    +0.000 A 
ATOM      6  C   UNL     1      52.759  20.029  68.066  0.00  0.00    +0.000 A 
ENDROOT
BRANCH   6   7
ATOM      7  O   UNL     1      53.472  19.291  67.167  0.00  0.00    +0.000 OA
ATOM      8  H   UNL     1      52.871  19.017  66.452  0.00  0.00    +0.000 HD
ENDBRANCH   6   7
BRANCH   1   9
ATOM      9  O   UNL     1      50.694  22.422  70.754  0.00  0.00    +0.000 OA
BRANCH   9  10
ATOM     10  C   UNL     1      51.340  22.648  71.895  0.00  0.00    +0.000 C 
BRANCH  10  11
ATOM     11  C   UNL     1      52.034  22.905  73.115  0.00  0.00    +0.000 A 
ATOM     12  C   UNL     1      52.350  21.851  73.968  0.00  0.00    +0.000 A 
ATOM     13  C   UNL     1      53.023  22.103  75.162  0.00  0.00    +0.000 A 
ATOM     14  C   UNL     1      53.378  23.407  75.498  0.00  0.00    +0.000 A 
ATOM     15  C   UNL     1      53.060  24.460  74.643  0.00  0.00    +0.000 A 
ATOM     16  C   UNL     1      52.388  24.210  73.450  0.00  0.00    +0.000 A 
ENDBRANCH  10  11
ENDBRANCH   9  10
ENDBRANCH   1   9
TORSDOF 4
ENDMDL
MODEL 9
REMARK VINA RESULT:      -4.5      3.429      4.047
REMARK  Name = Monobenzone.pdbqt.pdb
REMARK  4 active torsions:
REMARK  status: ('A' for Active; 'I' for Inactive)
REMARK    1  A    between atoms: C_1  and  O_7
REMARK    2  A    between atoms: C_6  and  O_15
REMARK    3  A    between atoms: O_7  and  C_8
REMARK    4  A    between atoms: C_8  and  C_9
REMARK                            x       y       z     vdW  Elec       q    Type
REMARK                         _______ _______ _______ _____ _____    ______ ____
ROOT
ATOM      1  C   UNL     1      58.757  37.372  75.860  0.00  0.00    +0.000 A 
ATOM      2  C   UNL     1      59.527  38.475  75.481  0.00  0.00    +0.000 A 
ATOM      3  C   UNL     1      59.166  36.087  75.500  0.00  0.00    +0.000 A 
ATOM      4  C   UNL     1      60.697  38.295  74.748  0.00  0.00    +0.000 A 
ATOM      5  C   UNL     1      60.334  35.902  74.766  0.00  0.00    +0.000 A 
ATOM      6  C   UNL     1      61.092  37.008  74.396  0.00  0.00    +0.000 A 
ENDROOT
BRANCH   6   7
ATOM      7  O   UNL     1      62.233  36.803  73.678  0.00  0.00    +0.000 OA
ATOM      8  H   UNL     1      62.598  35.936  73.926  0.00  0.00    +0.000 HD
ENDBRANCH   6   7
BRANCH   1   9
ATOM      9  O   UNL     1      57.593  37.450  76.582  0.00  0.00    +0.000 OA
BRANCH   9  10
ATOM     10  C   UNL     1      57.559  36.687  77.672  0.00  0.00    +0.000 C 
BRANCH  10  11
ATOM     11  C   UNL     1      57.514  35.882  78.849  0.00  0.00    +0.000 A 
ATOM     12  C   UNL     1      56.758  36.295  79.943  0.00  0.00    +0.000 A 
ATOM     13  C   UNL     1      56.718  35.510  81.094  0.00  0.00    +0.000 A 
ATOM     14  C   UNL     1      57.434  34.317  81.148  0.00  0.00    +0.000 A 
ATOM     15  C   UNL     1      58.189  33.906  80.051  0.00  0.00    +0.000 A 
ATOM     16  C   UNL     1      58.230  34.688  78.901  0.00  0.00    +0.000 A 
ENDBRANCH  10  11
ENDBRANCH   9  10
ENDBRANCH   1   9
TORSDOF 4
ENDMDL
