MODEL 1
REMARK VINA RESULT:      -6.0      0.000      0.000
REMARK  Name = 
REMARK  5 active torsions:
REMARK  status: ('A' for Active; 'I' for Inactive)
REMARK    1  A    between atoms: O_4  and  C_15
REMARK    2  A    between atoms: C_6  and  C_13
REMARK    3  A    between atoms: C_7  and  C_12
REMARK    4  A    between atoms: C_8  and  C_14
REMARK    5  A    between atoms: C_12  and  C_15
REMARK                            x       y       z     vdW  Elec       q    Type
REMARK                         _______ _______ _______ _____ _____    ______ ____
ROOT
ATOM      1  C   UNL     1      56.879  36.751  78.079  0.00  0.00    +0.000 A 
ATOM      2  C   UNL     1      56.817  35.200  79.975  0.00  0.00    +0.000 A 
ATOM      3  C   UNL     1      55.907  35.972  77.414  0.00  0.00    +0.000 A 
ATOM      4  C   UNL     1      57.322  36.351  79.355  0.00  0.00    +0.000 A 
ATOM      5  C   UNL     1      55.864  34.432  79.300  0.00  0.00    +0.000 A 
ATOM      6  C   UNL     1      55.413  34.816  78.036  0.00  0.00    +0.000 A 
ATOM      7  C   UNL     1      55.398  36.345  76.048  0.00  0.00    +0.000 C 
ENDROOT
BRANCH   1  11
ATOM      8  F   UNL     1      56.522  38.984  77.284  0.00  0.00    +0.000 F 
ATOM      9  F   UNL     1      58.451  38.574  78.186  0.00  0.00    +0.000 F 
ATOM     10  F   UNL     1      57.989  37.782  76.218  0.00  0.00    +0.000 F 
ATOM     11  C   UNL     1      57.454  38.004  77.451  0.00  0.00    +0.000 C 
ENDBRANCH   1  11
BRANCH   2  12
ATOM     12  C   UNL     1      57.318  34.777  81.335  0.00  0.00    +0.000 C 
BRANCH  12  14
ATOM     13  O   UNL     1      59.092  33.376  80.363  0.00  0.00    +0.000 OA
ATOM     14  C   UNL     1      58.609  33.996  81.296  0.00  0.00    +0.000 C 
BRANCH  14  15
ATOM     15  O   UNL     1      59.264  34.053  82.477  0.00  0.00    +0.000 OA
ATOM     16  H   UNL     1      60.211  34.027  82.218  0.00  0.00    +0.000 HD
ENDBRANCH  14  15
ENDBRANCH  12  14
ENDBRANCH   2  12
TORSDOF 4
ENDMDL
MODEL 2
REMARK VINA RESULT:      -5.7      1.517      1.955
REMARK  Name = 
REMARK  5 active torsions:
REMARK  status: ('A' for Active; 'I' for Inactive)
REMARK    1  A    between atoms: O_4  and  C_15
REMARK    2  A    between atoms: C_6  and  C_13
REMARK    3  A    between atoms: C_7  and  C_12
REMARK    4  A    between atoms: C_8  and  C_14
REMARK    5  A    between atoms: C_12  and  C_15
REMARK                            x       y       z     vdW  Elec       q    Type
REMARK                         _______ _______ _______ _____ _____    ______ ____
ROOT
ATOM      1  C   UNL     1      57.912  35.762  77.314  0.00  0.00    +0.000 A 
ATOM      2  C   UNL     1      57.015  34.667  79.315  0.00  0.00    +0.000 A 
ATOM      3  C   UNL     1      56.623  35.761  76.740  0.00  0.00    +0.000 A 
ATOM      4  C   UNL     1      58.090  35.211  78.599  0.00  0.00    +0.000 A 
ATOM      5  C   UNL     1      55.746  34.663  78.729  0.00  0.00    +0.000 A 
ATOM      6  C   UNL     1      55.553  35.206  77.457  0.00  0.00    +0.000 A 
ATOM      7  C   UNL     1      56.371  36.329  75.369  0.00  0.00    +0.000 C 
ENDROOT
BRANCH   1  11
ATOM      8  F   UNL     1      60.263  36.225  77.291  0.00  0.00    +0.000 F 
ATOM      9  F   UNL     1      59.354  35.735  75.384  0.00  0.00    +0.000 F 
ATOM     10  F   UNL     1      58.966  37.665  76.301  0.00  0.00    +0.000 F 
ATOM     11  C   UNL     1      59.105  36.338  76.581  0.00  0.00    +0.000 C 
ENDBRANCH   1  11
BRANCH   2  12
ATOM     12  C   UNL     1      57.229  34.065  80.684  0.00  0.00    +0.000 C 
BRANCH  12  14
ATOM     13  O   UNL     1      59.433  32.975  80.737  0.00  0.00    +0.000 OA
ATOM     14  C   UNL     1      58.681  33.882  81.051  0.00  0.00    +0.000 C 
BRANCH  14  15
ATOM     15  O   UNL     1      59.137  34.902  81.811  0.00  0.00    +0.000 OA
ATOM     16  H   UNL     1      59.538  35.516  81.159  0.00  0.00    +0.000 HD
ENDBRANCH  14  15
ENDBRANCH  12  14
ENDBRANCH   2  12
TORSDOF 4
ENDMDL
MODEL 3
REMARK VINA RESULT:      -5.4      1.675      2.056
REMARK  Name = 
REMARK  5 active torsions:
REMARK  status: ('A' for Active; 'I' for Inactive)
REMARK    1  A    between atoms: O_4  and  C_15
REMARK    2  A    between atoms: C_6  and  C_13
REMARK    3  A    between atoms: C_7  and  C_12
REMARK    4  A    between atoms: C_8  and  C_14
REMARK    5  A    between atoms: C_12  and  C_15
REMARK                            x       y       z     vdW  Elec       q    Type
REMARK                         _______ _______ _______ _____ _____    ______ ____
ROOT
ATOM      1  C   UNL     1      57.666  37.369  77.021  0.00  0.00    +0.000 A 
ATOM      2  C   UNL     1      57.110  35.886  78.891  0.00  0.00    +0.000 A 
ATOM      3  C   UNL     1      56.357  37.897  77.056  0.00  0.00    +0.000 A 
ATOM      4  C   UNL     1      58.024  36.366  77.944  0.00  0.00    +0.000 A 
ATOM      5  C   UNL     1      55.814  36.410  78.906  0.00  0.00    +0.000 A 
ATOM      6  C   UNL     1      55.444  37.405  78.000  0.00  0.00    +0.000 A 
ATOM      7  C   UNL     1      55.913  38.966  76.093  0.00  0.00    +0.000 C 
ENDROOT
BRANCH   1  11
ATOM      8  F   UNL     1      58.325  37.599  74.729  0.00  0.00    +0.000 F 
ATOM      9  F   UNL     1      58.911  39.200  76.071  0.00  0.00    +0.000 F 
ATOM     10  F   UNL     1      59.912  37.277  76.183  0.00  0.00    +0.000 F 
ATOM     11  C   UNL     1      58.690  37.855  76.018  0.00  0.00    +0.000 C 
ENDBRANCH   1  11
BRANCH   2  12
ATOM     12  C   UNL     1      57.507  34.797  79.860  0.00  0.00    +0.000 C 
BRANCH  12  14
ATOM     13  O   UNL     1      59.880  34.200  80.109  0.00  0.00    +0.000 OA
ATOM     14  C   UNL     1      58.924  34.913  80.364  0.00  0.00    +0.000 C 
BRANCH  14  15
ATOM     15  O   UNL     1      59.079  35.978  81.181  0.00  0.00    +0.000 OA
ATOM     16  H   UNL     1      59.914  36.389  80.871  0.00  0.00    +0.000 HD
ENDBRANCH  14  15
ENDBRANCH  12  14
ENDBRANCH   2  12
TORSDOF 4
ENDMDL
MODEL 4
REMARK VINA RESULT:      -5.3     15.768     16.873
REMARK  Name = 
REMARK  5 active torsions:
REMARK  status: ('A' for Active; 'I' for Inactive)
REMARK    1  A    between atoms: O_4  and  C_15
REMARK    2  A    between atoms: C_6  and  C_13
REMARK    3  A    between atoms: C_7  and  C_12
REMARK    4  A    between atoms: C_8  and  C_14
REMARK    5  A    between atoms: C_12  and  C_15
REMARK                            x       y       z     vdW  Elec       q    Type
REMARK                         _______ _______ _______ _____ _____    ______ ____
ROOT
ATOM      1  C   UNL     1      52.676  21.289  77.535  0.00  0.00    +0.000 A 
ATOM      2  C   UNL     1      52.128  19.498  75.954  0.00  0.00    +0.000 A 
ATOM      3  C   UNL     1      53.110  22.098  76.462  0.00  0.00    +0.000 A 
ATOM      4  C   UNL     1      52.190  19.994  77.262  0.00  0.00    +0.000 A 
ATOM      5  C   UNL     1      52.573  20.306  74.903  0.00  0.00    +0.000 A 
ATOM      6  C   UNL     1      53.056  21.591  75.155  0.00  0.00    +0.000 A 
ATOM      7  C   UNL     1      53.645  23.486  76.689  0.00  0.00    +0.000 C 
ENDROOT
BRANCH   1  11
ATOM      8  F   UNL     1      51.930  21.047  79.799  0.00  0.00    +0.000 F 
ATOM      9  F   UNL     1      53.968  21.736  79.519  0.00  0.00    +0.000 F 
ATOM     10  F   UNL     1      52.309  23.072  79.098  0.00  0.00    +0.000 F 
ATOM     11  C   UNL     1      52.722  21.780  78.966  0.00  0.00    +0.000 C 
ENDBRANCH   1  11
BRANCH   2  12
ATOM     12  C   UNL     1      51.621  18.101  75.684  0.00  0.00    +0.000 C 
BRANCH  12  14
ATOM     13  O   UNL     1      52.049  17.125  73.467  0.00  0.00    +0.000 OA
ATOM     14  C   UNL     1      52.390  17.367  74.613  0.00  0.00    +0.000 C 
BRANCH  14  15
ATOM     15  O   UNL     1      53.607  16.976  75.050  0.00  0.00    +0.000 OA
ATOM     16  H   UNL     1      53.527  17.019  76.027  0.00  0.00    +0.000 HD
ENDBRANCH  14  15
ENDBRANCH  12  14
ENDBRANCH   2  12
TORSDOF 4
ENDMDL
MODEL 5
REMARK VINA RESULT:      -5.2     56.175     57.294
REMARK  Name = 
REMARK  5 active torsions:
REMARK  status: ('A' for Active; 'I' for Inactive)
REMARK    1  A    between atoms: O_4  and  C_15
REMARK    2  A    between atoms: C_6  and  C_13
REMARK    3  A    between atoms: C_7  and  C_12
REMARK    4  A    between atoms: C_8  and  C_14
REMARK    5  A    between atoms: C_12  and  C_15
REMARK                            x       y       z     vdW  Elec       q    Type
REMARK                         _______ _______ _______ _____ _____    ______ ____
ROOT
ATOM      1  C   UNL     1      13.166   2.378  94.839  0.00  0.00    +0.000 A 
ATOM      2  C   UNL     1      13.537   3.551  96.958  0.00  0.00    +0.000 A 
ATOM      3  C   UNL     1      13.043   1.159  95.540  0.00  0.00    +0.000 A 
ATOM      4  C   UNL     1      13.413   3.562  95.563  0.00  0.00    +0.000 A 
ATOM      5  C   UNL     1      13.425   2.335  97.638  0.00  0.00    +0.000 A 
ATOM      6  C   UNL     1      13.179   1.153  96.936  0.00  0.00    +0.000 A 
ATOM      7  C   UNL     1      12.785  -0.139  94.823  0.00  0.00    +0.000 C 
ENDROOT
BRANCH   1  11
ATOM      8  F   UNL     1      13.110   3.715  92.851  0.00  0.00    +0.000 F 
ATOM      9  F   UNL     1      14.012   1.750  92.672  0.00  0.00    +0.000 F 
ATOM     10  F   UNL     1      11.858   1.935  92.876  0.00  0.00    +0.000 F 
ATOM     11  C   UNL     1      13.038   2.441  93.332  0.00  0.00    +0.000 C 
ENDBRANCH   1  11
BRANCH   2  12
ATOM     12  C   UNL     1      13.821   4.828  97.715  0.00  0.00    +0.000 C 
BRANCH  12  14
ATOM     13  O   UNL     1      15.197   6.093  96.116  0.00  0.00    +0.000 OA
ATOM     14  C   UNL     1      14.216   5.987  96.833  0.00  0.00    +0.000 C 
BRANCH  14  15
ATOM     15  O   UNL     1      13.308   6.986  96.883  0.00  0.00    +0.000 OA
ATOM     16  H   UNL     1      12.840   6.831  97.732  0.00  0.00    +0.000 HD
ENDBRANCH  14  15
ENDBRANCH  12  14
ENDBRANCH   2  12
TORSDOF 4
ENDMDL
MODEL 6
REMARK VINA RESULT:      -5.1     15.783     16.876
REMARK  Name = 
REMARK  5 active torsions:
REMARK  status: ('A' for Active; 'I' for Inactive)
REMARK    1  A    between atoms: O_4  and  C_15
REMARK    2  A    between atoms: C_6  and  C_13
REMARK    3  A    between atoms: C_7  and  C_12
REMARK    4  A    between atoms: C_8  and  C_14
REMARK    5  A    between atoms: C_12  and  C_15
REMARK                            x       y       z     vdW  Elec       q    Type
REMARK                         _______ _______ _______ _____ _____    ______ ____
ROOT
ATOM      1  C   UNL     1      52.541  20.689  77.031  0.00  0.00    +0.000 A 
ATOM      2  C   UNL     1      51.793  20.047  79.275  0.00  0.00    +0.000 A 
ATOM      3  C   UNL     1      52.869  21.975  77.512  0.00  0.00    +0.000 A 
ATOM      4  C   UNL     1      52.005  19.740  77.925  0.00  0.00    +0.000 A 
ATOM      5  C   UNL     1      52.111  21.328  79.735  0.00  0.00    +0.000 A 
ATOM      6  C   UNL     1      52.644  22.280  78.864  0.00  0.00    +0.000 A 
ATOM      7  C   UNL     1      53.439  23.033  76.607  0.00  0.00    +0.000 C 
ENDROOT
BRANCH   1  11
ATOM      8  F   UNL     1      51.642  19.757  75.015  0.00  0.00    +0.000 F 
ATOM      9  F   UNL     1      53.080  21.364  74.782  0.00  0.00    +0.000 F 
ATOM     10  F   UNL     1      53.751  19.398  75.411  0.00  0.00    +0.000 F 
ATOM     11  C   UNL     1      52.753  20.309  75.581  0.00  0.00    +0.000 C 
ENDBRANCH   1  11
BRANCH   2  12
ATOM     12  C   UNL     1      51.200  19.022  80.212  0.00  0.00    +0.000 C 
BRANCH  12  14
ATOM     13  O   UNL     1      49.248  17.584  79.796  0.00  0.00    +0.000 OA
ATOM     14  C   UNL     1      49.759  18.685  79.918  0.00  0.00    +0.000 C 
BRANCH  14  15
ATOM     15  O   UNL     1      48.998  19.796  79.807  0.00  0.00    +0.000 OA
ATOM     16  H   UNL     1      48.085  19.468  79.960  0.00  0.00    +0.000 HD
ENDBRANCH  14  15
ENDBRANCH  12  14
ENDBRANCH   2  12
TORSDOF 4
ENDMDL
MODEL 7
REMARK VINA RESULT:      -5.0      3.613      4.672
REMARK  Name = 
REMARK  5 active torsions:
REMARK  status: ('A' for Active; 'I' for Inactive)
REMARK    1  A    between atoms: O_4  and  C_15
REMARK    2  A    between atoms: C_6  and  C_13
REMARK    3  A    between atoms: C_7  and  C_12
REMARK    4  A    between atoms: C_8  and  C_14
REMARK    5  A    between atoms: C_12  and  C_15
REMARK                            x       y       z     vdW  Elec       q    Type
REMARK                         _______ _______ _______ _____ _____    ______ ____
ROOT
ATOM      1  C   UNL     1      59.493  35.757  76.055  0.00  0.00    +0.000 A 
ATOM      2  C   UNL     1      57.097  36.131  76.413  0.00  0.00    +0.000 A 
ATOM      3  C   UNL     1      59.283  35.774  74.659  0.00  0.00    +0.000 A 
ATOM      4  C   UNL     1      58.390  35.936  76.915  0.00  0.00    +0.000 A 
ATOM      5  C   UNL     1      56.903  36.133  75.028  0.00  0.00    +0.000 A 
ATOM      6  C   UNL     1      57.984  35.959  74.163  0.00  0.00    +0.000 A 
ATOM      7  C   UNL     1      60.419  35.583  73.690  0.00  0.00    +0.000 C 
ENDROOT
BRANCH   1  11
ATOM      8  F   UNL     1      61.713  36.593  76.393  0.00  0.00    +0.000 F 
ATOM      9  F   UNL     1      60.868  35.411  78.003  0.00  0.00    +0.000 F 
ATOM     10  F   UNL     1      61.495  34.440  76.166  0.00  0.00    +0.000 F 
ATOM     11  C   UNL     1      60.871  35.552  76.647  0.00  0.00    +0.000 C 
ENDBRANCH   1  11
BRANCH   2  12
ATOM     12  C   UNL     1      55.926  36.302  77.351  0.00  0.00    +0.000 C 
BRANCH  12  14
ATOM     13  O   UNL     1      55.473  34.649  79.115  0.00  0.00    +0.000 OA
ATOM     14  C   UNL     1      55.428  35.010  77.951  0.00  0.00    +0.000 C 
BRANCH  14  15
ATOM     15  O   UNL     1      54.858  34.214  77.021  0.00  0.00    +0.000 OA
ATOM     16  H   UNL     1      54.073  33.845  77.482  0.00  0.00    +0.000 HD
ENDBRANCH  14  15
ENDBRANCH  12  14
ENDBRANCH   2  12
TORSDOF 4
ENDMDL
MODEL 8
REMARK VINA RESULT:      -4.9     11.444     13.219
REMARK  Name = 
REMARK  5 active torsions:
REMARK  status: ('A' for Active; 'I' for Inactive)
REMARK    1  A    between atoms: O_4  and  C_15
REMARK    2  A    between atoms: C_6  and  C_13
REMARK    3  A    between atoms: C_7  and  C_12
REMARK    4  A    between atoms: C_8  and  C_14
REMARK    5  A    between atoms: C_12  and  C_15
REMARK                            x       y       z     vdW  Elec       q    Type
REMARK                         _______ _______ _______ _____ _____    ______ ____
ROOT
ATOM      1  C   UNL     1      59.581  30.794  68.734  0.00  0.00    +0.000 A 
ATOM      2  C   UNL     1      58.465  30.324  66.604  0.00  0.00    +0.000 A 
ATOM      3  C   UNL     1      59.211  32.152  68.625  0.00  0.00    +0.000 A 
ATOM      4  C   UNL     1      59.202  29.897  67.716  0.00  0.00    +0.000 A 
ATOM      5  C   UNL     1      58.115  31.674  66.503  0.00  0.00    +0.000 A 
ATOM      6  C   UNL     1      58.482  32.576  67.504  0.00  0.00    +0.000 A 
ATOM      7  C   UNL     1      59.592  33.159  69.676  0.00  0.00    +0.000 C 
ENDROOT
BRANCH   1  11
ATOM      8  F   UNL     1      60.626  28.945  69.844  0.00  0.00    +0.000 F 
ATOM      9  F   UNL     1      61.599  30.872  70.049  0.00  0.00    +0.000 F 
ATOM     10  F   UNL     1      59.744  30.481  71.108  0.00  0.00    +0.000 F 
ATOM     11  C   UNL     1      60.376  30.283  69.917  0.00  0.00    +0.000 C 
ENDBRANCH   1  11
BRANCH   2  12
ATOM     12  C   UNL     1      58.083  29.351  65.514  0.00  0.00    +0.000 C 
BRANCH  12  14
ATOM     13  O   UNL     1      55.651  29.056  65.287  0.00  0.00    +0.000 OA
ATOM     14  C   UNL     1      56.736  28.702  65.718  0.00  0.00    +0.000 C 
BRANCH  14  15
ATOM     15  O   UNL     1      56.828  27.583  66.469  0.00  0.00    +0.000 OA
ATOM     16  H   UNL     1      57.035  26.881  65.815  0.00  0.00    +0.000 HD
ENDBRANCH  14  15
ENDBRANCH  12  14
ENDBRANCH   2  12
TORSDOF 4
ENDMDL
MODEL 9
REMARK VINA RESULT:      -4.8     11.227     12.647
REMARK  Name = 
REMARK  5 active torsions:
REMARK  status: ('A' for Active; 'I' for Inactive)
REMARK    1  A    between atoms: O_4  and  C_15
REMARK    2  A    between atoms: C_6  and  C_13
REMARK    3  A    between atoms: C_7  and  C_12
REMARK    4  A    between atoms: C_8  and  C_14
REMARK    5  A    between atoms: C_12  and  C_15
REMARK                            x       y       z     vdW  Elec       q    Type
REMARK                         _______ _______ _______ _____ _____    ______ ____
ROOT
ATOM      1  C   UNL     1      58.347  30.446  66.803  0.00  0.00    +0.000 A 
ATOM      2  C   UNL     1      59.749  30.536  68.811  0.00  0.00    +0.000 A 
ATOM      3  C   UNL     1      58.204  31.850  66.845  0.00  0.00    +0.000 A 
ATOM      4  C   UNL     1      59.120  29.807  67.793  0.00  0.00    +0.000 A 
ATOM      5  C   UNL     1      59.589  31.924  68.847  0.00  0.00    +0.000 A 
ATOM      6  C   UNL     1      58.827  32.573  67.873  0.00  0.00    +0.000 A 
ATOM      7  C   UNL     1      57.386  32.589  65.820  0.00  0.00    +0.000 C 
ENDROOT
BRANCH   1  11
ATOM      8  F   UNL     1      57.900  28.278  65.885  0.00  0.00    +0.000 F 
ATOM      9  F   UNL     1      56.333  29.763  65.670  0.00  0.00    +0.000 F 
ATOM     10  F   UNL     1      58.138  29.916  64.472  0.00  0.00    +0.000 F 
ATOM     11  C   UNL     1      57.688  29.615  65.723  0.00  0.00    +0.000 C 
ENDBRANCH   1  11
BRANCH   2  12
ATOM     12  C   UNL     1      60.559  29.831  69.874  0.00  0.00    +0.000 C 
BRANCH  12  14
ATOM     13  O   UNL     1      61.535  31.249  71.630  0.00  0.00    +0.000 OA
ATOM     14  C   UNL     1      60.624  30.572  71.186  0.00  0.00    +0.000 C 
BRANCH  14  15
ATOM     15  O   UNL     1      59.482  30.434  71.895  0.00  0.00    +0.000 OA
ATOM     16  H   UNL     1      59.274  31.350  72.181  0.00  0.00    +0.000 HD
ENDBRANCH  14  15
ENDBRANCH  12  14
ENDBRANCH   2  12
TORSDOF 4
ENDMDL
