MODEL 1
REMARK VINA RESULT:      -7.7      0.000      0.000
REMARK  Name = OTSSP167.pdbqt.pdb
REMARK  7 active torsions:
REMARK  status: ('A' for Active; 'I' for Inactive)
REMARK    1  A    between atoms: C_5  and  N_19
REMARK    2  A    between atoms: C_7  and  C_31
REMARK    3  A    between atoms: C_11  and  C_13
REMARK    4  A    between atoms: C_18  and  O_34
REMARK    5  A    between atoms: N_19  and  C_21
REMARK    6  A    between atoms: C_24  and  C_27
REMARK    7  A    between atoms: C_27  and  N_28
REMARK                            x       y       z     vdW  Elec       q    Type
REMARK                         _______ _______ _______ _____ _____    ______ ____
ROOT
ATOM      1  N   UNL     1      58.823  35.244  72.725  0.00  0.00    +0.000 NA
ATOM      2  N   UNL     1      57.105  38.429  72.219  0.00  0.00    +0.000 NA
ATOM      3  C   UNL     1      58.438  37.068  74.292  0.00  0.00    +0.000 A 
ATOM      4  C   UNL     1      58.328  36.475  73.006  0.00  0.00    +0.000 A 
ATOM      5  C   UNL     1      57.862  38.340  74.492  0.00  0.00    +0.000 A 
ATOM      6  C   UNL     1      57.643  37.215  72.018  0.00  0.00    +0.000 A 
ATOM      7  C   UNL     1      57.221  38.966  73.447  0.00  0.00    +0.000 A 
ATOM      8  C   UNL     1      57.520  36.642  70.765  0.00  0.00    +0.000 A 
ATOM      9  C   UNL     1      58.696  34.710  71.486  0.00  0.00    +0.000 A 
ATOM     10  C   UNL     1      58.042  35.389  70.477  0.00  0.00    +0.000 A 
ENDROOT
BRANCH   9  13
ATOM     11 CL   UNL     1      60.082  30.986  68.184  0.00  0.00    +0.000 Cl
ATOM     12 CL   UNL     1      60.874  30.503  73.554  0.00  0.00    +0.000 Cl
ATOM     13  C   UNL     1      59.304  33.392  71.286  0.00  0.00    +0.000 A 
ATOM     14  C   UNL     1      59.767  32.624  72.360  0.00  0.00    +0.000 A 
ATOM     15  C   UNL     1      59.429  32.847  70.001  0.00  0.00    +0.000 A 
ATOM     16  C   UNL     1      59.988  31.588  69.794  0.00  0.00    +0.000 A 
ATOM     17  C   UNL     1      60.334  31.364  72.163  0.00  0.00    +0.000 A 
ATOM     18  C   UNL     1      60.446  30.839  70.876  0.00  0.00    +0.000 A 
BRANCH  18  19
ATOM     19  O   UNL     1      61.000  29.599  70.690  0.00  0.00    +0.000 OA
ATOM     20  H   UNL     1      61.895  29.716  70.319  0.00  0.00    +0.000 HD
ENDBRANCH  18  19
ENDBRANCH   9  13
BRANCH   5  21
ATOM     21  C   UNL     1      57.873  39.026  75.782  0.00  0.00    +0.000 C 
ATOM     22  O   UNL     1      58.865  39.212  76.468  0.00  0.00    +0.000 OA
ATOM     23  C   UNL     1      56.645  39.553  76.460  0.00  0.00    +0.000 C 
ENDBRANCH   5  21
BRANCH   3  24
ATOM     24  N   UNL     1      59.193  36.482  75.358  0.00  0.00    +0.000 N 
ATOM     25  H   UNL     1      60.039  36.999  75.613  0.00  0.00    +0.000 HD
BRANCH  24  26
ATOM     26  C   UNL     1      58.743  35.653  76.348  0.00  0.00    +0.000 A 
ATOM     27  C   UNL     1      57.448  35.933  76.915  0.00  0.00    +0.000 A 
ATOM     28  C   UNL     1      57.069  35.847  78.416  0.00  0.00    +0.000 A 
ATOM     29  C   UNL     1      57.976  35.480  79.476  0.00  0.00    +0.000 A 
ATOM     30  C   UNL     1      59.279  35.224  78.915  0.00  0.00    +0.000 A 
ATOM     31  C   UNL     1      59.652  35.312  77.415  0.00  0.00    +0.000 A 
BRANCH  29  32
ATOM     32  C   UNL     1      57.615  35.265  80.825  0.00  0.00    +0.000 C 
BRANCH  32  33
ATOM     33  N   UNL     1      57.257  35.030  82.213  0.00  0.00    +0.000 NA
ATOM     34  C   UNL     1      57.437  36.284  82.926  0.00  0.00    +0.000 C 
ATOM     35  C   UNL     1      58.222  34.089  82.756  0.00  0.00    +0.000 C 
ENDBRANCH  32  33
ENDBRANCH  29  32
ENDBRANCH  24  26
ENDBRANCH   3  24
TORSDOF 7
ENDMDL
MODEL 2
REMARK VINA RESULT:      -7.6      4.163      7.831
REMARK  Name = OTSSP167.pdbqt.pdb
REMARK  7 active torsions:
REMARK  status: ('A' for Active; 'I' for Inactive)
REMARK    1  A    between atoms: C_5  and  N_19
REMARK    2  A    between atoms: C_7  and  C_31
REMARK    3  A    between atoms: C_11  and  C_13
REMARK    4  A    between atoms: C_18  and  O_34
REMARK    5  A    between atoms: N_19  and  C_21
REMARK    6  A    between atoms: C_24  and  C_27
REMARK    7  A    between atoms: C_27  and  N_28
REMARK                            x       y       z     vdW  Elec       q    Type
REMARK                         _______ _______ _______ _____ _____    ______ ____
ROOT
ATOM      1  N   UNL     1      57.419  37.148  77.769  0.00  0.00    +0.000 NA
ATOM      2  N   UNL     1      55.302  37.942  74.898  0.00  0.00    +0.000 NA
ATOM      3  C   UNL     1      57.987  38.268  75.682  0.00  0.00    +0.000 A 
ATOM      4  C   UNL     1      57.067  37.614  76.544  0.00  0.00    +0.000 A 
ATOM      5  C   UNL     1      57.516  38.744  74.441  0.00  0.00    +0.000 A 
ATOM      6  C   UNL     1      55.738  37.491  76.085  0.00  0.00    +0.000 A 
ATOM      7  C   UNL     1      56.194  38.560  74.102  0.00  0.00    +0.000 A 
ATOM      8  C   UNL     1      54.831  36.866  76.922  0.00  0.00    +0.000 A 
ATOM      9  C   UNL     1      56.512  36.531  78.564  0.00  0.00    +0.000 A 
ATOM     10  C   UNL     1      55.198  36.376  78.167  0.00  0.00    +0.000 A 
ENDROOT
BRANCH   9  13
ATOM     11 CL   UNL     1      58.978  32.799  81.149  0.00  0.00    +0.000 Cl
ATOM     12 CL   UNL     1      56.991  37.204  83.667  0.00  0.00    +0.000 Cl
ATOM     13  C   UNL     1      57.012  36.033  79.848  0.00  0.00    +0.000 A 
ATOM     14  C   UNL     1      56.816  36.740  81.040  0.00  0.00    +0.000 A 
ATOM     15  C   UNL     1      57.698  34.814  79.926  0.00  0.00    +0.000 A 
ATOM     16  C   UNL     1      58.165  34.316  81.141  0.00  0.00    +0.000 A 
ATOM     17  C   UNL     1      57.285  36.254  82.261  0.00  0.00    +0.000 A 
ATOM     18  C   UNL     1      57.962  35.036  82.317  0.00  0.00    +0.000 A 
BRANCH  18  19
ATOM     19  O   UNL     1      58.417  34.561  83.519  0.00  0.00    +0.000 OA
ATOM     20  H   UNL     1      58.693  35.322  84.065  0.00  0.00    +0.000 HD
ENDBRANCH  18  19
ENDBRANCH   9  13
BRANCH   5  21
ATOM     21  C   UNL     1      58.358  39.472  73.494  0.00  0.00    +0.000 C 
ATOM     22  O   UNL     1      59.473  39.903  73.737  0.00  0.00    +0.000 OA
ATOM     23  C   UNL     1      57.935  39.828  72.102  0.00  0.00    +0.000 C 
ENDBRANCH   5  21
BRANCH   3  24
ATOM     24  N   UNL     1      59.386  38.372  75.970  0.00  0.00    +0.000 N 
ATOM     25  H   UNL     1      59.623  39.078  76.672  0.00  0.00    +0.000 HD
BRANCH  24  26
ATOM     26  C   UNL     1      60.348  37.412  75.816  0.00  0.00    +0.000 A 
ATOM     27  C   UNL     1      60.583  36.910  74.486  0.00  0.00    +0.000 A 
ATOM     28  C   UNL     1      60.841  35.431  74.100  0.00  0.00    +0.000 A 
ATOM     29  C   UNL     1      60.874  34.329  75.030  0.00  0.00    +0.000 A 
ATOM     30  C   UNL     1      60.613  34.824  76.358  0.00  0.00    +0.000 A 
ATOM     31  C   UNL     1      60.354  36.303  76.739  0.00  0.00    +0.000 A 
BRANCH  29  32
ATOM     32  C   UNL     1      61.242  33.002  74.714  0.00  0.00    +0.000 C 
BRANCH  32  33
ATOM     33  N   UNL     1      61.612  31.640  74.373  0.00  0.00    +0.000 NA
ATOM     34  C   UNL     1      62.684  31.713  73.393  0.00  0.00    +0.000 C 
ATOM     35  C   UNL     1      60.469  31.034  73.709  0.00  0.00    +0.000 C 
ENDBRANCH  32  33
ENDBRANCH  29  32
ENDBRANCH  24  26
ENDBRANCH   3  24
TORSDOF 7
ENDMDL
MODEL 3
REMARK VINA RESULT:      -7.6      4.382      8.183
REMARK  Name = OTSSP167.pdbqt.pdb
REMARK  7 active torsions:
REMARK  status: ('A' for Active; 'I' for Inactive)
REMARK    1  A    between atoms: C_5  and  N_19
REMARK    2  A    between atoms: C_7  and  C_31
REMARK    3  A    between atoms: C_11  and  C_13
REMARK    4  A    between atoms: C_18  and  O_34
REMARK    5  A    between atoms: N_19  and  C_21
REMARK    6  A    between atoms: C_24  and  C_27
REMARK    7  A    between atoms: C_27  and  N_28
REMARK                            x       y       z     vdW  Elec       q    Type
REMARK                         _______ _______ _______ _____ _____    ______ ____
ROOT
ATOM      1  N   UNL     1      57.384  36.237  77.616  0.00  0.00    +0.000 NA
ATOM      2  N   UNL     1      55.615  37.788  74.821  0.00  0.00    +0.000 NA
ATOM      3  C   UNL     1      58.024  36.403  75.273  0.00  0.00    +0.000 A 
ATOM      4  C   UNL     1      57.123  36.636  76.346  0.00  0.00    +0.000 A 
ATOM      5  C   UNL     1      57.677  36.885  73.994  0.00  0.00    +0.000 A 
ATOM      6  C   UNL     1      55.938  37.340  76.044  0.00  0.00    +0.000 A 
ATOM      7  C   UNL     1      56.486  37.556  73.823  0.00  0.00    +0.000 A 
ATOM      8  C   UNL     1      55.060  37.582  77.085  0.00  0.00    +0.000 A 
ATOM      9  C   UNL     1      56.500  36.480  78.615  0.00  0.00    +0.000 A 
ATOM     10  C   UNL     1      55.321  37.158  78.380  0.00  0.00    +0.000 A 
ENDROOT
BRANCH   9  13
ATOM     11 CL   UNL     1      56.875  37.351  83.694  0.00  0.00    +0.000 Cl
ATOM     12 CL   UNL     1      58.386  32.609  81.476  0.00  0.00    +0.000 Cl
ATOM     13  C   UNL     1      56.867  35.968  79.939  0.00  0.00    +0.000 A 
ATOM     14  C   UNL     1      57.392  34.683  80.112  0.00  0.00    +0.000 A 
ATOM     15  C   UNL     1      56.714  36.763  81.082  0.00  0.00    +0.000 A 
ATOM     16  C   UNL     1      57.074  36.300  82.346  0.00  0.00    +0.000 A 
ATOM     17  C   UNL     1      57.751  34.206  81.374  0.00  0.00    +0.000 A 
ATOM     18  C   UNL     1      57.594  35.015  82.499  0.00  0.00    +0.000 A 
BRANCH  18  19
ATOM     19  O   UNL     1      57.951  34.544  83.735  0.00  0.00    +0.000 OA
ATOM     20  H   UNL     1      58.905  34.338  83.721  0.00  0.00    +0.000 HD
ENDBRANCH  18  19
ENDBRANCH   9  13
BRANCH   5  21
ATOM     21  C   UNL     1      58.544  36.745  72.826  0.00  0.00    +0.000 C 
ATOM     22  O   UNL     1      59.763  36.746  72.856  0.00  0.00    +0.000 OA
ATOM     23  C   UNL     1      58.040  36.630  71.419  0.00  0.00    +0.000 C 
ENDBRANCH   5  21
BRANCH   3  24
ATOM     24  N   UNL     1      59.211  35.615  75.409  0.00  0.00    +0.000 N 
ATOM     25  H   UNL     1      59.425  35.026  74.599  0.00  0.00    +0.000 HD
BRANCH  24  26
ATOM     26  C   UNL     1      60.297  35.863  76.202  0.00  0.00    +0.000 A 
ATOM     27  C   UNL     1      61.119  37.000  75.872  0.00  0.00    +0.000 A 
ATOM     28  C   UNL     1      62.668  37.051  75.914  0.00  0.00    +0.000 A 
ATOM     29  C   UNL     1      63.520  35.947  76.286  0.00  0.00    +0.000 A 
ATOM     30  C   UNL     1      62.702  34.801  76.592  0.00  0.00    +0.000 A 
ATOM     31  C   UNL     1      61.154  34.755  76.547  0.00  0.00    +0.000 A 
BRANCH  29  32
ATOM     32  C   UNL     1      64.920  36.018  76.461  0.00  0.00    +0.000 C 
BRANCH  32  33
ATOM     33  N   UNL     1      66.361  36.096  76.622  0.00  0.00    +0.000 NA
ATOM     34  C   UNL     1      66.908  36.643  75.391  0.00  0.00    +0.000 C 
ATOM     35  C   UNL     1      66.858  34.735  76.741  0.00  0.00    +0.000 C 
ENDBRANCH  32  33
ENDBRANCH  29  32
ENDBRANCH  24  26
ENDBRANCH   3  24
TORSDOF 7
ENDMDL
MODEL 4
REMARK VINA RESULT:      -7.4      4.117      9.434
REMARK  Name = OTSSP167.pdbqt.pdb
REMARK  7 active torsions:
REMARK  status: ('A' for Active; 'I' for Inactive)
REMARK    1  A    between atoms: C_5  and  N_19
REMARK    2  A    between atoms: C_7  and  C_31
REMARK    3  A    between atoms: C_11  and  C_13
REMARK    4  A    between atoms: C_18  and  O_34
REMARK    5  A    between atoms: N_19  and  C_21
REMARK    6  A    between atoms: C_24  and  C_27
REMARK    7  A    between atoms: C_27  and  N_28
REMARK                            x       y       z     vdW  Elec       q    Type
REMARK                         _______ _______ _______ _____ _____    ______ ____
ROOT
ATOM      1  N   UNL     1      60.568  34.340  75.920  0.00  0.00    +0.000 NA
ATOM      2  N   UNL     1      63.587  35.489  74.212  0.00  0.00    +0.000 NA
ATOM      3  C   UNL     1      61.905  33.231  74.213  0.00  0.00    +0.000 A 
ATOM      4  C   UNL     1      61.622  34.331  75.065  0.00  0.00    +0.000 A 
ATOM      5  C   UNL     1      63.042  33.305  73.383  0.00  0.00    +0.000 A 
ATOM      6  C   UNL     1      62.511  35.426  75.012  0.00  0.00    +0.000 A 
ATOM      7  C   UNL     1      63.834  34.432  73.417  0.00  0.00    +0.000 A 
ATOM      8  C   UNL     1      62.250  36.498  75.846  0.00  0.00    +0.000 A 
ATOM      9  C   UNL     1      60.331  35.408  76.720  0.00  0.00    +0.000 A 
ATOM     10  C   UNL     1      61.163  36.511  76.708  0.00  0.00    +0.000 A 
ENDROOT
BRANCH   9  13
ATOM     11 CL   UNL     1      58.227  33.765  81.143  0.00  0.00    +0.000 Cl
ATOM     12 CL   UNL     1      55.315  36.454  77.404  0.00  0.00    +0.000 Cl
ATOM     13  C   UNL     1      59.143  35.324  77.573  0.00  0.00    +0.000 A 
ATOM     14  C   UNL     1      57.911  35.857  77.176  0.00  0.00    +0.000 A 
ATOM     15  C   UNL     1      59.198  34.689  78.820  0.00  0.00    +0.000 A 
ATOM     16  C   UNL     1      58.075  34.583  79.636  0.00  0.00    +0.000 A 
ATOM     17  C   UNL     1      56.780  35.763  77.988  0.00  0.00    +0.000 A 
ATOM     18  C   UNL     1      56.857  35.123  79.225  0.00  0.00    +0.000 A 
BRANCH  18  19
ATOM     19  O   UNL     1      55.743  35.030  80.016  0.00  0.00    +0.000 OA
ATOM     20  H   UNL     1      55.706  34.130  80.391  0.00  0.00    +0.000 HD
ENDBRANCH  18  19
ENDBRANCH   9  13
BRANCH   5  21
ATOM     21  C   UNL     1      63.459  32.217  72.501  0.00  0.00    +0.000 C 
ATOM     22  O   UNL     1      63.797  31.106  72.872  0.00  0.00    +0.000 OA
ATOM     23  C   UNL     1      63.570  32.345  71.012  0.00  0.00    +0.000 C 
ENDBRANCH   5  21
BRANCH   3  24
ATOM     24  N   UNL     1      61.036  32.100  74.085  0.00  0.00    +0.000 N 
ATOM     25  H   UNL     1      60.814  31.633  74.968  0.00  0.00    +0.000 HD
BRANCH  24  26
ATOM     26  C   UNL     1      60.129  31.848  73.093  0.00  0.00    +0.000 A 
ATOM     27  C   UNL     1      60.321  30.660  72.300  0.00  0.00    +0.000 A 
ATOM     28  C   UNL     1      60.126  30.544  70.766  0.00  0.00    +0.000 A 
ATOM     29  C   UNL     1      59.728  31.627  69.900  0.00  0.00    +0.000 A 
ATOM     30  C   UNL     1      59.560  32.823  70.687  0.00  0.00    +0.000 A 
ATOM     31  C   UNL     1      59.758  32.934  72.219  0.00  0.00    +0.000 A 
BRANCH  29  32
ATOM     32  C   UNL     1      59.415  31.506  68.528  0.00  0.00    +0.000 C 
BRANCH  32  33
ATOM     33  N   UNL     1      59.105  31.394  67.114  0.00  0.00    +0.000 NA
ATOM     34  C   UNL     1      58.072  32.373  66.817  0.00  0.00    +0.000 C 
ATOM     35  C   UNL     1      58.521  30.081  66.900  0.00  0.00    +0.000 C 
ENDBRANCH  32  33
ENDBRANCH  29  32
ENDBRANCH  24  26
ENDBRANCH   3  24
TORSDOF 7
ENDMDL
MODEL 5
REMARK VINA RESULT:      -7.0      3.687      7.469
REMARK  Name = OTSSP167.pdbqt.pdb
REMARK  7 active torsions:
REMARK  status: ('A' for Active; 'I' for Inactive)
REMARK    1  A    between atoms: C_5  and  N_19
REMARK    2  A    between atoms: C_7  and  C_31
REMARK    3  A    between atoms: C_11  and  C_13
REMARK    4  A    between atoms: C_18  and  O_34
REMARK    5  A    between atoms: N_19  and  C_21
REMARK    6  A    between atoms: C_24  and  C_27
REMARK    7  A    between atoms: C_27  and  N_28
REMARK                            x       y       z     vdW  Elec       q    Type
REMARK                         _______ _______ _______ _____ _____    ______ ____
ROOT
ATOM      1  N   UNL     1      58.968  34.216  72.455  0.00  0.00    +0.000 NA
ATOM      2  N   UNL     1      58.706  34.585  68.829  0.00  0.00    +0.000 NA
ATOM      3  C   UNL     1      59.519  32.633  70.689  0.00  0.00    +0.000 A 
ATOM      4  C   UNL     1      59.036  33.890  71.140  0.00  0.00    +0.000 A 
ATOM      5  C   UNL     1      59.580  32.401  69.299  0.00  0.00    +0.000 A 
ATOM      6  C   UNL     1      58.650  34.819  70.150  0.00  0.00    +0.000 A 
ATOM      7  C   UNL     1      59.170  33.387  68.429  0.00  0.00    +0.000 A 
ATOM      8  C   UNL     1      58.189  36.051  70.579  0.00  0.00    +0.000 A 
ATOM      9  C   UNL     1      58.503  35.427  72.847  0.00  0.00    +0.000 A 
ATOM     10  C   UNL     1      58.105  36.375  71.925  0.00  0.00    +0.000 A 
ENDROOT
BRANCH   9  13
ATOM     11 CL   UNL     1      60.988  35.578  77.374  0.00  0.00    +0.000 Cl
ATOM     12 CL   UNL     1      55.640  36.554  77.001  0.00  0.00    +0.000 Cl
ATOM     13  C   UNL     1      58.435  35.655  74.293  0.00  0.00    +0.000 A 
ATOM     14  C   UNL     1      57.231  35.968  74.935  0.00  0.00    +0.000 A 
ATOM     15  C   UNL     1      59.583  35.552  75.090  0.00  0.00    +0.000 A 
ATOM     16  C   UNL     1      59.534  35.747  76.468  0.00  0.00    +0.000 A 
ATOM     17  C   UNL     1      57.172  36.172  76.314  0.00  0.00    +0.000 A 
ATOM     18  C   UNL     1      58.326  36.061  77.089  0.00  0.00    +0.000 A 
BRANCH  18  19
ATOM     19  O   UNL     1      58.261  36.258  78.443  0.00  0.00    +0.000 OA
ATOM     20  H   UNL     1      58.597  35.457  78.886  0.00  0.00    +0.000 HD
ENDBRANCH  18  19
ENDBRANCH   9  13
BRANCH   5  21
ATOM     21  C   UNL     1      60.102  31.166  68.719  0.00  0.00    +0.000 C 
ATOM     22  O   UNL     1      61.250  30.770  68.831  0.00  0.00    +0.000 OA
ATOM     23  C   UNL     1      59.295  30.240  67.859  0.00  0.00    +0.000 C 
ENDBRANCH   5  21
BRANCH   3  24
ATOM     24  N   UNL     1      59.846  31.559  71.577  0.00  0.00    +0.000 N 
ATOM     25  H   UNL     1      59.460  30.650  71.305  0.00  0.00    +0.000 HD
BRANCH  24  26
ATOM     26  C   UNL     1      60.919  31.464  72.420  0.00  0.00    +0.000 A 
ATOM     27  C   UNL     1      60.697  31.738  73.817  0.00  0.00    +0.000 A 
ATOM     28  C   UNL     1      61.641  32.534  74.754  0.00  0.00    +0.000 A 
ATOM     29  C   UNL     1      62.891  33.132  74.352  0.00  0.00    +0.000 A 
ATOM     30  C   UNL     1      63.104  32.882  72.948  0.00  0.00    +0.000 A 
ATOM     31  C   UNL     1      62.156  32.087  72.016  0.00  0.00    +0.000 A 
BRANCH  29  32
ATOM     32  C   UNL     1      63.824  33.740  75.220  0.00  0.00    +0.000 C 
BRANCH  32  33
ATOM     33  N   UNL     1      64.776  34.382  76.110  0.00  0.00    +0.000 NA
ATOM     34  C   UNL     1      64.548  33.854  77.445  0.00  0.00    +0.000 C 
ATOM     35  C   UNL     1      64.447  35.797  76.149  0.00  0.00    +0.000 C 
ENDBRANCH  32  33
ENDBRANCH  29  32
ENDBRANCH  24  26
ENDBRANCH   3  24
TORSDOF 7
ENDMDL
MODEL 6
REMARK VINA RESULT:      -6.9      3.754      9.177
REMARK  Name = OTSSP167.pdbqt.pdb
REMARK  7 active torsions:
REMARK  status: ('A' for Active; 'I' for Inactive)
REMARK    1  A    between atoms: C_5  and  N_19
REMARK    2  A    between atoms: C_7  and  C_31
REMARK    3  A    between atoms: C_11  and  C_13
REMARK    4  A    between atoms: C_18  and  O_34
REMARK    5  A    between atoms: N_19  and  C_21
REMARK    6  A    between atoms: C_24  and  C_27
REMARK    7  A    between atoms: C_27  and  N_28
REMARK                            x       y       z     vdW  Elec       q    Type
REMARK                         _______ _______ _______ _____ _____    ______ ____
ROOT
ATOM      1  N   UNL     1      60.381  34.254  75.881  0.00  0.00    +0.000 NA
ATOM      2  N   UNL     1      63.912  34.498  74.972  0.00  0.00    +0.000 NA
ATOM      3  C   UNL     1      61.650  32.997  74.225  0.00  0.00    +0.000 A 
ATOM      4  C   UNL     1      61.543  33.996  75.229  0.00  0.00    +0.000 A 
ATOM      5  C   UNL     1      62.909  32.783  73.628  0.00  0.00    +0.000 A 
ATOM      6  C   UNL     1      62.719  34.705  75.552  0.00  0.00    +0.000 A 
ATOM      7  C   UNL     1      63.986  33.544  74.026  0.00  0.00    +0.000 A 
ATOM      8  C   UNL     1      62.628  35.673  76.536  0.00  0.00    +0.000 A 
ATOM      9  C   UNL     1      60.319  35.215  76.835  0.00  0.00    +0.000 A 
ATOM     10  C   UNL     1      61.436  35.946  77.190  0.00  0.00    +0.000 A 
ENDROOT
BRANCH   9  13
ATOM     11 CL   UNL     1      57.105  34.270  80.768  0.00  0.00    +0.000 Cl
ATOM     12 CL   UNL     1      55.636  37.385  76.545  0.00  0.00    +0.000 Cl
ATOM     13  C   UNL     1      59.004  35.434  77.444  0.00  0.00    +0.000 A 
ATOM     14  C   UNL     1      58.023  36.213  76.819  0.00  0.00    +0.000 A 
ATOM     15  C   UNL     1      58.679  34.855  78.677  0.00  0.00    +0.000 A 
ATOM     16  C   UNL     1      57.428  35.038  79.262  0.00  0.00    +0.000 A 
ATOM     17  C   UNL     1      56.769  36.408  77.398  0.00  0.00    +0.000 A 
ATOM     18  C   UNL     1      56.465  35.819  78.625  0.00  0.00    +0.000 A 
BRANCH  18  19
ATOM     19  O   UNL     1      55.230  36.011  79.188  0.00  0.00    +0.000 OA
ATOM     20  H   UNL     1      55.215  35.563  80.055  0.00  0.00    +0.000 HD
ENDBRANCH  18  19
ENDBRANCH   9  13
BRANCH   5  21
ATOM     21  C   UNL     1      63.149  31.753  72.620  0.00  0.00    +0.000 C 
ATOM     22  O   UNL     1      62.965  30.558  72.782  0.00  0.00    +0.000 OA
ATOM     23  C   UNL     1      63.706  32.031  71.257  0.00  0.00    +0.000 C 
ENDBRANCH   5  21
BRANCH   3  24
ATOM     24  N   UNL     1      60.522  32.273  73.723  0.00  0.00    +0.000 N 
ATOM     25  H   UNL     1      60.146  31.571  74.367  0.00  0.00    +0.000 HD
BRANCH  24  26
ATOM     26  C   UNL     1      59.625  32.672  72.770  0.00  0.00    +0.000 A 
ATOM     27  C   UNL     1      59.934  32.370  71.396  0.00  0.00    +0.000 A 
ATOM     28  C   UNL     1      59.715  33.310  70.182  0.00  0.00    +0.000 A 
ATOM     29  C   UNL     1      59.172  34.645  70.259  0.00  0.00    +0.000 A 
ATOM     30  C   UNL     1      58.886  34.959  71.636  0.00  0.00    +0.000 A 
ATOM     31  C   UNL     1      59.108  34.017  72.845  0.00  0.00    +0.000 A 
BRANCH  29  32
ATOM     32  C   UNL     1      58.839  35.458  69.153  0.00  0.00    +0.000 C 
BRANCH  32  33
ATOM     33  N   UNL     1      58.490  36.279  68.007  0.00  0.00    +0.000 NA
ATOM     34  C   UNL     1      57.149  36.793  68.233  0.00  0.00    +0.000 C 
ATOM     35  C   UNL     1      58.420  35.401  66.850  0.00  0.00    +0.000 C 
ENDBRANCH  32  33
ENDBRANCH  29  32
ENDBRANCH  24  26
ENDBRANCH   3  24
TORSDOF 7
ENDMDL
MODEL 7
REMARK VINA RESULT:      -6.9      5.146      7.984
REMARK  Name = OTSSP167.pdbqt.pdb
REMARK  7 active torsions:
REMARK  status: ('A' for Active; 'I' for Inactive)
REMARK    1  A    between atoms: C_5  and  N_19
REMARK    2  A    between atoms: C_7  and  C_31
REMARK    3  A    between atoms: C_11  and  C_13
REMARK    4  A    between atoms: C_18  and  O_34
REMARK    5  A    between atoms: N_19  and  C_21
REMARK    6  A    between atoms: C_24  and  C_27
REMARK    7  A    between atoms: C_27  and  N_28
REMARK                            x       y       z     vdW  Elec       q    Type
REMARK                         _______ _______ _______ _____ _____    ______ ____
ROOT
ATOM      1  N   UNL     1      55.767  39.955  72.596  0.00  0.00    +0.000 NA
ATOM      2  N   UNL     1      57.212  36.943  71.116  0.00  0.00    +0.000 NA
ATOM      3  C   UNL     1      57.566  38.532  73.413  0.00  0.00    +0.000 A 
ATOM      4  C   UNL     1      56.565  38.866  72.462  0.00  0.00    +0.000 A 
ATOM      5  C   UNL     1      58.366  37.397  73.169  0.00  0.00    +0.000 A 
ATOM      6  C   UNL     1      56.448  38.025  71.335  0.00  0.00    +0.000 A 
ATOM      7  C   UNL     1      58.154  36.650  72.031  0.00  0.00    +0.000 A 
ATOM      8  C   UNL     1      55.484  38.348  70.397  0.00  0.00    +0.000 A 
ATOM      9  C   UNL     1      54.823  40.243  71.666  0.00  0.00    +0.000 A 
ATOM     10  C   UNL     1      54.658  39.453  70.545  0.00  0.00    +0.000 A 
ENDROOT
BRANCH   9  13
ATOM     11 CL   UNL     1      54.422  44.918  73.827  0.00  0.00    +0.000 Cl
ATOM     12 CL   UNL     1      50.249  42.603  71.196  0.00  0.00    +0.000 Cl
ATOM     13  C   UNL     1      53.992  41.419  71.933  0.00  0.00    +0.000 A 
ATOM     14  C   UNL     1      52.662  41.494  71.504  0.00  0.00    +0.000 A 
ATOM     15  C   UNL     1      54.502  42.512  72.646  0.00  0.00    +0.000 A 
ATOM     16  C   UNL     1      53.721  43.631  72.924  0.00  0.00    +0.000 A 
ATOM     17  C   UNL     1      51.872  42.613  71.772  0.00  0.00    +0.000 A 
ATOM     18  C   UNL     1      52.399  43.688  72.486  0.00  0.00    +0.000 A 
BRANCH  18  19
ATOM     19  O   UNL     1      51.617  44.782  72.750  0.00  0.00    +0.000 OA
ATOM     20  H   UNL     1      51.032  44.933  71.985  0.00  0.00    +0.000 HD
ENDBRANCH  18  19
ENDBRANCH   9  13
BRANCH   5  21
ATOM     21  C   UNL     1      59.455  36.984  74.051  0.00  0.00    +0.000 C 
ATOM     22  O   UNL     1      60.544  37.528  74.122  0.00  0.00    +0.000 OA
ATOM     23  C   UNL     1      59.389  35.793  74.959  0.00  0.00    +0.000 C 
ENDBRANCH   5  21
BRANCH   3  24
ATOM     24  N   UNL     1      57.728  39.231  74.652  0.00  0.00    +0.000 N 
ATOM     25  H   UNL     1      57.991  40.216  74.552  0.00  0.00    +0.000 HD
BRANCH  24  26
ATOM     26  C   UNL     1      57.160  38.939  75.861  0.00  0.00    +0.000 A 
ATOM     27  C   UNL     1      58.040  38.783  76.991  0.00  0.00    +0.000 A 
ATOM     28  C   UNL     1      57.917  37.709  78.103  0.00  0.00    +0.000 A 
ATOM     29  C   UNL     1      56.895  36.692  78.160  0.00  0.00    +0.000 A 
ATOM     30  C   UNL     1      56.028  36.831  77.016  0.00  0.00    +0.000 A 
ATOM     31  C   UNL     1      56.156  37.904  75.908  0.00  0.00    +0.000 A 
BRANCH  29  32
ATOM     32  C   UNL     1      56.689  35.798  79.233  0.00  0.00    +0.000 C 
BRANCH  32  33
ATOM     33  N   UNL     1      56.488  34.889  80.348  0.00  0.00    +0.000 NA
ATOM     34  C   UNL     1      57.225  35.423  81.482  0.00  0.00    +0.000 C 
ATOM     35  C   UNL     1      57.110  33.624  79.994  0.00  0.00    +0.000 C 
ENDBRANCH  32  33
ENDBRANCH  29  32
ENDBRANCH  24  26
ENDBRANCH   3  24
TORSDOF 7
ENDMDL
MODEL 8
REMARK VINA RESULT:      -6.7      3.707      6.486
REMARK  Name = OTSSP167.pdbqt.pdb
REMARK  7 active torsions:
REMARK  status: ('A' for Active; 'I' for Inactive)
REMARK    1  A    between atoms: C_5  and  N_19
REMARK    2  A    between atoms: C_7  and  C_31
REMARK    3  A    between atoms: C_11  and  C_13
REMARK    4  A    between atoms: C_18  and  O_34
REMARK    5  A    between atoms: N_19  and  C_21
REMARK    6  A    between atoms: C_24  and  C_27
REMARK    7  A    between atoms: C_27  and  N_28
REMARK                            x       y       z     vdW  Elec       q    Type
REMARK                         _______ _______ _______ _____ _____    ______ ____
ROOT
ATOM      1  N   UNL     1      60.047  32.852  71.227  0.00  0.00    +0.000 NA
ATOM      2  N   UNL     1      61.499  31.644  74.355  0.00  0.00    +0.000 NA
ATOM      3  C   UNL     1      60.594  34.075  73.260  0.00  0.00    +0.000 A 
ATOM      4  C   UNL     1      60.520  32.879  72.498  0.00  0.00    +0.000 A 
ATOM      5  C   UNL     1      61.131  34.005  74.562  0.00  0.00    +0.000 A 
ATOM      6  C   UNL     1      60.996  31.700  73.111  0.00  0.00    +0.000 A 
ATOM      7  C   UNL     1      61.560  32.792  75.054  0.00  0.00    +0.000 A 
ATOM      8  C   UNL     1      60.939  30.532  72.373  0.00  0.00    +0.000 A 
ATOM      9  C   UNL     1      59.994  31.691  70.530  0.00  0.00    +0.000 A 
ATOM     10  C   UNL     1      60.439  30.504  71.080  0.00  0.00    +0.000 A 
ENDROOT
BRANCH   9  13
ATOM     11 CL   UNL     1      58.089  34.663  66.757  0.00  0.00    +0.000 Cl
ATOM     12 CL   UNL     1      58.421  29.247  66.256  0.00  0.00    +0.000 Cl
ATOM     13  C   UNL     1      59.427  31.773  69.182  0.00  0.00    +0.000 A 
ATOM     14  C   UNL     1      59.204  30.630  68.405  0.00  0.00    +0.000 A 
ATOM     15  C   UNL     1      59.073  33.010  68.626  0.00  0.00    +0.000 A 
ATOM     16  C   UNL     1      58.516  33.105  67.353  0.00  0.00    +0.000 A 
ATOM     17  C   UNL     1      58.652  30.714  67.126  0.00  0.00    +0.000 A 
ATOM     18  C   UNL     1      58.304  31.956  66.593  0.00  0.00    +0.000 A 
BRANCH  18  19
ATOM     19  O   UNL     1      57.759  32.032  65.339  0.00  0.00    +0.000 OA
ATOM     20  H   UNL     1      58.465  32.279  64.712  0.00  0.00    +0.000 HD
ENDBRANCH  18  19
ENDBRANCH   9  13
BRANCH   5  21
ATOM     21  C   UNL     1      61.299  35.176  75.420  0.00  0.00    +0.000 C 
ATOM     22  O   UNL     1      62.002  36.138  75.161  0.00  0.00    +0.000 OA
ATOM     23  C   UNL     1      60.660  35.324  76.767  0.00  0.00    +0.000 C 
ENDBRANCH   5  21
BRANCH   3  24
ATOM     24  N   UNL     1      60.055  35.322  72.808  0.00  0.00    +0.000 N 
ATOM     25  H   UNL     1      60.656  35.832  72.154  0.00  0.00    +0.000 HD
BRANCH  24  26
ATOM     26  C   UNL     1      58.741  35.694  72.743  0.00  0.00    +0.000 A 
ATOM     27  C   UNL     1      58.293  36.353  71.542  0.00  0.00    +0.000 A 
ATOM     28  C   UNL     1      57.324  37.562  71.470  0.00  0.00    +0.000 A 
ATOM     29  C   UNL     1      56.732  38.214  72.613  0.00  0.00    +0.000 A 
ATOM     30  C   UNL     1      57.198  37.573  73.817  0.00  0.00    +0.000 A 
ATOM     31  C   UNL     1      58.168  36.367  73.883  0.00  0.00    +0.000 A 
BRANCH  29  32
ATOM     32  C   UNL     1      55.745  39.223  72.559  0.00  0.00    +0.000 C 
BRANCH  32  33
ATOM     33  N   UNL     1      54.718  40.248  72.496  0.00  0.00    +0.000 NA
ATOM     34  C   UNL     1      54.384  40.444  71.095  0.00  0.00    +0.000 C 
ATOM     35  C   UNL     1      55.312  41.487  72.970  0.00  0.00    +0.000 C 
ENDBRANCH  32  33
ENDBRANCH  29  32
ENDBRANCH  24  26
ENDBRANCH   3  24
TORSDOF 7
ENDMDL
MODEL 9
REMARK VINA RESULT:      -6.7      3.845      8.522
REMARK  Name = OTSSP167.pdbqt.pdb
REMARK  7 active torsions:
REMARK  status: ('A' for Active; 'I' for Inactive)
REMARK    1  A    between atoms: C_5  and  N_19
REMARK    2  A    between atoms: C_7  and  C_31
REMARK    3  A    between atoms: C_11  and  C_13
REMARK    4  A    between atoms: C_18  and  O_34
REMARK    5  A    between atoms: N_19  and  C_21
REMARK    6  A    between atoms: C_24  and  C_27
REMARK    7  A    between atoms: C_27  and  N_28
REMARK                            x       y       z     vdW  Elec       q    Type
REMARK                         _______ _______ _______ _____ _____    ______ ____
ROOT
ATOM      1  N   UNL     1      59.002  35.493  75.003  0.00  0.00    +0.000 NA
ATOM      2  N   UNL     1      62.204  34.579  73.499  0.00  0.00    +0.000 NA
ATOM      3  C   UNL     1      59.597  35.227  72.657  0.00  0.00    +0.000 A 
ATOM      4  C   UNL     1      59.918  35.220  74.040  0.00  0.00    +0.000 A 
ATOM      5  C   UNL     1      60.612  34.898  71.734  0.00  0.00    +0.000 A 
ATOM      6  C   UNL     1      61.244  34.883  74.387  0.00  0.00    +0.000 A 
ATOM      7  C   UNL     1      61.872  34.590  72.195  0.00  0.00    +0.000 A 
ATOM      8  C   UNL     1      61.565  34.863  75.732  0.00  0.00    +0.000 A 
ATOM      9  C   UNL     1      59.346  35.475  76.314  0.00  0.00    +0.000 A 
ATOM     10  C   UNL     1      60.630  35.158  76.714  0.00  0.00    +0.000 A 
ENDROOT
BRANCH   9  13
ATOM     11 CL   UNL     1      55.059  38.190  77.283  0.00  0.00    +0.000 Cl
ATOM     12 CL   UNL     1      57.313  34.946  81.037  0.00  0.00    +0.000 Cl
ATOM     13  C   UNL     1      58.287  35.825  77.264  0.00  0.00    +0.000 A 
ATOM     14  C   UNL     1      58.259  35.302  78.562  0.00  0.00    +0.000 A 
ATOM     15  C   UNL     1      57.266  36.715  76.905  0.00  0.00    +0.000 A 
ATOM     16  C   UNL     1      56.262  37.072  77.801  0.00  0.00    +0.000 A 
ATOM     17  C   UNL     1      57.254  35.649  79.466  0.00  0.00    +0.000 A 
ATOM     18  C   UNL     1      56.249  36.539  79.088  0.00  0.00    +0.000 A 
BRANCH  18  19
ATOM     19  O   UNL     1      55.267  36.879  79.981  0.00  0.00    +0.000 OA
ATOM     20  H   UNL     1      55.626  36.785  80.883  0.00  0.00    +0.000 HD
ENDBRANCH  18  19
ENDBRANCH   9  13
BRANCH   5  21
ATOM     21  C   UNL     1      60.387  34.827  70.292  0.00  0.00    +0.000 C 
ATOM     22  O   UNL     1      60.340  35.788  69.543  0.00  0.00    +0.000 OA
ATOM     23  C   UNL     1      60.132  33.552  69.548  0.00  0.00    +0.000 C 
ENDBRANCH   5  21
BRANCH   3  24
ATOM     24  N   UNL     1      58.325  35.650  72.154  0.00  0.00    +0.000 N 
ATOM     25  H   UNL     1      57.551  35.015  72.370  0.00  0.00    +0.000 HD
BRANCH  24  26
ATOM     26  C   UNL     1      57.919  36.922  71.861  0.00  0.00    +0.000 A 
ATOM     27  C   UNL     1      57.288  37.679  72.912  0.00  0.00    +0.000 A 
ATOM     28  C   UNL     1      56.056  38.608  72.755  0.00  0.00    +0.000 A 
ATOM     29  C   UNL     1      55.350  38.842  71.519  0.00  0.00    +0.000 A 
ATOM     30  C   UNL     1      55.964  38.066  70.471  0.00  0.00    +0.000 A 
ATOM     31  C   UNL     1      57.194  37.138  70.633  0.00  0.00    +0.000 A 
BRANCH  29  32
ATOM     32  C   UNL     1      54.317  39.787  71.332  0.00  0.00    +0.000 C 
BRANCH  32  33
ATOM     33  N   UNL     1      53.262  40.763  71.124  0.00  0.00    +0.000 NA
ATOM     34  C   UNL     1      53.260  41.107  69.712  0.00  0.00    +0.000 C 
ATOM     35  C   UNL     1      53.633  41.964  71.854  0.00  0.00    +0.000 C 
ENDBRANCH  32  33
ENDBRANCH  29  32
ENDBRANCH  24  26
ENDBRANCH   3  24
TORSDOF 7
ENDMDL
