MODEL 1
REMARK VINA RESULT:      -5.6      0.000      0.000
REMARK  Name = 
REMARK  0 active torsions:
REMARK  status: ('A' for Active; 'I' for Inactive)
REMARK                            x       y       z     vdW  Elec       q    Type
REMARK                         _______ _______ _______ _____ _____    ______ ____
ROOT
ATOM      1  O   UNL     1      61.854  33.833  72.467  0.00  0.00    +0.000 OA
ATOM      2  O   UNL     1      58.836  33.518  68.232  0.00  0.00    +0.000 OA
ATOM      3  N   UNL     1      61.067  33.558  73.551  0.00  0.00    +0.000 N 
ATOM      4  N   UNL     1      59.425  32.613  70.278  0.00  0.00    +0.000 N 
ATOM      5  C   UNL     1      59.720  32.915  73.167  0.00  0.00    +0.000 C 
ATOM      6  C   UNL     1      59.879  31.544  72.482  0.00  0.00    +0.000 C 
ATOM      7  C   UNL     1      58.820  33.846  72.346  0.00  0.00    +0.000 C 
ATOM      8  C   UNL     1      60.319  31.675  70.995  0.00  0.00    +0.000 C 
ATOM      9  C   UNL     1      60.750  30.624  73.358  0.00  0.00    +0.000 C 
ATOM     10  C   UNL     1      59.272  33.937  70.889  0.00  0.00    +0.000 C 
ATOM     11  C   UNL     1      61.826  32.609  74.455  0.00  0.00    +0.000 C 
ATOM     12  C   UNL     1      58.672  35.222  73.008  0.00  0.00    +0.000 C 
ATOM     13  C   UNL     1      60.802  34.852  74.292  0.00  0.00    +0.000 C 
ATOM     14  C   UNL     1      62.067  31.267  73.772  0.00  0.00    +0.000 C 
ATOM     15  C   UNL     1      60.002  35.828  73.439  0.00  0.00    +0.000 C 
ATOM     16  C   UNL     1      60.371  30.296  70.319  0.00  0.00    +0.000 C 
ATOM     17  C   UNL     1      60.629  30.449  68.832  0.00  0.00    +0.000 C 
ATOM     18  C   UNL     1      59.268  32.571  68.891  0.00  0.00    +0.000 C 
ATOM     19  C   UNL     1      59.496  31.238  68.215  0.00  0.00    +0.000 C 
ENDROOT
TORSDOF 0
ENDMDL
MODEL 2
REMARK VINA RESULT:      -5.4     20.652     21.677
REMARK  Name = 
REMARK  0 active torsions:
REMARK  status: ('A' for Active; 'I' for Inactive)
REMARK                            x       y       z     vdW  Elec       q    Type
REMARK                         _______ _______ _______ _____ _____    ______ ____
ROOT
ATOM      1  O   UNL     1      43.618  26.108  86.958  0.00  0.00    +0.000 OA
ATOM      2  O   UNL     1      48.821  25.872  86.832  0.00  0.00    +0.000 OA
ATOM      3  N   UNL     1      43.257  27.375  86.593  0.00  0.00    +0.000 N 
ATOM      4  N   UNL     1      46.877  26.607  85.815  0.00  0.00    +0.000 N 
ATOM      5  C   UNL     1      44.410  28.163  85.941  0.00  0.00    +0.000 C 
ATOM      6  C   UNL     1      44.898  27.535  84.620  0.00  0.00    +0.000 C 
ATOM      7  C   UNL     1      45.579  28.425  86.898  0.00  0.00    +0.000 C 
ATOM      8  C   UNL     1      45.794  26.286  84.857  0.00  0.00    +0.000 C 
ATOM      9  C   UNL     1      43.703  27.330  83.671  0.00  0.00    +0.000 C 
ATOM     10  C   UNL     1      46.445  27.181  87.092  0.00  0.00    +0.000 C 
ATOM     11  C   UNL     1      42.111  27.274  85.610  0.00  0.00    +0.000 C 
ATOM     12  C   UNL     1      45.102  29.031  88.224  0.00  0.00    +0.000 C 
ATOM     13  C   UNL     1      42.793  28.117  87.830  0.00  0.00    +0.000 C 
ATOM     14  C   UNL     1      42.545  26.585  84.321  0.00  0.00    +0.000 C 
ATOM     15  C   UNL     1      43.924  28.283  88.837  0.00  0.00    +0.000 C 
ATOM     16  C   UNL     1      46.341  25.747  83.526  0.00  0.00    +0.000 C 
ATOM     17  C   UNL     1      47.349  24.642  83.781  0.00  0.00    +0.000 C 
ATOM     18  C   UNL     1      48.068  25.879  85.856  0.00  0.00    +0.000 C 
ATOM     19  C   UNL     1      48.505  25.204  84.576  0.00  0.00    +0.000 C 
ENDROOT
TORSDOF 0
ENDMDL
MODEL 3
REMARK VINA RESULT:      -5.3     34.453     35.397
REMARK  Name = 
REMARK  0 active torsions:
REMARK  status: ('A' for Active; 'I' for Inactive)
REMARK                            x       y       z     vdW  Elec       q    Type
REMARK                         _______ _______ _______ _____ _____    ______ ____
ROOT
ATOM      1  O   UNL     1      32.653  24.552  90.567  0.00  0.00    +0.000 OA
ATOM      2  O   UNL     1      30.561  28.437  87.796  0.00  0.00    +0.000 OA
ATOM      3  N   UNL     1      32.663  24.944  91.877  0.00  0.00    +0.000 N 
ATOM      4  N   UNL     1      30.477  27.144  89.713  0.00  0.00    +0.000 N 
ATOM      5  C   UNL     1      31.768  26.169  92.144  0.00  0.00    +0.000 C 
ATOM      6  C   UNL     1      30.277  25.900  91.862  0.00  0.00    +0.000 C 
ATOM      7  C   UNL     1      32.250  27.436  91.426  0.00  0.00    +0.000 C 
ATOM      8  C   UNL     1      29.953  25.909  90.341  0.00  0.00    +0.000 C 
ATOM      9  C   UNL     1      29.821  24.649  92.635  0.00  0.00    +0.000 C 
ATOM     10  C   UNL     1      31.900  27.417  89.939  0.00  0.00    +0.000 C 
ATOM     11  C   UNL     1      32.175  23.784  92.719  0.00  0.00    +0.000 C 
ATOM     12  C   UNL     1      33.739  27.703  91.682  0.00  0.00    +0.000 C 
ATOM     13  C   UNL     1      34.088  25.281  92.265  0.00  0.00    +0.000 C 
ATOM     14  C   UNL     1      30.723  23.444  92.405  0.00  0.00    +0.000 C 
ATOM     15  C   UNL     1      34.614  26.472  91.474  0.00  0.00    +0.000 C 
ATOM     16  C   UNL     1      28.445  25.736  90.103  0.00  0.00    +0.000 C 
ATOM     17  C   UNL     1      28.120  25.921  88.633  0.00  0.00    +0.000 C 
ATOM     18  C   UNL     1      29.952  27.649  88.522  0.00  0.00    +0.000 C 
ATOM     19  C   UNL     1      28.508  27.321  88.216  0.00  0.00    +0.000 C 
ENDROOT
TORSDOF 0
ENDMDL
MODEL 4
REMARK VINA RESULT:      -5.3     20.635     21.684
REMARK  Name = 
REMARK  0 active torsions:
REMARK  status: ('A' for Active; 'I' for Inactive)
REMARK                            x       y       z     vdW  Elec       q    Type
REMARK                         _______ _______ _______ _____ _____    ______ ____
ROOT
ATOM      1  O   UNL     1      46.000  23.999  86.094  0.00  0.00    +0.000 OA
ATOM      2  O   UNL     1      41.911  26.102  83.643  0.00  0.00    +0.000 OA
ATOM      3  N   UNL     1      47.109  24.705  85.719  0.00  0.00    +0.000 N 
ATOM      4  N   UNL     1      43.885  26.454  84.799  0.00  0.00    +0.000 N 
ATOM      5  C   UNL     1      46.766  26.042  85.033  0.00  0.00    +0.000 C 
ATOM      6  C   UNL     1      46.015  27.019  85.959  0.00  0.00    +0.000 C 
ATOM      7  C   UNL     1      46.032  25.865  83.699  0.00  0.00    +0.000 C 
ATOM      8  C   UNL     1      44.516  26.641  86.125  0.00  0.00    +0.000 C 
ATOM      9  C   UNL     1      46.807  27.206  87.267  0.00  0.00    +0.000 C 
ATOM     10  C   UNL     1      44.559  25.510  83.902  0.00  0.00    +0.000 C 
ATOM     11  C   UNL     1      47.932  24.984  86.959  0.00  0.00    +0.000 C 
ATOM     12  C   UNL     1      46.758  24.877  82.777  0.00  0.00    +0.000 C 
ATOM     13  C   UNL     1      47.917  23.854  84.761  0.00  0.00    +0.000 C 
ATOM     14  C   UNL     1      47.181  25.887  87.930  0.00  0.00    +0.000 C 
ATOM     15  C   UNL     1      47.148  23.579  83.475  0.00  0.00    +0.000 C 
ATOM     16  C   UNL     1      43.779  27.690  86.972  0.00  0.00    +0.000 C 
ATOM     17  C   UNL     1      42.289  27.406  86.982  0.00  0.00    +0.000 C 
ATOM     18  C   UNL     1      42.507  26.581  84.610  0.00  0.00    +0.000 C 
ATOM     19  C   UNL     1      41.764  27.486  85.567  0.00  0.00    +0.000 C 
ENDROOT
TORSDOF 0
ENDMDL
MODEL 5
REMARK VINA RESULT:      -5.2     20.056     21.220
REMARK  Name = 
REMARK  0 active torsions:
REMARK  status: ('A' for Active; 'I' for Inactive)
REMARK                            x       y       z     vdW  Elec       q    Type
REMARK                         _______ _______ _______ _____ _____    ______ ____
ROOT
ATOM      1  O   UNL     1      44.101  24.860  85.106  0.00  0.00    +0.000 OA
ATOM      2  O   UNL     1      46.993  27.607  88.459  0.00  0.00    +0.000 OA
ATOM      3  N   UNL     1      44.361  25.340  83.853  0.00  0.00    +0.000 N 
ATOM      4  N   UNL     1      46.876  26.520  86.419  0.00  0.00    +0.000 N 
ATOM      5  C   UNL     1      45.622  26.224  83.799  0.00  0.00    +0.000 C 
ATOM      6  C   UNL     1      46.911  25.461  84.165  0.00  0.00    +0.000 C 
ATOM      7  C   UNL     1      45.490  27.515  84.616  0.00  0.00    +0.000 C 
ATOM      8  C   UNL     1      47.049  25.238  85.698  0.00  0.00    +0.000 C 
ATOM      9  C   UNL     1      47.030  24.198  83.292  0.00  0.00    +0.000 C 
ATOM     10  C   UNL     1      45.648  27.259  86.114  0.00  0.00    +0.000 C 
ATOM     11  C   UNL     1      44.548  24.158  82.925  0.00  0.00    +0.000 C 
ATOM     12  C   UNL     1      44.200  28.273  84.276  0.00  0.00    +0.000 C 
ATOM     13  C   UNL     1      43.169  26.155  83.395  0.00  0.00    +0.000 C 
ATOM     14  C   UNL     1      45.773  23.339  83.312  0.00  0.00    +0.000 C 
ATOM     15  C   UNL     1      42.963  27.383  84.273  0.00  0.00    +0.000 C 
ATOM     16  C   UNL     1      48.389  24.563  86.032  0.00  0.00    +0.000 C 
ATOM     17  C   UNL     1      48.590  24.510  87.534  0.00  0.00    +0.000 C 
ATOM     18  C   UNL     1      47.399  26.726  87.698  0.00  0.00    +0.000 C 
ATOM     19  C   UNL     1      48.621  25.920  88.077  0.00  0.00    +0.000 C 
ENDROOT
TORSDOF 0
ENDMDL
MODEL 6
REMARK VINA RESULT:      -5.2      1.690      3.087
REMARK  Name = 
REMARK  0 active torsions:
REMARK  status: ('A' for Active; 'I' for Inactive)
REMARK                            x       y       z     vdW  Elec       q    Type
REMARK                         _______ _______ _______ _____ _____    ______ ____
ROOT
ATOM      1  O   UNL     1      62.579  32.378  71.235  0.00  0.00    +0.000 OA
ATOM      2  O   UNL     1      59.081  36.198  70.672  0.00  0.00    +0.000 OA
ATOM      3  N   UNL     1      61.977  31.371  71.937  0.00  0.00    +0.000 N 
ATOM      4  N   UNL     1      59.509  33.924  70.634  0.00  0.00    +0.000 N 
ATOM      5  C   UNL     1      60.445  31.521  72.003  0.00  0.00    +0.000 C 
ATOM      6  C   UNL     1      59.770  31.447  70.619  0.00  0.00    +0.000 C 
ATOM      7  C   UNL     1      59.993  32.766  72.776  0.00  0.00    +0.000 C 
ATOM      8  C   UNL     1      59.933  32.767  69.813  0.00  0.00    +0.000 C 
ATOM      9  C   UNL     1      60.213  30.162  69.895  0.00  0.00    +0.000 C 
ATOM     10  C   UNL     1      60.151  34.039  71.947  0.00  0.00    +0.000 C 
ATOM     11  C   UNL     1      62.315  30.059  71.262  0.00  0.00    +0.000 C 
ATOM     12  C   UNL     1      60.674  32.861  74.148  0.00  0.00    +0.000 C 
ATOM     13  C   UNL     1      62.533  31.369  73.346  0.00  0.00    +0.000 C 
ATOM     14  C   UNL     1      61.725  29.989  69.858  0.00  0.00    +0.000 C 
ATOM     15  C   UNL     1      62.182  32.654  74.085  0.00  0.00    +0.000 C 
ATOM     16  C   UNL     1      59.166  32.691  68.483  0.00  0.00    +0.000 C 
ATOM     17  C   UNL     1      59.186  34.039  67.788  0.00  0.00    +0.000 C 
ATOM     18  C   UNL     1      59.098  35.128  70.059  0.00  0.00    +0.000 C 
ATOM     19  C   UNL     1      58.503  35.058  68.671  0.00  0.00    +0.000 C 
ENDROOT
TORSDOF 0
ENDMDL
MODEL 7
REMARK VINA RESULT:      -5.1     46.840     47.860
REMARK  Name = 
REMARK  0 active torsions:
REMARK  status: ('A' for Active; 'I' for Inactive)
REMARK                            x       y       z     vdW  Elec       q    Type
REMARK                         _______ _______ _______ _____ _____    ______ ____
ROOT
ATOM      1  O   UNL     1      22.214   7.364  83.906  0.00  0.00    +0.000 OA
ATOM      2  O   UNL     1      25.718   5.002  86.954  0.00  0.00    +0.000 OA
ATOM      3  N   UNL     1      21.024   7.367  84.577  0.00  0.00    +0.000 N 
ATOM      4  N   UNL     1      23.953   6.492  86.803  0.00  0.00    +0.000 N 
ATOM      5  C   UNL     1      21.178   7.032  86.073  0.00  0.00    +0.000 C 
ATOM      6  C   UNL     1      22.025   8.068  86.839  0.00  0.00    +0.000 C 
ATOM      7  C   UNL     1      21.684   5.606  86.323  0.00  0.00    +0.000 C 
ATOM      8  C   UNL     1      23.548   7.897  86.574  0.00  0.00    +0.000 C 
ATOM      9  C   UNL     1      21.458   9.479  86.600  0.00  0.00    +0.000 C 
ATOM     10  C   UNL     1      23.186   5.481  86.068  0.00  0.00    +0.000 C 
ATOM     11  C   UNL     1      20.410   8.744  84.442  0.00  0.00    +0.000 C 
ATOM     12  C   UNL     1      20.862   4.568  85.549  0.00  0.00    +0.000 C 
ATOM     13  C   UNL     1      20.109   6.344  83.936  0.00  0.00    +0.000 C 
ATOM     14  C   UNL     1      21.268   9.803  85.124  0.00  0.00    +0.000 C 
ATOM     15  C   UNL     1      20.662   4.932  84.083  0.00  0.00    +0.000 C 
ATOM     16  C   UNL     1      24.364   8.880  87.428  0.00  0.00    +0.000 C 
ATOM     17  C   UNL     1      25.846   8.589  87.293  0.00  0.00    +0.000 C 
ATOM     18  C   UNL     1      25.271   6.142  87.104  0.00  0.00    +0.000 C 
ATOM     19  C   UNL     1      26.119   7.188  87.791  0.00  0.00    +0.000 C 
ENDROOT
TORSDOF 0
ENDMDL
MODEL 8
REMARK VINA RESULT:      -5.1     47.579     48.599
REMARK  Name = 
REMARK  0 active torsions:
REMARK  status: ('A' for Active; 'I' for Inactive)
REMARK                            x       y       z     vdW  Elec       q    Type
REMARK                         _______ _______ _______ _____ _____    ______ ____
ROOT
ATOM      1  O   UNL     1      23.661   4.884  83.998  0.00  0.00    +0.000 OA
ATOM      2  O   UNL     1      23.733   8.943  87.264  0.00  0.00    +0.000 OA
ATOM      3  N   UNL     1      23.266   3.789  84.715  0.00  0.00    +0.000 N 
ATOM      4  N   UNL     1      22.634   7.038  86.544  0.00  0.00    +0.000 N 
ATOM      5  C   UNL     1      22.647   4.156  86.077  0.00  0.00    +0.000 C 
ATOM      6  C   UNL     1      21.354   4.986  85.949  0.00  0.00    +0.000 C 
ATOM      7  C   UNL     1      23.643   4.823  87.033  0.00  0.00    +0.000 C 
ATOM      8  C   UNL     1      21.641   6.474  85.601  0.00  0.00    +0.000 C 
ATOM      9  C   UNL     1      20.363   4.261  85.019  0.00  0.00    +0.000 C 
ATOM     10  C   UNL     1      23.887   6.287  86.671  0.00  0.00    +0.000 C 
ATOM     11  C   UNL     1      22.242   3.034  83.895  0.00  0.00    +0.000 C 
ATOM     12  C   UNL     1      24.943   4.016  87.153  0.00  0.00    +0.000 C 
ATOM     13  C   UNL     1      24.475   2.905  84.946  0.00  0.00    +0.000 C 
ATOM     14  C   UNL     1      20.980   3.862  83.685  0.00  0.00    +0.000 C 
ATOM     15  C   UNL     1      25.521   3.605  85.804  0.00  0.00    +0.000 C 
ATOM     16  C   UNL     1      20.339   7.290  85.578  0.00  0.00    +0.000 C 
ATOM     17  C   UNL     1      20.646   8.766  85.412  0.00  0.00    +0.000 C 
ATOM     18  C   UNL     1      22.730   8.410  86.785  0.00  0.00    +0.000 C 
ATOM     19  C   UNL     1      21.476   9.231  86.587  0.00  0.00    +0.000 C 
ENDROOT
TORSDOF 0
ENDMDL
MODEL 9
REMARK VINA RESULT:      -4.9     34.207     35.273
REMARK  Name = 
REMARK  0 active torsions:
REMARK  status: ('A' for Active; 'I' for Inactive)
REMARK                            x       y       z     vdW  Elec       q    Type
REMARK                         _______ _______ _______ _____ _____    ______ ____
ROOT
ATOM      1  O   UNL     1      30.324  26.739  92.904  0.00  0.00    +0.000 OA
ATOM      2  O   UNL     1      29.839  27.442  87.764  0.00  0.00    +0.000 OA
ATOM      3  N   UNL     1      31.598  26.300  93.138  0.00  0.00    +0.000 N 
ATOM      4  N   UNL     1      31.153  27.697  89.652  0.00  0.00    +0.000 N 
ATOM      5  C   UNL     1      32.533  26.503  91.931  0.00  0.00    +0.000 C 
ATOM      6  C   UNL     1      32.728  27.987  91.560  0.00  0.00    +0.000 C 
ATOM      7  C   UNL     1      32.128  25.672  90.708  0.00  0.00    +0.000 C 
ATOM      8  C   UNL     1      31.504  28.568  90.796  0.00  0.00    +0.000 C 
ATOM      9  C   UNL     1      33.178  28.777  92.803  0.00  0.00    +0.000 C 
ATOM     10  C   UNL     1      30.935  26.283  89.974  0.00  0.00    +0.000 C 
ATOM     11  C   UNL     1      32.149  27.066  94.323  0.00  0.00    +0.000 C 
ATOM     12  C   UNL     1      31.912  24.197  91.069  0.00  0.00    +0.000 C 
ATOM     13  C   UNL     1      31.542  24.825  93.476  0.00  0.00    +0.000 C 
ATOM     14  C   UNL     1      32.278  28.552  94.010  0.00  0.00    +0.000 C 
ATOM     15  C   UNL     1      31.033  24.003  92.299  0.00  0.00    +0.000 C 
ATOM     16  C   UNL     1      31.774  30.016  90.358  0.00  0.00    +0.000 C 
ATOM     17  C   UNL     1      30.651  30.513  89.467  0.00  0.00    +0.000 C 
ATOM     18  C   UNL     1      30.447  28.175  88.546  0.00  0.00    +0.000 C 
ATOM     19  C   UNL     1      30.585  29.647  88.230  0.00  0.00    +0.000 C 
ENDROOT
TORSDOF 0
ENDMDL
