MODEL 1
REMARK VINA RESULT:      -4.9      0.000      0.000
REMARK  Name = 
REMARK  23 active torsions:
REMARK  status: ('A' for Active; 'I' for Inactive)
REMARK    1  A    between atoms: O_2  and  C_17
REMARK    2  A    between atoms: O_2  and  C_36
REMARK    3  A    between atoms: O_3  and  C_20
REMARK    4  A    between atoms: O_3  and  C_37
REMARK    5  A    between atoms: O_4  and  C_21
REMARK    6  A    between atoms: O_5  and  C_22
REMARK    7  A    between atoms: O_6  and  C_30
REMARK    8  A    between atoms: O_6  and  C_39
REMARK    9  A    between atoms: O_8  and  C_31
REMARK   10  A    between atoms: O_8  and  C_40
REMARK   11  A    between atoms: O_13  and  C_42
REMARK   12  A    between atoms: N_15  and  C_46
REMARK   13  A    between atoms: C_18  and  C_29
REMARK   14  A    between atoms: C_24  and  C_33
REMARK   15  A    between atoms: C_24  and  C_34
REMARK   16  A    between atoms: C_32  and  C_35
REMARK   17  A    between atoms: C_36  and  C_38
REMARK   18  A    between atoms: C_37  and  C_41
REMARK   19  A    between atoms: C_39  and  C_43
REMARK   20  A    between atoms: C_40  and  C_42
REMARK   21  A    between atoms: C_42  and  C_46
REMARK   22  A    between atoms: C_46  and  C_50
REMARK   23  A    between atoms: C_53  and  C_56
REMARK                            x       y       z     vdW  Elec       q    Type
REMARK                         _______ _______ _______ _____ _____    ______ ____
ROOT
ATOM      1  O   UNL     1      48.259  43.844  79.219  0.00  0.00    +0.000 OA
ATOM      2  O   UNL     1      45.141  39.956  74.790  0.00  0.00    +0.000 OA
ATOM      3  C   UNL     1      45.579  41.740  78.740  0.00  0.00    +0.000 C 
ATOM      4  C   UNL     1      46.919  42.184  79.395  0.00  0.00    +0.000 C 
ATOM      5  C   UNL     1      46.023  40.763  77.175  0.00  0.00    +0.000 C 
ATOM      6  C   UNL     1      47.368  43.200  78.267  0.00  0.00    +0.000 C 
ATOM      7  C   UNL     1      44.368  41.090  80.000  0.00  0.00    +0.000 C 
ATOM      8  C   UNL     1      42.641  40.324  80.139  0.00  0.00    +0.000 C 
ATOM      9  C   UNL     1      46.829  41.801  76.287  0.00  0.00    +0.000 C 
ATOM     10  C   UNL     1      47.961  42.582  77.021  0.00  0.00    +0.000 C 
ATOM     11  C   UNL     1      41.601  39.697  78.846  0.00  0.00    +0.000 C 
ATOM     12  C   UNL     1      47.264  43.469  80.248  0.00  0.00    +0.000 C 
ATOM     13  C   UNL     1      44.843  39.887  76.001  0.00  0.00    +0.000 C 
ATOM     14  C   UNL     1      42.822  38.996  81.009  0.00  0.00    +0.000 C 
ATOM     15  C   UNL     1      42.361  38.605  77.946  0.00  0.00    +0.000 C 
ATOM     16  C   UNL     1      47.095  39.628  77.451  0.00  0.00    +0.000 C 
ATOM     17  C   UNL     1      43.232  38.922  76.406  0.00  0.00    +0.000 C 
ATOM     18  C   UNL     1      42.988  37.605  80.246  0.00  0.00    +0.000 C 
ATOM     19  C   UNL     1      42.751  37.518  78.693  0.00  0.00    +0.000 C 
ATOM     20  C   UNL     1      40.377  38.945  79.573  0.00  0.00    +0.000 C 
ATOM     21  C   UNL     1      40.696  40.688  78.046  0.00  0.00    +0.000 C 
ATOM     22  C   UNL     1      43.246  36.239  78.064  0.00  0.00    +0.000 C 
ENDROOT
BRANCH   9  23
ATOM     23  O   UNL     1      45.922  42.773  75.769  0.00  0.00    +0.000 OA
ATOM     24  H   UNL     1      46.470  43.457  75.334  0.00  0.00    +0.000 HD
ENDBRANCH   9  23
BRANCH   8  25
ATOM     25  O   UNL     1      41.874  41.241  80.943  0.00  0.00    +0.000 OA
ATOM     26  H   UNL     1      42.467  41.661  81.590  0.00  0.00    +0.000 HD
ENDBRANCH   8  25
BRANCH  18  27
ATOM     27  O   UNL     1      44.341  37.120  80.484  0.00  0.00    +0.000 OA
BRANCH  27  29
ATOM     28  O   UNL     1      43.802  35.128  81.412  0.00  0.00    +0.000 OA
ATOM     29  C   UNL     1      44.489  36.144  81.417  0.00  0.00    +0.000 C 
BRANCH  29  30
ATOM     30  C   UNL     1      45.457  36.492  82.552  0.00  0.00    +0.000 C 
BRANCH  30  31
ATOM     31  O   UNL     1      46.264  35.407  83.023  0.00  0.00    +0.000 OA
ATOM     32  H   UNL     1      46.436  34.842  82.247  0.00  0.00    +0.000 HD
ENDBRANCH  30  31
BRANCH  30  33
ATOM     33  C   UNL     1      44.633  37.105  83.718  0.00  0.00    +0.000 C 
BRANCH  33  34
ATOM     34  C   UNL     1      45.529  37.925  84.636  0.00  0.00    +0.000 A 
ATOM     35  C   UNL     1      45.089  38.236  85.934  0.00  0.00    +0.000 A 
ATOM     36  C   UNL     1      46.777  38.412  84.216  0.00  0.00    +0.000 A 
ATOM     37  C   UNL     1      45.882  38.997  86.793  0.00  0.00    +0.000 A 
ATOM     38  C   UNL     1      47.570  39.171  85.078  0.00  0.00    +0.000 A 
ATOM     39  C   UNL     1      47.124  39.462  86.367  0.00  0.00    +0.000 A 
ENDBRANCH  33  34
BRANCH  33  41
ATOM     40  O   UNL     1      42.246  34.606  84.783  0.00  0.00    +0.000 OA
ATOM     41  N   UNL     1      43.939  36.049  84.466  0.00  0.00    +0.000 N 
ATOM     42  C   UNL     1      42.606  35.741  84.486  0.00  0.00    +0.000 C 
ATOM     43  H   UNL     1      44.537  35.293  84.786  0.00  0.00    +0.000 HD
BRANCH  42  44
ATOM     44  C   UNL     1      41.596  36.754  84.106  0.00  0.00    +0.000 A 
ATOM     45  C   UNL     1      40.671  36.515  83.085  0.00  0.00    +0.000 A 
ATOM     46  C   UNL     1      41.625  38.000  84.744  0.00  0.00    +0.000 A 
ATOM     47  C   UNL     1      39.740  37.498  82.747  0.00  0.00    +0.000 A 
ATOM     48  C   UNL     1      40.695  38.981  84.403  0.00  0.00    +0.000 A 
ATOM     49  C   UNL     1      39.748  38.725  83.411  0.00  0.00    +0.000 A 
ENDBRANCH  42  44
ENDBRANCH  33  41
ENDBRANCH  30  33
ENDBRANCH  29  30
ENDBRANCH  27  29
ENDBRANCH  18  27
BRANCH  17  50
ATOM     50  O   UNL     1      42.170  39.201  75.469  0.00  0.00    +0.000 OA
BRANCH  50  52
ATOM     51  O   UNL     1      41.242  37.298  74.741  0.00  0.00    +0.000 OA
ATOM     52  C   UNL     1      41.817  38.351  74.478  0.00  0.00    +0.000 C 
ATOM     53  C   UNL     1      42.229  38.695  73.079  0.00  0.00    +0.000 C 
ENDBRANCH  50  52
ENDBRANCH  17  50
BRANCH   7  54
ATOM     54  O   UNL     1      44.837  39.898  79.699  0.00  0.00    +0.000 OA
BRANCH  54  56
ATOM     55  O   UNL     1      46.347  38.943  80.618  0.00  0.00    +0.000 OA
ATOM     56  C   UNL     1      45.594  39.883  80.847  0.00  0.00    +0.000 C 
BRANCH  56  57
ATOM     57  C   UNL     1      45.194  40.910  82.412  0.00  0.00    +0.000 A 
ATOM     58  C   UNL     1      44.037  40.708  83.282  0.00  0.00    +0.000 A 
ATOM     59  C   UNL     1      46.007  41.910  83.026  0.00  0.00    +0.000 A 
ATOM     60  C   UNL     1      43.759  41.365  84.506  0.00  0.00    +0.000 A 
ATOM     61  C   UNL     1      45.745  42.583  84.253  0.00  0.00    +0.000 A 
ATOM     62  C   UNL     1      44.623  42.309  84.998  0.00  0.00    +0.000 A 
ENDBRANCH  56  57
ENDBRANCH  54  56
ENDBRANCH   7  54
BRANCH   4  63
ATOM     63  O   UNL     1      47.826  41.075  79.596  0.00  0.00    +0.000 OA
BRANCH  63  65
ATOM     64  O   UNL     1      50.032  41.436  79.638  0.00  0.00    +0.000 OA
ATOM     65  C   UNL     1      49.005  41.157  80.253  0.00  0.00    +0.000 C 
ATOM     66  C   UNL     1      49.064  40.791  81.702  0.00  0.00    +0.000 C 
ENDBRANCH  63  65
ENDBRANCH   4  63
TORSDOF 17
ENDMDL
MODEL 2
REMARK VINA RESULT:      -4.9     13.197     18.558
REMARK  Name = 
REMARK  23 active torsions:
REMARK  status: ('A' for Active; 'I' for Inactive)
REMARK    1  A    between atoms: O_2  and  C_17
REMARK    2  A    between atoms: O_2  and  C_36
REMARK    3  A    between atoms: O_3  and  C_20
REMARK    4  A    between atoms: O_3  and  C_37
REMARK    5  A    between atoms: O_4  and  C_21
REMARK    6  A    between atoms: O_5  and  C_22
REMARK    7  A    between atoms: O_6  and  C_30
REMARK    8  A    between atoms: O_6  and  C_39
REMARK    9  A    between atoms: O_8  and  C_31
REMARK   10  A    between atoms: O_8  and  C_40
REMARK   11  A    between atoms: O_13  and  C_42
REMARK   12  A    between atoms: N_15  and  C_46
REMARK   13  A    between atoms: C_18  and  C_29
REMARK   14  A    between atoms: C_24  and  C_33
REMARK   15  A    between atoms: C_24  and  C_34
REMARK   16  A    between atoms: C_32  and  C_35
REMARK   17  A    between atoms: C_36  and  C_38
REMARK   18  A    between atoms: C_37  and  C_41
REMARK   19  A    between atoms: C_39  and  C_43
REMARK   20  A    between atoms: C_40  and  C_42
REMARK   21  A    between atoms: C_42  and  C_46
REMARK   22  A    between atoms: C_46  and  C_50
REMARK   23  A    between atoms: C_53  and  C_56
REMARK                            x       y       z     vdW  Elec       q    Type
REMARK                         _______ _______ _______ _____ _____    ______ ____
ROOT
ATOM      1  O   UNL     1      47.040  27.398  85.988  0.00  0.00    +0.000 OA
ATOM      2  O   UNL     1      42.203  26.362  90.458  0.00  0.00    +0.000 OA
ATOM      3  C   UNL     1      45.186  24.987  87.597  0.00  0.00    +0.000 C 
ATOM      4  C   UNL     1      45.690  25.779  86.355  0.00  0.00    +0.000 C 
ATOM      5  C   UNL     1      43.689  25.928  88.285  0.00  0.00    +0.000 C 
ATOM      6  C   UNL     1      46.201  27.062  87.128  0.00  0.00    +0.000 C 
ATOM      7  C   UNL     1      45.139  23.150  87.281  0.00  0.00    +0.000 C 
ATOM      8  C   UNL     1      44.649  21.516  88.106  0.00  0.00    +0.000 C 
ATOM      9  C   UNL     1      44.268  27.357  88.659  0.00  0.00    +0.000 C 
ATOM     10  C   UNL     1      45.134  28.042  87.559  0.00  0.00    +0.000 C 
ATOM     11  C   UNL     1      43.724  21.264  89.598  0.00  0.00    +0.000 C 
ATOM     12  C   UNL     1      47.147  25.939  85.767  0.00  0.00    +0.000 C 
ATOM     13  C   UNL     1      42.587  25.426  89.725  0.00  0.00    +0.000 C 
ATOM     14  C   UNL     1      43.692  20.773  87.064  0.00  0.00    +0.000 C 
ATOM     15  C   UNL     1      42.317  22.037  89.566  0.00  0.00    +0.000 C 
ATOM     16  C   UNL     1      42.616  26.264  87.167  0.00  0.00    +0.000 C 
ATOM     17  C   UNL     1      41.992  23.673  90.236  0.00  0.00    +0.000 C 
ATOM     18  C   UNL     1      42.114  20.924  87.242  0.00  0.00    +0.000 C 
ATOM     19  C   UNL     1      41.520  21.594  88.535  0.00  0.00    +0.000 C 
ATOM     20  C   UNL     1      43.399  19.688  89.668  0.00  0.00    +0.000 C 
ATOM     21  C   UNL     1      44.465  21.311  90.972  0.00  0.00    +0.000 C 
ATOM     22  C   UNL     1      40.060  21.956  88.428  0.00  0.00    +0.000 C 
ENDROOT
BRANCH   9  23
ATOM     23  O   UNL     1      45.089  27.237  89.820  0.00  0.00    +0.000 OA
ATOM     24  H   UNL     1      45.075  26.291  90.071  0.00  0.00    +0.000 HD
ENDBRANCH   9  23
BRANCH   8  25
ATOM     25  O   UNL     1      45.860  20.740  88.177  0.00  0.00    +0.000 OA
ATOM     26  H   UNL     1      45.707  19.974  88.758  0.00  0.00    +0.000 HD
ENDBRANCH   8  25
BRANCH  18  27
ATOM     27  O   UNL     1      41.605  21.688  86.111  0.00  0.00    +0.000 OA
BRANCH  27  29
ATOM     28  O   UNL     1      41.580  20.406  84.246  0.00  0.00    +0.000 OA
ATOM     29  C   UNL     1      40.969  20.991  85.134  0.00  0.00    +0.000 C 
BRANCH  29  30
ATOM     30  C   UNL     1      39.443  21.132  85.145  0.00  0.00    +0.000 C 
BRANCH  30  31
ATOM     31  O   UNL     1      38.726  19.984  85.612  0.00  0.00    +0.000 OA
ATOM     32  H   UNL     1      37.988  19.853  84.987  0.00  0.00    +0.000 HD
ENDBRANCH  30  31
BRANCH  30  33
ATOM     33  C   UNL     1      38.984  21.516  83.711  0.00  0.00    +0.000 C 
BRANCH  33  34
ATOM     34  C   UNL     1      37.783  22.450  83.764  0.00  0.00    +0.000 A 
ATOM     35  C   UNL     1      37.909  23.701  84.392  0.00  0.00    +0.000 A 
ATOM     36  C   UNL     1      36.535  22.089  83.231  0.00  0.00    +0.000 A 
ATOM     37  C   UNL     1      36.822  24.574  84.468  0.00  0.00    +0.000 A 
ATOM     38  C   UNL     1      35.451  22.964  83.307  0.00  0.00    +0.000 A 
ATOM     39  C   UNL     1      35.594  24.206  83.923  0.00  0.00    +0.000 A 
ENDBRANCH  33  34
BRANCH  33  41
ATOM     40  O   UNL     1      39.108  18.819  81.305  0.00  0.00    +0.000 OA
ATOM     41  N   UNL     1      38.679  20.310  82.930  0.00  0.00    +0.000 N 
ATOM     42  C   UNL     1      39.050  19.995  81.652  0.00  0.00    +0.000 C 
ATOM     43  H   UNL     1      38.400  19.505  83.484  0.00  0.00    +0.000 HD
BRANCH  42  44
ATOM     44  C   UNL     1      39.429  21.060  80.696  0.00  0.00    +0.000 A 
ATOM     45  C   UNL     1      38.531  22.069  80.336  0.00  0.00    +0.000 A 
ATOM     46  C   UNL     1      40.692  21.001  80.095  0.00  0.00    +0.000 A 
ATOM     47  C   UNL     1      38.919  23.052  79.423  0.00  0.00    +0.000 A 
ATOM     48  C   UNL     1      41.076  21.982  79.181  0.00  0.00    +0.000 A 
ATOM     49  C   UNL     1      40.193  23.011  78.854  0.00  0.00    +0.000 A 
ENDBRANCH  42  44
ENDBRANCH  33  41
ENDBRANCH  30  33
ENDBRANCH  29  30
ENDBRANCH  27  29
ENDBRANCH  18  27
BRANCH  17  50
ATOM     50  O   UNL     1      42.037  23.468  91.664  0.00  0.00    +0.000 OA
BRANCH  50  52
ATOM     51  O   UNL     1      39.956  24.205  92.031  0.00  0.00    +0.000 OA
ATOM     52  C   UNL     1      40.981  23.698  92.477  0.00  0.00    +0.000 C 
ATOM     53  C   UNL     1      41.141  23.397  93.937  0.00  0.00    +0.000 C 
ENDBRANCH  50  52
ENDBRANCH  17  50
BRANCH   7  54
ATOM     54  O   UNL     1      43.874  23.331  86.963  0.00  0.00    +0.000 OA
BRANCH  54  56
ATOM     55  O   UNL     1      45.344  22.819  85.692  0.00  0.00    +0.000 OA
ATOM     56  C   UNL     1      44.159  23.131  85.633  0.00  0.00    +0.000 C 
BRANCH  56  57
ATOM     57  C   UNL     1      42.983  23.603  84.198  0.00  0.00    +0.000 A 
ATOM     58  C   UNL     1      41.741  24.360  84.339  0.00  0.00    +0.000 A 
ATOM     59  C   UNL     1      43.199  23.411  82.800  0.00  0.00    +0.000 A 
ATOM     60  C   UNL     1      40.900  24.828  83.299  0.00  0.00    +0.000 A 
ATOM     61  C   UNL     1      42.365  23.872  81.741  0.00  0.00    +0.000 A 
ATOM     62  C   UNL     1      41.216  24.584  81.988  0.00  0.00    +0.000 A 
ENDBRANCH  56  57
ENDBRANCH  54  56
ENDBRANCH   7  54
BRANCH   4  63
ATOM     63  O   UNL     1      44.631  26.037  85.403  0.00  0.00    +0.000 OA
BRANCH  63  65
ATOM     64  O   UNL     1      45.500  25.923  83.346  0.00  0.00    +0.000 OA
ATOM     65  C   UNL     1      44.821  26.542  84.163  0.00  0.00    +0.000 C 
ATOM     66  C   UNL     1      44.300  27.906  83.838  0.00  0.00    +0.000 C 
ENDBRANCH  63  65
ENDBRANCH   4  63
TORSDOF 17
ENDMDL
MODEL 3
REMARK VINA RESULT:      -4.7     16.472     21.150
REMARK  Name = 
REMARK  23 active torsions:
REMARK  status: ('A' for Active; 'I' for Inactive)
REMARK    1  A    between atoms: O_2  and  C_17
REMARK    2  A    between atoms: O_2  and  C_36
REMARK    3  A    between atoms: O_3  and  C_20
REMARK    4  A    between atoms: O_3  and  C_37
REMARK    5  A    between atoms: O_4  and  C_21
REMARK    6  A    between atoms: O_5  and  C_22
REMARK    7  A    between atoms: O_6  and  C_30
REMARK    8  A    between atoms: O_6  and  C_39
REMARK    9  A    between atoms: O_8  and  C_31
REMARK   10  A    between atoms: O_8  and  C_40
REMARK   11  A    between atoms: O_13  and  C_42
REMARK   12  A    between atoms: N_15  and  C_46
REMARK   13  A    between atoms: C_18  and  C_29
REMARK   14  A    between atoms: C_24  and  C_33
REMARK   15  A    between atoms: C_24  and  C_34
REMARK   16  A    between atoms: C_32  and  C_35
REMARK   17  A    between atoms: C_36  and  C_38
REMARK   18  A    between atoms: C_37  and  C_41
REMARK   19  A    between atoms: C_39  and  C_43
REMARK   20  A    between atoms: C_40  and  C_42
REMARK   21  A    between atoms: C_42  and  C_46
REMARK   22  A    between atoms: C_46  and  C_50
REMARK   23  A    between atoms: C_53  and  C_56
REMARK                            x       y       z     vdW  Elec       q    Type
REMARK                         _______ _______ _______ _____ _____    ______ ____
ROOT
ATOM      1  O   UNL     1      40.169  19.908  76.312  0.00  0.00    +0.000 OA
ATOM      2  O   UNL     1      40.744  24.729  80.882  0.00  0.00    +0.000 OA
ATOM      3  C   UNL     1      39.861  20.642  79.660  0.00  0.00    +0.000 C 
ATOM      4  C   UNL     1      39.336  20.202  78.262  0.00  0.00    +0.000 C 
ATOM      5  C   UNL     1      39.766  22.536  79.717  0.00  0.00    +0.000 C 
ATOM      6  C   UNL     1      40.524  20.802  77.403  0.00  0.00    +0.000 C 
ATOM      7  C   UNL     1      39.176  19.576  81.028  0.00  0.00    +0.000 C 
ATOM      8  C   UNL     1      39.190  19.394  82.913  0.00  0.00    +0.000 C 
ATOM      9  C   UNL     1      40.707  23.007  78.531  0.00  0.00    +0.000 C 
ATOM     10  C   UNL     1      40.478  22.294  77.164  0.00  0.00    +0.000 C 
ATOM     11  C   UNL     1      39.793  20.535  84.131  0.00  0.00    +0.000 C 
ATOM     12  C   UNL     1      39.731  18.964  77.364  0.00  0.00    +0.000 C 
ATOM     13  C   UNL     1      40.172  23.656  81.173  0.00  0.00    +0.000 C 
ATOM     14  C   UNL     1      37.657  19.313  83.354  0.00  0.00    +0.000 C 
ATOM     15  C   UNL     1      39.142  21.992  83.958  0.00  0.00    +0.000 C 
ATOM     16  C   UNL     1      38.345  23.087  79.281  0.00  0.00    +0.000 C 
ATOM     17  C   UNL     1      39.852  23.368  83.045  0.00  0.00    +0.000 C 
ATOM     18  C   UNL     1      36.937  20.649  83.846  0.00  0.00    +0.000 C 
ATOM     19  C   UNL     1      37.774  21.955  84.104  0.00  0.00    +0.000 C 
ATOM     20  C   UNL     1      39.316  19.966  85.560  0.00  0.00    +0.000 C 
ATOM     21  C   UNL     1      41.315  20.536  84.487  0.00  0.00    +0.000 C 
ATOM     22  C   UNL     1      36.942  23.204  84.251  0.00  0.00    +0.000 C 
ENDROOT
BRANCH   9  23
ATOM     23  O   UNL     1      42.068  22.776  78.896  0.00  0.00    +0.000 OA
ATOM     24  H   UNL     1      42.374  23.590  79.345  0.00  0.00    +0.000 HD
ENDBRANCH   9  23
BRANCH   8  25
ATOM     25  O   UNL     1      39.762  18.098  83.173  0.00  0.00    +0.000 OA
ATOM     26  H   UNL     1      40.556  18.211  83.724  0.00  0.00    +0.000 HD
ENDBRANCH   8  25
BRANCH  18  27
ATOM     27  O   UNL     1      35.920  20.999  82.863  0.00  0.00    +0.000 OA
BRANCH  27  29
ATOM     28  O   UNL     1      34.306  19.473  83.294  0.00  0.00    +0.000 OA
ATOM     29  C   UNL     1      34.641  20.644  83.148  0.00  0.00    +0.000 C 
BRANCH  29  30
ATOM     30  C   UNL     1      33.637  21.800  83.111  0.00  0.00    +0.000 C 
BRANCH  30  31
ATOM     31  O   UNL     1      33.365  22.417  84.375  0.00  0.00    +0.000 OA
ATOM     32  H   UNL     1      33.724  23.322  84.316  0.00  0.00    +0.000 HD
ENDBRANCH  30  31
BRANCH  30  33
ATOM     33  C   UNL     1      32.323  21.278  82.465  0.00  0.00    +0.000 C 
BRANCH  33  34
ATOM     34  C   UNL     1      31.570  22.414  81.788  0.00  0.00    +0.000 A 
ATOM     35  C   UNL     1      32.265  23.576  81.411  0.00  0.00    +0.000 A 
ATOM     36  C   UNL     1      30.187  22.354  81.552  0.00  0.00    +0.000 A 
ATOM     37  C   UNL     1      31.600  24.640  80.800  0.00  0.00    +0.000 A 
ATOM     38  C   UNL     1      29.524  23.418  80.939  0.00  0.00    +0.000 A 
ATOM     39  C   UNL     1      30.230  24.559  80.561  0.00  0.00    +0.000 A 
ENDBRANCH  33  34
BRANCH  33  41
ATOM     40  O   UNL     1      30.734  18.810  84.578  0.00  0.00    +0.000 OA
ATOM     41  N   UNL     1      31.484  20.618  83.474  0.00  0.00    +0.000 N 
ATOM     42  C   UNL     1      31.028  19.328  83.505  0.00  0.00    +0.000 C 
ATOM     43  H   UNL     1      31.467  21.078  84.379  0.00  0.00    +0.000 HD
BRANCH  42  44
ATOM     44  C   UNL     1      30.933  18.536  82.258  0.00  0.00    +0.000 A 
ATOM     45  C   UNL     1      31.886  17.565  81.936  0.00  0.00    +0.000 A 
ATOM     46  C   UNL     1      29.900  18.826  81.359  0.00  0.00    +0.000 A 
ATOM     47  C   UNL     1      31.769  16.844  80.746  0.00  0.00    +0.000 A 
ATOM     48  C   UNL     1      29.787  18.106  80.170  0.00  0.00    +0.000 A 
ATOM     49  C   UNL     1      30.716  17.110  79.870  0.00  0.00    +0.000 A 
ENDBRANCH  42  44
ENDBRANCH  33  41
ENDBRANCH  30  33
ENDBRANCH  29  30
ENDBRANCH  27  29
ENDBRANCH  18  27
BRANCH  17  50
ATOM     50  O   UNL     1      40.965  23.779  83.867  0.00  0.00    +0.000 OA
BRANCH  50  52
ATOM     51  O   UNL     1      40.110  25.234  85.338  0.00  0.00    +0.000 OA
ATOM     52  C   UNL     1      40.996  24.955  84.535  0.00  0.00    +0.000 C 
ATOM     53  C   UNL     1      42.085  25.927  84.194  0.00  0.00    +0.000 C 
ENDBRANCH  50  52
ENDBRANCH  17  50
BRANCH   7  54
ATOM     54  O   UNL     1      38.247  20.499  81.156  0.00  0.00    +0.000 OA
BRANCH  54  56
ATOM     55  O   UNL     1      37.950  18.615  80.528  0.00  0.00    +0.000 OA
ATOM     56  C   UNL     1      37.301  19.650  80.633  0.00  0.00    +0.000 C 
BRANCH  56  57
ATOM     57  C   UNL     1      35.590  20.213  79.985  0.00  0.00    +0.000 A 
ATOM     58  C   UNL     1      35.259  21.565  79.542  0.00  0.00    +0.000 A 
ATOM     59  C   UNL     1      34.450  19.396  79.718  0.00  0.00    +0.000 A 
ATOM     60  C   UNL     1      34.046  22.002  78.952  0.00  0.00    +0.000 A 
ATOM     61  C   UNL     1      33.224  19.815  79.129  0.00  0.00    +0.000 A 
ATOM     62  C   UNL     1      33.020  21.117  78.742  0.00  0.00    +0.000 A 
ENDBRANCH  56  57
ENDBRANCH  54  56
ENDBRANCH   7  54
BRANCH   4  63
ATOM     63  O   UNL     1      38.038  20.767  77.961  0.00  0.00    +0.000 OA
BRANCH  63  65
ATOM     64  O   UNL     1      37.303  21.381  75.940  0.00  0.00    +0.000 OA
ATOM     65  C   UNL     1      37.343  20.528  76.825  0.00  0.00    +0.000 C 
ATOM     66  C   UNL     1      36.533  19.277  76.709  0.00  0.00    +0.000 C 
ENDBRANCH  63  65
ENDBRANCH   4  63
TORSDOF 17
ENDMDL
MODEL 4
REMARK VINA RESULT:      -4.7     14.146     19.016
REMARK  Name = 
REMARK  23 active torsions:
REMARK  status: ('A' for Active; 'I' for Inactive)
REMARK    1  A    between atoms: O_2  and  C_17
REMARK    2  A    between atoms: O_2  and  C_36
REMARK    3  A    between atoms: O_3  and  C_20
REMARK    4  A    between atoms: O_3  and  C_37
REMARK    5  A    between atoms: O_4  and  C_21
REMARK    6  A    between atoms: O_5  and  C_22
REMARK    7  A    between atoms: O_6  and  C_30
REMARK    8  A    between atoms: O_6  and  C_39
REMARK    9  A    between atoms: O_8  and  C_31
REMARK   10  A    between atoms: O_8  and  C_40
REMARK   11  A    between atoms: O_13  and  C_42
REMARK   12  A    between atoms: N_15  and  C_46
REMARK   13  A    between atoms: C_18  and  C_29
REMARK   14  A    between atoms: C_24  and  C_33
REMARK   15  A    between atoms: C_24  and  C_34
REMARK   16  A    between atoms: C_32  and  C_35
REMARK   17  A    between atoms: C_36  and  C_38
REMARK   18  A    between atoms: C_37  and  C_41
REMARK   19  A    between atoms: C_39  and  C_43
REMARK   20  A    between atoms: C_40  and  C_42
REMARK   21  A    between atoms: C_42  and  C_46
REMARK   22  A    between atoms: C_46  and  C_50
REMARK   23  A    between atoms: C_53  and  C_56
REMARK                            x       y       z     vdW  Elec       q    Type
REMARK                         _______ _______ _______ _____ _____    ______ ____
ROOT
ATOM      1  O   UNL     1      50.097  23.282  86.065  0.00  0.00    +0.000 OA
ATOM      2  O   UNL     1      45.342  20.475  89.803  0.00  0.00    +0.000 OA
ATOM      3  C   UNL     1      47.047  21.690  85.983  0.00  0.00    +0.000 C 
ATOM      4  C   UNL     1      48.015  22.888  85.757  0.00  0.00    +0.000 C 
ATOM      5  C   UNL     1      46.398  21.829  87.760  0.00  0.00    +0.000 C 
ATOM      6  C   UNL     1      49.151  22.420  86.756  0.00  0.00    +0.000 C 
ATOM      7  C   UNL     1      45.906  21.433  84.530  0.00  0.00    +0.000 C 
ATOM      8  C   UNL     1      44.461  20.352  83.954  0.00  0.00    +0.000 C 
ATOM      9  C   UNL     1      47.703  21.742  88.657  0.00  0.00    +0.000 C 
ATOM     10  C   UNL     1      48.882  22.665  88.223  0.00  0.00    +0.000 C 
ATOM     11  C   UNL     1      43.474  19.226  84.904  0.00  0.00    +0.000 C 
ATOM     12  C   UNL     1      49.302  23.006  84.848  0.00  0.00    +0.000 C 
ATOM     13  C   UNL     1      45.122  20.730  88.599  0.00  0.00    +0.000 C 
ATOM     14  C   UNL     1      43.325  21.366  83.469  0.00  0.00    +0.000 C 
ATOM     15  C   UNL     1      42.843  19.932  86.200  0.00  0.00    +0.000 C 
ATOM     16  C   UNL     1      45.837  23.274  88.091  0.00  0.00    +0.000 C 
ATOM     17  C   UNL     1      43.543  19.927  87.855  0.00  0.00    +0.000 C 
ATOM     18  C   UNL     1      42.163  21.749  84.492  0.00  0.00    +0.000 C 
ATOM     19  C   UNL     1      42.017  20.977  85.855  0.00  0.00    +0.000 C 
ATOM     20  C   UNL     1      42.247  18.788  83.956  0.00  0.00    +0.000 C 
ATOM     21  C   UNL     1      43.990  17.769  85.138  0.00  0.00    +0.000 C 
ATOM     22  C   UNL     1      41.096  21.643  86.847  0.00  0.00    +0.000 C 
ENDROOT
BRANCH   9  23
ATOM     23  O   UNL     1      48.195  20.403  88.635  0.00  0.00    +0.000 OA
ATOM     24  H   UNL     1      47.409  19.822  88.572  0.00  0.00    +0.000 HD
ENDBRANCH   9  23
BRANCH   8  25
ATOM     25  O   UNL     1      44.934  19.670  82.776  0.00  0.00    +0.000 OA
ATOM     26  H   UNL     1      45.606  19.018  83.041  0.00  0.00    +0.000 HD
ENDBRANCH   8  25
BRANCH  18  27
ATOM     27  O   UNL     1      42.311  23.159  84.832  0.00  0.00    +0.000 OA
BRANCH  27  29
ATOM     28  O   UNL     1      40.735  24.724  85.268  0.00  0.00    +0.000 OA
ATOM     29  C   UNL     1      41.300  23.988  84.465  0.00  0.00    +0.000 C 
BRANCH  29  30
ATOM     30  C   UNL     1      40.824  23.808  83.020  0.00  0.00    +0.000 C 
BRANCH  30  31
ATOM     31  O   UNL     1      40.640  25.021  82.281  0.00  0.00    +0.000 OA
ATOM     32  H   UNL     1      41.175  25.698  82.735  0.00  0.00    +0.000 HD
ENDBRANCH  30  31
BRANCH  30  33
ATOM     33  C   UNL     1      39.510  22.980  83.044  0.00  0.00    +0.000 C 
BRANCH  33  34
ATOM     34  C   UNL     1      39.366  22.164  81.767  0.00  0.00    +0.000 A 
ATOM     35  C   UNL     1      38.309  22.444  80.883  0.00  0.00    +0.000 A 
ATOM     36  C   UNL     1      40.241  21.112  81.453  0.00  0.00    +0.000 A 
ATOM     37  C   UNL     1      38.144  21.705  79.711  0.00  0.00    +0.000 A 
ATOM     38  C   UNL     1      40.075  20.375  80.279  0.00  0.00    +0.000 A 
ATOM     39  C   UNL     1      39.029  20.673  79.408  0.00  0.00    +0.000 A 
ENDBRANCH  33  34
BRANCH  33  41
ATOM     40  O   UNL     1      36.807  24.882  84.513  0.00  0.00    +0.000 OA
ATOM     41  N   UNL     1      38.351  23.861  83.239  0.00  0.00    +0.000 N 
ATOM     42  C   UNL     1      37.424  23.855  84.244  0.00  0.00    +0.000 C 
ATOM     43  H   UNL     1      38.397  24.740  82.731  0.00  0.00    +0.000 HD
BRANCH  42  44
ATOM     44  C   UNL     1      37.190  22.630  85.043  0.00  0.00    +0.000 A 
ATOM     45  C   UNL     1      36.489  21.540  84.518  0.00  0.00    +0.000 A 
ATOM     46  C   UNL     1      37.626  22.606  86.373  0.00  0.00    +0.000 A 
ATOM     47  C   UNL     1      36.279  20.406  85.304  0.00  0.00    +0.000 A 
ATOM     48  C   UNL     1      37.412  21.473  87.156  0.00  0.00    +0.000 A 
ATOM     49  C   UNL     1      36.747  20.370  86.618  0.00  0.00    +0.000 A 
ENDBRANCH  42  44
ENDBRANCH  33  41
ENDBRANCH  30  33
ENDBRANCH  29  30
ENDBRANCH  27  29
ENDBRANCH  18  27
BRANCH  17  50
ATOM     50  O   UNL     1      43.353  18.566  88.298  0.00  0.00    +0.000 OA
BRANCH  50  52
ATOM     51  O   UNL     1      43.002  17.755  90.354  0.00  0.00    +0.000 OA
ATOM     52  C   UNL     1      42.537  18.230  89.323  0.00  0.00    +0.000 C 
ATOM     53  C   UNL     1      41.059  18.375  89.118  0.00  0.00    +0.000 C 
ENDBRANCH  50  52
ENDBRANCH  17  50
BRANCH   7  54
ATOM     54  O   UNL     1      45.044  22.173  85.196  0.00  0.00    +0.000 OA
BRANCH  54  56
ATOM     55  O   UNL     1      45.947  22.678  83.474  0.00  0.00    +0.000 OA
ATOM     56  C   UNL     1      45.188  23.194  84.286  0.00  0.00    +0.000 C 
BRANCH  56  57
ATOM     57  C   UNL     1      44.567  24.983  84.570  0.00  0.00    +0.000 A 
ATOM     58  C   UNL     1      44.150  25.908  83.519  0.00  0.00    +0.000 A 
ATOM     59  C   UNL     1      44.298  25.620  85.819  0.00  0.00    +0.000 A 
ATOM     60  C   UNL     1      43.581  27.195  83.687  0.00  0.00    +0.000 A 
ATOM     61  C   UNL     1      43.729  26.912  86.008  0.00  0.00    +0.000 A 
ATOM     62  C   UNL     1      43.366  27.701  84.943  0.00  0.00    +0.000 A 
ENDBRANCH  56  57
ENDBRANCH  54  56
ENDBRANCH   7  54
BRANCH   4  63
ATOM     63  O   UNL     1      47.407  24.156  86.097  0.00  0.00    +0.000 OA
BRANCH  63  65
ATOM     64  O   UNL     1      47.881  25.616  84.470  0.00  0.00    +0.000 OA
ATOM     65  C   UNL     1      47.856  25.360  85.672  0.00  0.00    +0.000 C 
ATOM     66  C   UNL     1      48.428  26.321  86.665  0.00  0.00    +0.000 C 
ENDBRANCH  63  65
ENDBRANCH   4  63
TORSDOF 17
ENDMDL
MODEL 5
REMARK VINA RESULT:      -4.7     14.113     18.977
REMARK  Name = 
REMARK  23 active torsions:
REMARK  status: ('A' for Active; 'I' for Inactive)
REMARK    1  A    between atoms: O_2  and  C_17
REMARK    2  A    between atoms: O_2  and  C_36
REMARK    3  A    between atoms: O_3  and  C_20
REMARK    4  A    between atoms: O_3  and  C_37
REMARK    5  A    between atoms: O_4  and  C_21
REMARK    6  A    between atoms: O_5  and  C_22
REMARK    7  A    between atoms: O_6  and  C_30
REMARK    8  A    between atoms: O_6  and  C_39
REMARK    9  A    between atoms: O_8  and  C_31
REMARK   10  A    between atoms: O_8  and  C_40
REMARK   11  A    between atoms: O_13  and  C_42
REMARK   12  A    between atoms: N_15  and  C_46
REMARK   13  A    between atoms: C_18  and  C_29
REMARK   14  A    between atoms: C_24  and  C_33
REMARK   15  A    between atoms: C_24  and  C_34
REMARK   16  A    between atoms: C_32  and  C_35
REMARK   17  A    between atoms: C_36  and  C_38
REMARK   18  A    between atoms: C_37  and  C_41
REMARK   19  A    between atoms: C_39  and  C_43
REMARK   20  A    between atoms: C_40  and  C_42
REMARK   21  A    between atoms: C_42  and  C_46
REMARK   22  A    between atoms: C_46  and  C_50
REMARK   23  A    between atoms: C_53  and  C_56
REMARK                            x       y       z     vdW  Elec       q    Type
REMARK                         _______ _______ _______ _____ _____    ______ ____
ROOT
ATOM      1  O   UNL     1      43.612  28.678  84.698  0.00  0.00    +0.000 OA
ATOM      2  O   UNL     1      48.139  24.705  87.559  0.00  0.00    +0.000 OA
ATOM      3  C   UNL     1      44.568  25.405  85.163  0.00  0.00    +0.000 C 
ATOM      4  C   UNL     1      43.607  26.622  85.296  0.00  0.00    +0.000 C 
ATOM      5  C   UNL     1      45.750  25.468  86.646  0.00  0.00    +0.000 C 
ATOM      6  C   UNL     1      44.683  27.757  85.046  0.00  0.00    +0.000 C 
ATOM      7  C   UNL     1      43.659  23.847  84.690  0.00  0.00    +0.000 C 
ATOM      8  C   UNL     1      43.945  22.000  84.381  0.00  0.00    +0.000 C 
ATOM      9  C   UNL     1      46.494  26.860  86.489  0.00  0.00    +0.000 C 
ATOM     10  C   UNL     1      45.575  28.090  86.220  0.00  0.00    +0.000 C 
ATOM     11  C   UNL     1      45.384  21.028  84.741  0.00  0.00    +0.000 C 
ATOM     12  C   UNL     1      42.896  27.490  84.183  0.00  0.00    +0.000 C 
ATOM     13  C   UNL     1      47.083  24.220  87.099  0.00  0.00    +0.000 C 
ATOM     14  C   UNL     1      42.869  21.237  85.282  0.00  0.00    +0.000 C 
ATOM     15  C   UNL     1      45.827  21.164  86.278  0.00  0.00    +0.000 C 
ATOM     16  C   UNL     1      44.987  25.630  88.026  0.00  0.00    +0.000 C 
ATOM     17  C   UNL     1      47.052  22.306  86.930  0.00  0.00    +0.000 C 
ATOM     18  C   UNL     1      43.322  20.702  86.715  0.00  0.00    +0.000 C 
ATOM     19  C   UNL     1      44.839  20.726  87.130  0.00  0.00    +0.000 C 
ATOM     20  C   UNL     1      44.964  19.491  84.502  0.00  0.00    +0.000 C 
ATOM     21  C   UNL     1      46.566  21.006  83.718  0.00  0.00    +0.000 C 
ATOM     22  C   UNL     1      45.082  20.498  88.601  0.00  0.00    +0.000 C 
ENDROOT
BRANCH   9  23
ATOM     23  O   UNL     1      47.409  26.778  85.397  0.00  0.00    +0.000 OA
ATOM     24  H   UNL     1      46.954  27.174  84.626  0.00  0.00    +0.000 HD
ENDBRANCH   9  23
BRANCH   8  25
ATOM     25  O   UNL     1      43.567  21.774  83.010  0.00  0.00    +0.000 OA
ATOM     26  H   UNL     1      43.419  22.635  82.580  0.00  0.00    +0.000 HD
ENDBRANCH   8  25
BRANCH  18  27
ATOM     27  O   UNL     1      42.607  21.469  87.728  0.00  0.00    +0.000 OA
BRANCH  27  29
ATOM     28  O   UNL     1      41.569  19.823  88.884  0.00  0.00    +0.000 OA
ATOM     29  C   UNL     1      41.509  20.887  88.276  0.00  0.00    +0.000 C 
BRANCH  29  30
ATOM     30  C   UNL     1      40.186  21.580  87.936  0.00  0.00    +0.000 C 
BRANCH  30  31
ATOM     31  O   UNL     1      39.788  22.617  88.841  0.00  0.00    +0.000 OA
ATOM     32  H   UNL     1      38.818  22.549  88.920  0.00  0.00    +0.000 HD
ENDBRANCH  30  31
BRANCH  30  33
ATOM     33  C   UNL     1      39.082  20.492  87.836  0.00  0.00    +0.000 C 
BRANCH  33  34
ATOM     34  C   UNL     1      38.032  20.886  86.807  0.00  0.00    +0.000 A 
ATOM     35  C   UNL     1      37.267  22.047  87.011  0.00  0.00    +0.000 A 
ATOM     36  C   UNL     1      37.776  20.106  85.668  0.00  0.00    +0.000 A 
ATOM     37  C   UNL     1      36.287  22.427  86.092  0.00  0.00    +0.000 A 
ATOM     38  C   UNL     1      36.797  20.488  84.750  0.00  0.00    +0.000 A 
ATOM     39  C   UNL     1      36.055  21.649  84.961  0.00  0.00    +0.000 A 
ENDBRANCH  33  34
BRANCH  33  41
ATOM     40  O   UNL     1      37.833  18.939  90.854  0.00  0.00    +0.000 OA
ATOM     41  N   UNL     1      38.470  20.259  89.151  0.00  0.00    +0.000 N 
ATOM     42  C   UNL     1      37.890  19.121  89.642  0.00  0.00    +0.000 C 
ATOM     43  H   UNL     1      38.750  20.918  89.871  0.00  0.00    +0.000 HD
BRANCH  42  44
ATOM     44  C   UNL     1      37.373  18.085  88.720  0.00  0.00    +0.000 A 
ATOM     45  C   UNL     1      38.191  17.054  88.248  0.00  0.00    +0.000 A 
ATOM     46  C   UNL     1      36.053  18.194  88.265  0.00  0.00    +0.000 A 
ATOM     47  C   UNL     1      37.671  16.100  87.372  0.00  0.00    +0.000 A 
ATOM     48  C   UNL     1      35.537  17.241  87.387  0.00  0.00    +0.000 A 
ATOM     49  C   UNL     1      36.344  16.190  86.949  0.00  0.00    +0.000 A 
ENDBRANCH  42  44
ENDBRANCH  33  41
ENDBRANCH  30  33
ENDBRANCH  29  30
ENDBRANCH  27  29
ENDBRANCH  18  27
BRANCH  17  50
ATOM     50  O   UNL     1      48.303  21.774  86.442  0.00  0.00    +0.000 OA
BRANCH  50  52
ATOM     51  O   UNL     1      50.428  21.725  87.144  0.00  0.00    +0.000 OA
ATOM     52  C   UNL     1      49.277  21.313  87.258  0.00  0.00    +0.000 C 
ATOM     53  C   UNL     1      48.921  20.229  88.232  0.00  0.00    +0.000 C 
ENDBRANCH  50  52
ENDBRANCH  17  50
BRANCH   7  54
ATOM     54  O   UNL     1      43.615  23.591  85.980  0.00  0.00    +0.000 OA
BRANCH  54  56
ATOM     55  O   UNL     1      42.140  24.132  87.233  0.00  0.00    +0.000 OA
ATOM     56  C   UNL     1      42.291  23.959  86.028  0.00  0.00    +0.000 C 
BRANCH  56  57
ATOM     57  C   UNL     1      41.086  23.835  84.546  0.00  0.00    +0.000 A 
ATOM     58  C   UNL     1      41.251  24.517  83.264  0.00  0.00    +0.000 A 
ATOM     59  C   UNL     1      39.949  22.981  84.421  0.00  0.00    +0.000 A 
ATOM     60  C   UNL     1      40.450  24.368  82.105  0.00  0.00    +0.000 A 
ATOM     61  C   UNL     1      39.131  22.820  83.267  0.00  0.00    +0.000 A 
ATOM     62  C   UNL     1      39.381  23.510  82.105  0.00  0.00    +0.000 A 
ENDBRANCH  56  57
ENDBRANCH  54  56
ENDBRANCH   7  54
BRANCH   4  63
ATOM     63  O   UNL     1      42.969  26.680  86.593  0.00  0.00    +0.000 OA
BRANCH  63  65
ATOM     64  O   UNL     1      40.808  27.164  86.286  0.00  0.00    +0.000 OA
ATOM     65  C   UNL     1      41.862  27.404  86.872  0.00  0.00    +0.000 C 
ATOM     66  C   UNL     1      41.962  28.568  87.806  0.00  0.00    +0.000 C 
ENDBRANCH  63  65
ENDBRANCH   4  63
TORSDOF 17
ENDMDL
MODEL 6
REMARK VINA RESULT:      -4.7     14.038     18.889
REMARK  Name = 
REMARK  23 active torsions:
REMARK  status: ('A' for Active; 'I' for Inactive)
REMARK    1  A    between atoms: O_2  and  C_17
REMARK    2  A    between atoms: O_2  and  C_36
REMARK    3  A    between atoms: O_3  and  C_20
REMARK    4  A    between atoms: O_3  and  C_37
REMARK    5  A    between atoms: O_4  and  C_21
REMARK    6  A    between atoms: O_5  and  C_22
REMARK    7  A    between atoms: O_6  and  C_30
REMARK    8  A    between atoms: O_6  and  C_39
REMARK    9  A    between atoms: O_8  and  C_31
REMARK   10  A    between atoms: O_8  and  C_40
REMARK   11  A    between atoms: O_13  and  C_42
REMARK   12  A    between atoms: N_15  and  C_46
REMARK   13  A    between atoms: C_18  and  C_29
REMARK   14  A    between atoms: C_24  and  C_33
REMARK   15  A    between atoms: C_24  and  C_34
REMARK   16  A    between atoms: C_32  and  C_35
REMARK   17  A    between atoms: C_36  and  C_38
REMARK   18  A    between atoms: C_37  and  C_41
REMARK   19  A    between atoms: C_39  and  C_43
REMARK   20  A    between atoms: C_40  and  C_42
REMARK   21  A    between atoms: C_42  and  C_46
REMARK   22  A    between atoms: C_46  and  C_50
REMARK   23  A    between atoms: C_53  and  C_56
REMARK                            x       y       z     vdW  Elec       q    Type
REMARK                         _______ _______ _______ _____ _____    ______ ____
ROOT
ATOM      1  O   UNL     1      49.635  18.872  86.541  0.00  0.00    +0.000 OA
ATOM      2  O   UNL     1      48.440  24.957  84.092  0.00  0.00    +0.000 OA
ATOM      3  C   UNL     1      47.455  21.534  86.599  0.00  0.00    +0.000 C 
ATOM      4  C   UNL     1      47.866  20.057  86.327  0.00  0.00    +0.000 C 
ATOM      5  C   UNL     1      47.884  22.525  85.040  0.00  0.00    +0.000 C 
ATOM      6  C   UNL     1      49.431  20.288  86.280  0.00  0.00    +0.000 C 
ATOM      7  C   UNL     1      45.784  21.653  87.418  0.00  0.00    +0.000 C 
ATOM      8  C   UNL     1      44.521  22.925  88.031  0.00  0.00    +0.000 C 
ATOM      9  C   UNL     1      49.452  22.341  84.883  0.00  0.00    +0.000 C 
ATOM     10  C   UNL     1      49.974  20.877  84.998  0.00  0.00    +0.000 C 
ATOM     11  C   UNL     1      44.481  24.674  87.739  0.00  0.00    +0.000 C 
ATOM     12  C   UNL     1      48.378  18.938  87.318  0.00  0.00    +0.000 C 
ATOM     13  C   UNL     1      47.544  24.347  84.715  0.00  0.00    +0.000 C 
ATOM     14  C   UNL     1      43.127  22.507  87.372  0.00  0.00    +0.000 C 
ATOM     15  C   UNL     1      44.542  25.018  86.172  0.00  0.00    +0.000 C 
ATOM     16  C   UNL     1      47.317  21.857  83.719  0.00  0.00    +0.000 C 
ATOM     17  C   UNL     1      46.023  25.402  85.229  0.00  0.00    +0.000 C 
ATOM     18  C   UNL     1      42.675  23.237  86.027  0.00  0.00    +0.000 C 
ATOM     19  C   UNL     1      43.469  24.486  85.495  0.00  0.00    +0.000 C 
ATOM     20  C   UNL     1      43.057  25.192  88.284  0.00  0.00    +0.000 C 
ATOM     21  C   UNL     1      45.328  25.619  88.651  0.00  0.00    +0.000 C 
ATOM     22  C   UNL     1      43.136  24.871  84.075  0.00  0.00    +0.000 C 
ENDROOT
BRANCH   9  23
ATOM     23  O   UNL     1      50.113  23.099  85.895  0.00  0.00    +0.000 OA
ATOM     24  H   UNL     1      49.753  24.007  85.838  0.00  0.00    +0.000 HD
ENDBRANCH   9  23
BRANCH   8  25
ATOM     25  O   UNL     1      44.393  22.691  89.446  0.00  0.00    +0.000 OA
ATOM     26  H   UNL     1      45.018  21.992  89.706  0.00  0.00    +0.000 HD
ENDBRANCH   8  25
BRANCH  18  27
ATOM     27  O   UNL     1      42.691  22.251  84.953  0.00  0.00    +0.000 OA
BRANCH  27  29
ATOM     28  O   UNL     1      40.741  21.196  85.402  0.00  0.00    +0.000 OA
ATOM     29  C   UNL     1      41.496  21.719  84.590  0.00  0.00    +0.000 C 
BRANCH  29  30
ATOM     30  C   UNL     1      41.250  21.684  83.078  0.00  0.00    +0.000 C 
BRANCH  30  31
ATOM     31  O   UNL     1      42.355  22.100  82.268  0.00  0.00    +0.000 OA
ATOM     32  H   UNL     1      43.032  22.436  82.885  0.00  0.00    +0.000 HD
ENDBRANCH  30  31
BRANCH  30  33
ATOM     33  C   UNL     1      39.995  22.549  82.774  0.00  0.00    +0.000 C 
BRANCH  33  34
ATOM     34  C   UNL     1      39.859  22.788  81.276  0.00  0.00    +0.000 A 
ATOM     35  C   UNL     1      40.134  24.063  80.753  0.00  0.00    +0.000 A 
ATOM     36  C   UNL     1      39.434  21.780  80.397  0.00  0.00    +0.000 A 
ATOM     37  C   UNL     1      40.006  24.317  79.387  0.00  0.00    +0.000 A 
ATOM     38  C   UNL     1      39.308  22.035  79.031  0.00  0.00    +0.000 A 
ATOM     39  C   UNL     1      39.596  23.302  78.526  0.00  0.00    +0.000 A 
ENDBRANCH  33  34
BRANCH  33  41
ATOM     40  O   UNL     1      39.671  25.113  85.303  0.00  0.00    +0.000 OA
ATOM     41  N   UNL     1      40.058  23.820  83.506  0.00  0.00    +0.000 N 
ATOM     42  C   UNL     1      39.249  24.275  84.512  0.00  0.00    +0.000 C 
ATOM     43  H   UNL     1      40.955  24.293  83.458  0.00  0.00    +0.000 HD
BRANCH  42  44
ATOM     44  C   UNL     1      37.883  23.730  84.682  0.00  0.00    +0.000 A 
ATOM     45  C   UNL     1      36.817  24.178  83.896  0.00  0.00    +0.000 A 
ATOM     46  C   UNL     1      37.657  22.799  85.702  0.00  0.00    +0.000 A 
ATOM     47  C   UNL     1      35.540  23.649  84.091  0.00  0.00    +0.000 A 
ATOM     48  C   UNL     1      36.380  22.274  85.897  0.00  0.00    +0.000 A 
ATOM     49  C   UNL     1      35.325  22.693  85.085  0.00  0.00    +0.000 A 
ENDBRANCH  42  44
ENDBRANCH  33  41
ENDBRANCH  30  33
ENDBRANCH  29  30
ENDBRANCH  27  29
ENDBRANCH  18  27
BRANCH  17  50
ATOM     50  O   UNL     1      46.395  26.714  85.703  0.00  0.00    +0.000 OA
BRANCH  50  52
ATOM     51  O   UNL     1      45.375  28.152  84.324  0.00  0.00    +0.000 OA
ATOM     52  C   UNL     1      45.652  27.820  85.473  0.00  0.00    +0.000 C 
ATOM     53  C   UNL     1      45.264  28.662  86.651  0.00  0.00    +0.000 C 
ENDBRANCH  50  52
ENDBRANCH  17  50
BRANCH   7  54
ATOM     54  O   UNL     1      45.303  21.810  86.202  0.00  0.00    +0.000 OA
BRANCH  54  56
ATOM     55  O   UNL     1      44.941  20.250  87.416  0.00  0.00    +0.000 OA
ATOM     56  C   UNL     1      44.709  20.571  86.255  0.00  0.00    +0.000 C 
BRANCH  56  57
ATOM     57  C   UNL     1      44.053  19.626  84.725  0.00  0.00    +0.000 A 
ATOM     58  C   UNL     1      44.545  19.787  83.359  0.00  0.00    +0.000 A 
ATOM     59  C   UNL     1      43.106  18.558  84.704  0.00  0.00    +0.000 A 
ATOM     60  C   UNL     1      44.171  19.034  82.218  0.00  0.00    +0.000 A 
ATOM     61  C   UNL     1      42.716  17.791  83.570  0.00  0.00    +0.000 A 
ATOM     62  C   UNL     1      43.250  18.025  82.325  0.00  0.00    +0.000 A 
ENDBRANCH  56  57
ENDBRANCH  54  56
ENDBRANCH   7  54
BRANCH   4  63
ATOM     63  O   UNL     1      47.301  19.549  85.095  0.00  0.00    +0.000 OA
BRANCH  63  65
ATOM     64  O   UNL     1      48.236  18.040  83.736  0.00  0.00    +0.000 OA
ATOM     65  C   UNL     1      47.449  18.281  84.649  0.00  0.00    +0.000 C 
ATOM     66  C   UNL     1      46.566  17.203  85.193  0.00  0.00    +0.000 C 
ENDBRANCH  63  65
ENDBRANCH   4  63
TORSDOF 17
ENDMDL
MODEL 7
REMARK VINA RESULT:      -4.7     12.664     16.363
REMARK  Name = 
REMARK  23 active torsions:
REMARK  status: ('A' for Active; 'I' for Inactive)
REMARK    1  A    between atoms: O_2  and  C_17
REMARK    2  A    between atoms: O_2  and  C_36
REMARK    3  A    between atoms: O_3  and  C_20
REMARK    4  A    between atoms: O_3  and  C_37
REMARK    5  A    between atoms: O_4  and  C_21
REMARK    6  A    between atoms: O_5  and  C_22
REMARK    7  A    between atoms: O_6  and  C_30
REMARK    8  A    between atoms: O_6  and  C_39
REMARK    9  A    between atoms: O_8  and  C_31
REMARK   10  A    between atoms: O_8  and  C_40
REMARK   11  A    between atoms: O_13  and  C_42
REMARK   12  A    between atoms: N_15  and  C_46
REMARK   13  A    between atoms: C_18  and  C_29
REMARK   14  A    between atoms: C_24  and  C_33
REMARK   15  A    between atoms: C_24  and  C_34
REMARK   16  A    between atoms: C_32  and  C_35
REMARK   17  A    between atoms: C_36  and  C_38
REMARK   18  A    between atoms: C_37  and  C_41
REMARK   19  A    between atoms: C_39  and  C_43
REMARK   20  A    between atoms: C_40  and  C_42
REMARK   21  A    between atoms: C_42  and  C_46
REMARK   22  A    between atoms: C_46  and  C_50
REMARK   23  A    between atoms: C_53  and  C_56
REMARK                            x       y       z     vdW  Elec       q    Type
REMARK                         _______ _______ _______ _____ _____    ______ ____
ROOT
ATOM      1  O   UNL     1      49.636  21.559  87.134  0.00  0.00    +0.000 OA
ATOM      2  O   UNL     1      42.970  21.603  86.996  0.00  0.00    +0.000 OA
ATOM      3  C   UNL     1      46.868  23.367  86.179  0.00  0.00    +0.000 C 
ATOM      4  C   UNL     1      48.171  23.113  86.992  0.00  0.00    +0.000 C 
ATOM      5  C   UNL     1      45.442  22.595  87.163  0.00  0.00    +0.000 C 
ATOM      6  C   UNL     1      48.217  21.541  86.814  0.00  0.00    +0.000 C 
ATOM      7  C   UNL     1      46.785  25.110  85.521  0.00  0.00    +0.000 C 
ATOM      8  C   UNL     1      45.651  26.275  84.549  0.00  0.00    +0.000 C 
ATOM      9  C   UNL     1      45.821  21.057  87.253  0.00  0.00    +0.000 C 
ATOM     10  C   UNL     1      47.283  20.748  87.699  0.00  0.00    +0.000 C 
ATOM     11  C   UNL     1      43.947  26.049  84.110  0.00  0.00    +0.000 C 
ATOM     12  C   UNL     1      49.657  22.896  86.501  0.00  0.00    +0.000 C 
ATOM     13  C   UNL     1      43.607  22.649  86.749  0.00  0.00    +0.000 C 
ATOM     14  C   UNL     1      45.530  27.601  85.432  0.00  0.00    +0.000 C 
ATOM     15  C   UNL     1      43.039  25.719  85.393  0.00  0.00    +0.000 C 
ATOM     16  C   UNL     1      45.436  23.047  88.683  0.00  0.00    +0.000 C 
ATOM     17  C   UNL     1      42.586  24.081  85.976  0.00  0.00    +0.000 C 
ATOM     18  C   UNL     1      44.270  27.758  86.398  0.00  0.00    +0.000 C 
ATOM     19  C   UNL     1      43.072  26.743  86.312  0.00  0.00    +0.000 C 
ATOM     20  C   UNL     1      43.441  27.459  83.519  0.00  0.00    +0.000 C 
ATOM     21  C   UNL     1      43.592  25.229  82.828  0.00  0.00    +0.000 C 
ATOM     22  C   UNL     1      42.116  26.815  87.476  0.00  0.00    +0.000 C 
ENDROOT
BRANCH   9  23
ATOM     23  O   UNL     1      45.642  20.458  85.971  0.00  0.00    +0.000 OA
ATOM     24  H   UNL     1      45.877  19.513  86.073  0.00  0.00    +0.000 HD
ENDBRANCH   9  23
BRANCH   8  25
ATOM     25  O   UNL     1      46.388  26.634  83.365  0.00  0.00    +0.000 OA
ATOM     26  H   UNL     1      47.338  26.507  83.537  0.00  0.00    +0.000 HD
ENDBRANCH   8  25
BRANCH  18  27
ATOM     27  O   UNL     1      44.750  27.713  87.773  0.00  0.00    +0.000 OA
BRANCH  27  29
ATOM     28  O   UNL     1      45.775  29.630  88.401  0.00  0.00    +0.000 OA
ATOM     29  C   UNL     1      44.797  28.892  88.446  0.00  0.00    +0.000 C 
BRANCH  29  30
ATOM     30  C   UNL     1      43.607  29.137  89.380  0.00  0.00    +0.000 C 
BRANCH  30  31
ATOM     31  O   UNL     1      42.707  30.172  88.966  0.00  0.00    +0.000 OA
ATOM     32  H   UNL     1      43.205  31.008  89.037  0.00  0.00    +0.000 HD
ENDBRANCH  30  31
BRANCH  30  33
ATOM     33  C   UNL     1      44.163  29.434  90.800  0.00  0.00    +0.000 C 
BRANCH  33  34
ATOM     34  C   UNL     1      43.591  28.454  91.815  0.00  0.00    +0.000 A 
ATOM     35  C   UNL     1      42.929  27.299  91.364  0.00  0.00    +0.000 A 
ATOM     36  C   UNL     1      43.674  28.682  93.198  0.00  0.00    +0.000 A 
ATOM     37  C   UNL     1      42.383  26.389  92.270  0.00  0.00    +0.000 A 
ATOM     38  C   UNL     1      43.129  27.769  94.103  0.00  0.00    +0.000 A 
ATOM     39  C   UNL     1      42.486  26.623  93.639  0.00  0.00    +0.000 A 
ENDBRANCH  33  34
BRANCH  33  41
ATOM     40  O   UNL     1      44.380  33.005  91.330  0.00  0.00    +0.000 OA
ATOM     41  N   UNL     1      43.871  30.821  91.185  0.00  0.00    +0.000 N 
ATOM     42  C   UNL     1      44.742  31.839  91.462  0.00  0.00    +0.000 C 
ATOM     43  H   UNL     1      42.934  31.137  90.955  0.00  0.00    +0.000 HD
BRANCH  42  44
ATOM     44  C   UNL     1      46.133  31.546  91.874  0.00  0.00    +0.000 A 
ATOM     45  C   UNL     1      46.430  31.080  93.158  0.00  0.00    +0.000 A 
ATOM     46  C   UNL     1      47.168  31.814  90.970  0.00  0.00    +0.000 A 
ATOM     47  C   UNL     1      47.756  30.824  93.515  0.00  0.00    +0.000 A 
ATOM     48  C   UNL     1      48.491  31.560  91.330  0.00  0.00    +0.000 A 
ATOM     49  C   UNL     1      48.782  31.057  92.599  0.00  0.00    +0.000 A 
ENDBRANCH  42  44
ENDBRANCH  33  41
ENDBRANCH  30  33
ENDBRANCH  29  30
ENDBRANCH  27  29
ENDBRANCH  18  27
BRANCH  17  50
ATOM     50  O   UNL     1      41.646  23.617  84.983  0.00  0.00    +0.000 OA
BRANCH  50  52
ATOM     51  O   UNL     1      39.813  23.062  86.142  0.00  0.00    +0.000 OA
ATOM     52  C   UNL     1      40.307  23.628  85.171  0.00  0.00    +0.000 C 
ATOM     53  C   UNL     1      39.456  24.272  84.117  0.00  0.00    +0.000 C 
ENDBRANCH  50  52
ENDBRANCH  17  50
BRANCH   7  54
ATOM     54  O   UNL     1      46.089  25.386  86.603  0.00  0.00    +0.000 OA
BRANCH  54  56
ATOM     55  O   UNL     1      47.915  26.105  86.173  0.00  0.00    +0.000 OA
ATOM     56  C   UNL     1      47.147  26.088  87.130  0.00  0.00    +0.000 C 
BRANCH  56  57
ATOM     57  C   UNL     1      47.329  26.530  88.983  0.00  0.00    +0.000 A 
ATOM     58  C   UNL     1      48.309  27.463  89.537  0.00  0.00    +0.000 A 
ATOM     59  C   UNL     1      46.478  26.132  90.058  0.00  0.00    +0.000 A 
ATOM     60  C   UNL     1      48.408  27.905  90.879  0.00  0.00    +0.000 A 
ATOM     61  C   UNL     1      46.563  26.563  91.413  0.00  0.00    +0.000 A 
ATOM     62  C   UNL     1      47.526  27.453  91.826  0.00  0.00    +0.000 A 
ENDBRANCH  56  57
ENDBRANCH  54  56
ENDBRANCH   7  54
BRANCH   4  63
ATOM     63  O   UNL     1      48.056  23.555  88.365  0.00  0.00    +0.000 OA
BRANCH  63  65
ATOM     64  O   UNL     1      50.023  24.442  88.951  0.00  0.00    +0.000 OA
ATOM     65  C   UNL     1      49.096  23.680  89.221  0.00  0.00    +0.000 C 
ATOM     66  C   UNL     1      49.164  22.801  90.428  0.00  0.00    +0.000 C 
ENDBRANCH  63  65
ENDBRANCH   4  63
TORSDOF 17
ENDMDL
MODEL 8
REMARK VINA RESULT:      -4.6      2.927      7.296
REMARK  Name = 
REMARK  23 active torsions:
REMARK  status: ('A' for Active; 'I' for Inactive)
REMARK    1  A    between atoms: O_2  and  C_17
REMARK    2  A    between atoms: O_2  and  C_36
REMARK    3  A    between atoms: O_3  and  C_20
REMARK    4  A    between atoms: O_3  and  C_37
REMARK    5  A    between atoms: O_4  and  C_21
REMARK    6  A    between atoms: O_5  and  C_22
REMARK    7  A    between atoms: O_6  and  C_30
REMARK    8  A    between atoms: O_6  and  C_39
REMARK    9  A    between atoms: O_8  and  C_31
REMARK   10  A    between atoms: O_8  and  C_40
REMARK   11  A    between atoms: O_13  and  C_42
REMARK   12  A    between atoms: N_15  and  C_46
REMARK   13  A    between atoms: C_18  and  C_29
REMARK   14  A    between atoms: C_24  and  C_33
REMARK   15  A    between atoms: C_24  and  C_34
REMARK   16  A    between atoms: C_32  and  C_35
REMARK   17  A    between atoms: C_36  and  C_38
REMARK   18  A    between atoms: C_37  and  C_41
REMARK   19  A    between atoms: C_39  and  C_43
REMARK   20  A    between atoms: C_40  and  C_42
REMARK   21  A    between atoms: C_42  and  C_46
REMARK   22  A    between atoms: C_46  and  C_50
REMARK   23  A    between atoms: C_53  and  C_56
REMARK                            x       y       z     vdW  Elec       q    Type
REMARK                         _______ _______ _______ _____ _____    ______ ____
ROOT
ATOM      1  O   UNL     1      46.946  39.429  78.127  0.00  0.00    +0.000 OA
ATOM      2  O   UNL     1      46.335  42.522  84.002  0.00  0.00    +0.000 OA
ATOM      3  C   UNL     1      46.333  38.969  81.482  0.00  0.00    +0.000 C 
ATOM      4  C   UNL     1      45.975  38.927  79.967  0.00  0.00    +0.000 C 
ATOM      5  C   UNL     1      45.866  40.695  82.114  0.00  0.00    +0.000 C 
ATOM      6  C   UNL     1      47.063  39.966  79.474  0.00  0.00    +0.000 C 
ATOM      7  C   UNL     1      45.803  37.415  82.367  0.00  0.00    +0.000 C 
ATOM      8  C   UNL     1      45.759  36.634  84.092  0.00  0.00    +0.000 C 
ATOM      9  C   UNL     1      46.754  41.680  81.244  0.00  0.00    +0.000 C 
ATOM     10  C   UNL     1      46.737  41.423  79.706  0.00  0.00    +0.000 C 
ATOM     11  C   UNL     1      46.066  37.401  85.662  0.00  0.00    +0.000 C 
ATOM     12  C   UNL     1      46.649  38.134  78.779  0.00  0.00    +0.000 C 
ATOM     13  C   UNL     1      45.971  41.332  83.881  0.00  0.00    +0.000 C 
ATOM     14  C   UNL     1      44.252  36.154  84.314  0.00  0.00    +0.000 C 
ATOM     15  C   UNL     1      45.150  38.702  85.880  0.00  0.00    +0.000 C 
ATOM     16  C   UNL     1      44.388  41.109  81.716  0.00  0.00    +0.000 C 
ATOM     17  C   UNL     1      45.620  40.399  85.524  0.00  0.00    +0.000 C 
ATOM     18  C   UNL     1      43.260  37.114  85.114  0.00  0.00    +0.000 C 
ATOM     19  C   UNL     1      43.811  38.387  85.855  0.00  0.00    +0.000 C 
ATOM     20  C   UNL     1      45.638  36.326  86.782  0.00  0.00    +0.000 C 
ATOM     21  C   UNL     1      47.538  37.545  86.166  0.00  0.00    +0.000 C 
ATOM     22  C   UNL     1      42.743  39.360  86.290  0.00  0.00    +0.000 C 
ENDROOT
BRANCH   9  23
ATOM     23  O   UNL     1      48.113  41.578  81.667  0.00  0.00    +0.000 OA
ATOM     24  H   UNL     1      48.308  40.622  81.738  0.00  0.00    +0.000 HD
ENDBRANCH   9  23
BRANCH   8  25
ATOM     25  O   UNL     1      46.561  35.441  83.997  0.00  0.00    +0.000 OA
ATOM     26  H   UNL     1      46.882  35.352  83.083  0.00  0.00    +0.000 HD
ENDBRANCH   8  25
BRANCH  18  27
ATOM     27  O   UNL     1      42.244  37.588  84.182  0.00  0.00    +0.000 OA
BRANCH  27  29
ATOM     28  O   UNL     1      40.741  35.997  83.606  0.00  0.00    +0.000 OA
ATOM     29  C   UNL     1      41.022  37.000  84.254  0.00  0.00    +0.000 C 
BRANCH  29  30
ATOM     30  C   UNL     1      39.990  37.779  85.076  0.00  0.00    +0.000 C 
BRANCH  30  31
ATOM     31  O   UNL     1      39.561  37.140  86.284  0.00  0.00    +0.000 OA
ATOM     32  H   UNL     1      38.870  37.715  86.663  0.00  0.00    +0.000 HD
ENDBRANCH  30  31
BRANCH  30  33
ATOM     33  C   UNL     1      38.774  38.085  84.159  0.00  0.00    +0.000 C 
BRANCH  33  34
ATOM     34  C   UNL     1      38.735  39.562  83.793  0.00  0.00    +0.000 A 
ATOM     35  C   UNL     1      39.729  40.423  84.292  0.00  0.00    +0.000 A 
ATOM     36  C   UNL     1      37.716  40.105  82.995  0.00  0.00    +0.000 A 
ATOM     37  C   UNL     1      39.712  41.784  83.985  0.00  0.00    +0.000 A 
ATOM     38  C   UNL     1      37.703  41.466  82.688  0.00  0.00    +0.000 A 
ATOM     39  C   UNL     1      38.701  42.305  83.181  0.00  0.00    +0.000 A 
ENDBRANCH  33  34
BRANCH  33  41
ATOM     40  O   UNL     1      35.707  36.363  84.999  0.00  0.00    +0.000 OA
ATOM     41  N   UNL     1      37.524  37.671  84.810  0.00  0.00    +0.000 N 
ATOM     42  C   UNL     1      36.449  37.017  84.273  0.00  0.00    +0.000 C 
ATOM     43  H   UNL     1      37.572  37.613  85.823  0.00  0.00    +0.000 HD
BRANCH  42  44
ATOM     44  C   UNL     1      36.200  37.053  82.814  0.00  0.00    +0.000 A 
ATOM     45  C   UNL     1      37.015  36.355  81.917  0.00  0.00    +0.000 A 
ATOM     46  C   UNL     1      35.166  37.865  82.332  0.00  0.00    +0.000 A 
ATOM     47  C   UNL     1      36.756  36.421  80.547  0.00  0.00    +0.000 A 
ATOM     48  C   UNL     1      34.912  37.932  80.963  0.00  0.00    +0.000 A 
ATOM     49  C   UNL     1      35.702  37.202  80.073  0.00  0.00    +0.000 A 
ENDBRANCH  42  44
ENDBRANCH  33  41
ENDBRANCH  30  33
ENDBRANCH  29  30
ENDBRANCH  27  29
ENDBRANCH  18  27
BRANCH  17  50
ATOM     50  O   UNL     1      46.589  40.704  86.550  0.00  0.00    +0.000 OA
BRANCH  50  52
ATOM     51  O   UNL     1      47.139  41.652  88.502  0.00  0.00    +0.000 OA
ATOM     52  C   UNL     1      46.334  41.540  87.582  0.00  0.00    +0.000 C 
ATOM     53  C   UNL     1      45.010  42.244  87.603  0.00  0.00    +0.000 C 
ENDBRANCH  50  52
ENDBRANCH  17  50
BRANCH   7  54
ATOM     54  O   UNL     1      44.706  38.075  82.672  0.00  0.00    +0.000 OA
BRANCH  54  56
ATOM     55  O   UNL     1      44.818  36.489  81.444  0.00  0.00    +0.000 OA
ATOM     56  C   UNL     1      43.978  37.314  81.788  0.00  0.00    +0.000 C 
BRANCH  56  57
ATOM     57  C   UNL     1      42.242  37.789  81.137  0.00  0.00    +0.000 A 
ATOM     58  C   UNL     1      41.639  39.117  81.229  0.00  0.00    +0.000 A 
ATOM     59  C   UNL     1      41.352  36.979  80.367  0.00  0.00    +0.000 A 
ATOM     60  C   UNL     1      40.411  39.542  80.665  0.00  0.00    +0.000 A 
ATOM     61  C   UNL     1      40.114  37.387  79.795  0.00  0.00    +0.000 A 
ATOM     62  C   UNL     1      39.642  38.670  79.939  0.00  0.00    +0.000 A 
ENDBRANCH  56  57
ENDBRANCH  54  56
ENDBRANCH   7  54
BRANCH   4  63
ATOM     63  O   UNL     1      44.608  39.329  79.715  0.00  0.00    +0.000 OA
BRANCH  63  65
ATOM     64  O   UNL     1      43.769  38.024  78.105  0.00  0.00    +0.000 OA
ATOM     65  C   UNL     1      43.963  39.158  78.539  0.00  0.00    +0.000 C 
ATOM     66  C   UNL     1      43.597  40.356  77.721  0.00  0.00    +0.000 C 
ENDBRANCH  63  65
ENDBRANCH   4  63
TORSDOF 17
ENDMDL
MODEL 9
REMARK VINA RESULT:      -4.5      2.435      7.123
REMARK  Name = 
REMARK  23 active torsions:
REMARK  status: ('A' for Active; 'I' for Inactive)
REMARK    1  A    between atoms: O_2  and  C_17
REMARK    2  A    between atoms: O_2  and  C_36
REMARK    3  A    between atoms: O_3  and  C_20
REMARK    4  A    between atoms: O_3  and  C_37
REMARK    5  A    between atoms: O_4  and  C_21
REMARK    6  A    between atoms: O_5  and  C_22
REMARK    7  A    between atoms: O_6  and  C_30
REMARK    8  A    between atoms: O_6  and  C_39
REMARK    9  A    between atoms: O_8  and  C_31
REMARK   10  A    between atoms: O_8  and  C_40
REMARK   11  A    between atoms: O_13  and  C_42
REMARK   12  A    between atoms: N_15  and  C_46
REMARK   13  A    between atoms: C_18  and  C_29
REMARK   14  A    between atoms: C_24  and  C_33
REMARK   15  A    between atoms: C_24  and  C_34
REMARK   16  A    between atoms: C_32  and  C_35
REMARK   17  A    between atoms: C_36  and  C_38
REMARK   18  A    between atoms: C_37  and  C_41
REMARK   19  A    between atoms: C_39  and  C_43
REMARK   20  A    between atoms: C_40  and  C_42
REMARK   21  A    between atoms: C_42  and  C_46
REMARK   22  A    between atoms: C_46  and  C_50
REMARK   23  A    between atoms: C_53  and  C_56
REMARK                            x       y       z     vdW  Elec       q    Type
REMARK                         _______ _______ _______ _____ _____    ______ ____
ROOT
ATOM      1  O   UNL     1      43.596  36.561  75.058  0.00  0.00    +0.000 OA
ATOM      2  O   UNL     1      47.488  39.887  79.330  0.00  0.00    +0.000 OA
ATOM      3  C   UNL     1      44.189  37.202  78.386  0.00  0.00    +0.000 C 
ATOM      4  C   UNL     1      43.345  37.221  77.079  0.00  0.00    +0.000 C 
ATOM      5  C   UNL     1      45.259  38.769  78.378  0.00  0.00    +0.000 C 
ATOM      6  C   UNL     1      44.542  37.020  76.063  0.00  0.00    +0.000 C 
ATOM      7  C   UNL     1      43.169  36.709  79.868  0.00  0.00    +0.000 C 
ATOM      8  C   UNL     1      43.294  36.483  81.744  0.00  0.00    +0.000 C 
ATOM      9  C   UNL     1      46.146  38.626  77.071  0.00  0.00    +0.000 C 
ATOM     10  C   UNL     1      45.374  38.247  75.771  0.00  0.00    +0.000 C 
ATOM     11  C   UNL     1      44.601  36.983  82.835  0.00  0.00    +0.000 C 
ATOM     12  C   UNL     1      42.807  36.030  76.191  0.00  0.00    +0.000 C 
ATOM     13  C   UNL     1      46.426  39.363  79.729  0.00  0.00    +0.000 C 
ATOM     14  C   UNL     1      42.085  37.322  82.366  0.00  0.00    +0.000 C 
ATOM     15  C   UNL     1      44.940  38.545  82.681  0.00  0.00    +0.000 C 
ATOM     16  C   UNL     1      44.416  40.080  78.090  0.00  0.00    +0.000 C 
ATOM     17  C   UNL     1      46.221  39.252  81.637  0.00  0.00    +0.000 C 
ATOM     18  C   UNL     1      42.377  38.802  82.885  0.00  0.00    +0.000 C 
ATOM     19  C   UNL     1      43.854  39.331  82.989  0.00  0.00    +0.000 C 
ATOM     20  C   UNL     1      44.051  36.761  84.332  0.00  0.00    +0.000 C 
ATOM     21  C   UNL     1      45.847  36.056  83.009  0.00  0.00    +0.000 C 
ATOM     22  C   UNL     1      43.964  40.823  83.182  0.00  0.00    +0.000 C 
ENDROOT
BRANCH   9  23
ATOM     23  O   UNL     1      47.126  37.610  77.283  0.00  0.00    +0.000 OA
ATOM     24  H   UNL     1      47.828  38.015  77.832  0.00  0.00    +0.000 HD
ENDBRANCH   9  23
BRANCH   8  25
ATOM     25  O   UNL     1      42.998  35.094  81.987  0.00  0.00    +0.000 OA
ATOM     26  H   UNL     1      43.518  34.792  82.752  0.00  0.00    +0.000 HD
ENDBRANCH   8  25
BRANCH  18  27
ATOM     27  O   UNL     1      41.667  39.731  82.014  0.00  0.00    +0.000 OA
BRANCH  27  29
ATOM     28  O   UNL     1      40.785  41.320  83.363  0.00  0.00    +0.000 OA
ATOM     29  C   UNL     1      40.624  40.408  82.559  0.00  0.00    +0.000 C 
BRANCH  29  30
ATOM     30  C   UNL     1      39.246  39.834  82.214  0.00  0.00    +0.000 C 
BRANCH  30  31
ATOM     31  O   UNL     1      38.212  40.804  82.009  0.00  0.00    +0.000 OA
ATOM     32  H   UNL     1      37.748  40.889  82.862  0.00  0.00    +0.000 HD
ENDBRANCH  30  31
BRANCH  30  33
ATOM     33  C   UNL     1      38.843  38.838  83.337  0.00  0.00    +0.000 C 
BRANCH  33  34
ATOM     34  C   UNL     1      37.889  37.781  82.799  0.00  0.00    +0.000 A 
ATOM     35  C   UNL     1      38.055  37.302  81.488  0.00  0.00    +0.000 A 
ATOM     36  C   UNL     1      36.819  37.286  83.562  0.00  0.00    +0.000 A 
ATOM     37  C   UNL     1      37.188  36.343  80.963  0.00  0.00    +0.000 A 
ATOM     38  C   UNL     1      35.954  36.326  83.036  0.00  0.00    +0.000 A 
ATOM     39  C   UNL     1      36.140  35.853  81.738  0.00  0.00    +0.000 A 
ENDBRANCH  33  34
BRANCH  33  41
ATOM     40  O   UNL     1      38.375  40.794  86.342  0.00  0.00    +0.000 OA
ATOM     41  N   UNL     1      38.248  39.556  84.471  0.00  0.00    +0.000 N 
ATOM     42  C   UNL     1      38.794  39.841  85.693  0.00  0.00    +0.000 C 
ATOM     43  H   UNL     1      37.455  40.145  84.231  0.00  0.00    +0.000 HD
BRANCH  42  44
ATOM     44  C   UNL     1      39.920  39.035  86.218  0.00  0.00    +0.000 A 
ATOM     45  C   UNL     1      39.724  37.738  86.702  0.00  0.00    +0.000 A 
ATOM     46  C   UNL     1      41.187  39.625  86.289  0.00  0.00    +0.000 A 
ATOM     47  C   UNL     1      40.808  37.012  87.199  0.00  0.00    +0.000 A 
ATOM     48  C   UNL     1      42.267  38.898  86.789  0.00  0.00    +0.000 A 
ATOM     49  C   UNL     1      42.078  37.589  87.234  0.00  0.00    +0.000 A 
ENDBRANCH  42  44
ENDBRANCH  33  41
ENDBRANCH  30  33
ENDBRANCH  29  30
ENDBRANCH  27  29
ENDBRANCH  18  27
BRANCH  17  50
ATOM     50  O   UNL     1      47.446  38.880  82.304  0.00  0.00    +0.000 OA
BRANCH  50  52
ATOM     51  O   UNL     1      49.261  40.187  82.241  0.00  0.00    +0.000 OA
ATOM     52  C   UNL     1      48.285  39.780  82.864  0.00  0.00    +0.000 C 
ATOM     53  C   UNL     1      48.030  40.188  84.284  0.00  0.00    +0.000 C 
ENDBRANCH  50  52
ENDBRANCH  17  50
BRANCH   7  54
ATOM     54  O   UNL     1      43.005  38.000  80.067  0.00  0.00    +0.000 OA
BRANCH  54  56
ATOM     55  O   UNL     1      41.548  36.703  79.586  0.00  0.00    +0.000 OA
ATOM     56  C   UNL     1      41.696  37.918  79.654  0.00  0.00    +0.000 C 
BRANCH  56  57
ATOM     57  C   UNL     1      40.660  39.414  79.060  0.00  0.00    +0.000 A 
ATOM     58  C   UNL     1      39.243  39.372  78.705  0.00  0.00    +0.000 A 
ATOM     59  C   UNL     1      41.064  40.783  79.004  0.00  0.00    +0.000 A 
ATOM     60  C   UNL     1      38.410  40.469  78.370  0.00  0.00    +0.000 A 
ATOM     61  C   UNL     1      40.244  41.897  78.668  0.00  0.00    +0.000 A 
ATOM     62  C   UNL     1      38.915  41.743  78.354  0.00  0.00    +0.000 A 
ENDBRANCH  56  57
ENDBRANCH  54  56
ENDBRANCH   7  54
BRANCH   4  63
ATOM     63  O   UNL     1      42.622  38.463  76.910  0.00  0.00    +0.000 OA
BRANCH  63  65
ATOM     64  O   UNL     1      40.681  38.026  75.891  0.00  0.00    +0.000 OA
ATOM     65  C   UNL     1      41.711  38.695  75.937  0.00  0.00    +0.000 C 
ATOM     66  C   UNL     1      42.024  39.683  74.859  0.00  0.00    +0.000 C 
ENDBRANCH  63  65
ENDBRANCH   4  63
TORSDOF 17
ENDMDL
