MODEL 1
REMARK VINA RESULT:      -6.7      0.000      0.000
REMARK  Name = 
REMARK  5 active torsions:
REMARK  status: ('A' for Active; 'I' for Inactive)
REMARK    1  A    between atoms: O_1  and  C_16
REMARK    2  A    between atoms: O_3  and  C_25
REMARK    3  A    between atoms: C_11  and  C_22
REMARK    4  A    between atoms: C_16  and  C_28
REMARK    5  A    between atoms: C_29  and  C_31
REMARK                            x       y       z     vdW  Elec       q    Type
REMARK                         _______ _______ _______ _____ _____    ______ ____
ROOT
ATOM      1  O   UNL     1      38.159  20.260  81.663  0.00  0.00    +0.000 OA
ATOM      2  N   UNL     1      43.362  26.740  86.256  0.00  0.00    +0.000 NA
ATOM      3  C   UNL     1      41.126  25.020  83.635  0.00  0.00    +0.000 C 
ATOM      4  C   UNL     1      41.317  23.891  82.588  0.00  0.00    +0.000 C 
ATOM      5  C   UNL     1      39.052  23.845  83.393  0.00  0.00    +0.000 C 
ATOM      6  C   UNL     1      40.145  22.926  82.835  0.00  0.00    +0.000 C 
ATOM      7  C   UNL     1      42.364  25.251  84.523  0.00  0.00    +0.000 C 
ATOM      8  C   UNL     1      39.841  24.662  84.412  0.00  0.00    +0.000 C 
ATOM      9  C   UNL     1      37.794  23.060  83.853  0.00  0.00    +0.000 C 
ATOM     10  C   UNL     1      43.608  25.430  83.625  0.00  0.00    +0.000 C 
ATOM     11  C   UNL     1      42.672  23.199  82.689  0.00  0.00    +0.000 C 
ATOM     12  C   UNL     1      37.266  22.313  82.591  0.00  0.00    +0.000 C 
ATOM     13  C   UNL     1      43.835  24.188  82.726  0.00  0.00    +0.000 C 
ATOM     14  C   UNL     1      44.858  25.820  84.467  0.00  0.00    +0.000 C 
ATOM     15  C   UNL     1      39.661  22.136  81.628  0.00  0.00    +0.000 C 
ATOM     16  C   UNL     1      42.169  26.469  85.436  0.00  0.00    +0.000 C 
ATOM     17  C   UNL     1      44.538  27.051  85.395  0.00  0.00    +0.000 C 
ATOM     18  C   UNL     1      36.694  24.044  84.324  0.00  0.00    +0.000 C 
ATOM     19  C   UNL     1      38.354  21.434  81.972  0.00  0.00    +0.000 C 
ATOM     20  C   UNL     1      38.116  22.078  85.007  0.00  0.00    +0.000 C 
ATOM     21  C   UNL     1      35.955  21.572  82.854  0.00  0.00    +0.000 C 
ATOM     22  C   UNL     1      35.339  23.367  84.552  0.00  0.00    +0.000 C 
ATOM     23  C   UNL     1      34.880  22.541  83.350  0.00  0.00    +0.000 C 
ATOM     24  C   UNL     1      45.761  27.426  86.270  0.00  0.00    +0.000 C 
ATOM     25  C   UNL     1      43.052  27.853  87.176  0.00  0.00    +0.000 C 
ATOM     26  C   UNL     1      46.061  26.104  83.556  0.00  0.00    +0.000 C 
ATOM     27  C   UNL     1      44.214  28.191  88.115  0.00  0.00    +0.000 C 
ATOM     28  C   UNL     1      45.454  28.521  87.286  0.00  0.00    +0.000 C 
ATOM     29  C   UNL     1      44.479  27.068  89.123  0.00  0.00    +0.000 C 
ENDROOT
BRANCH  14  30
ATOM     30  O   UNL     1      45.202  24.700  85.300  0.00  0.00    +0.000 OA
ATOM     31  H   UNL     1      44.906  24.951  86.198  0.00  0.00    +0.000 HD
ENDBRANCH  14  30
BRANCH  23  32
ATOM     32  O   UNL     1      33.712  21.818  83.722  0.00  0.00    +0.000 OA
ATOM     33  H   UNL     1      33.938  21.261  84.487  0.00  0.00    +0.000 HD
ENDBRANCH  23  32
TORSDOF 2
ENDMDL
MODEL 2
REMARK VINA RESULT:      -6.0     38.744     41.149
REMARK  Name = 
REMARK  5 active torsions:
REMARK  status: ('A' for Active; 'I' for Inactive)
REMARK    1  A    between atoms: O_1  and  C_16
REMARK    2  A    between atoms: O_3  and  C_25
REMARK    3  A    between atoms: C_11  and  C_22
REMARK    4  A    between atoms: C_16  and  C_28
REMARK    5  A    between atoms: C_29  and  C_31
REMARK                            x       y       z     vdW  Elec       q    Type
REMARK                         _______ _______ _______ _____ _____    ______ ____
ROOT
ATOM      1  O   UNL     1       3.846   1.807  89.047  0.00  0.00    +0.000 OA
ATOM      2  N   UNL     1       4.027  10.272  84.749  0.00  0.00    +0.000 NA
ATOM      3  C   UNL     1       4.348   7.497  87.400  0.00  0.00    +0.000 C 
ATOM      4  C   UNL     1       3.357   6.607  88.196  0.00  0.00    +0.000 C 
ATOM      5  C   UNL     1       5.385   5.376  87.805  0.00  0.00    +0.000 C 
ATOM      6  C   UNL     1       3.877   5.174  88.003  0.00  0.00    +0.000 C 
ATOM      7  C   UNL     1       3.662   8.404  86.359  0.00  0.00    +0.000 C 
ATOM      8  C   UNL     1       5.402   6.535  86.813  0.00  0.00    +0.000 C 
ATOM      9  C   UNL     1       6.119   4.055  87.451  0.00  0.00    +0.000 C 
ATOM     10  C   UNL     1       2.521   9.189  87.041  0.00  0.00    +0.000 C 
ATOM     11  C   UNL     1       1.909   6.768  87.744  0.00  0.00    +0.000 C 
ATOM     12  C   UNL     1       5.866   3.086  88.645  0.00  0.00    +0.000 C 
ATOM     13  C   UNL     1       1.476   8.230  87.668  0.00  0.00    +0.000 C 
ATOM     14  C   UNL     1       1.897  10.232  86.068  0.00  0.00    +0.000 C 
ATOM     15  C   UNL     1       3.578   4.194  89.128  0.00  0.00    +0.000 C 
ATOM     16  C   UNL     1       4.671   9.359  85.709  0.00  0.00    +0.000 C 
ATOM     17  C   UNL     1       3.019  11.132  85.429  0.00  0.00    +0.000 C 
ATOM     18  C   UNL     1       7.645   4.304  87.350  0.00  0.00    +0.000 C 
ATOM     19  C   UNL     1       4.368   2.911  88.908  0.00  0.00    +0.000 C 
ATOM     20  C   UNL     1       5.620   3.458  86.111  0.00  0.00    +0.000 C 
ATOM     21  C   UNL     1       6.619   1.764  88.497  0.00  0.00    +0.000 C 
ATOM     22  C   UNL     1       8.460   3.011  87.256  0.00  0.00    +0.000 C 
ATOM     23  C   UNL     1       8.123   2.015  88.366  0.00  0.00    +0.000 C 
ATOM     24  C   UNL     1       2.417  12.149  84.426  0.00  0.00    +0.000 C 
ATOM     25  C   UNL     1       5.078  11.077  84.094  0.00  0.00    +0.000 C 
ATOM     26  C   UNL     1       0.839  11.083  86.787  0.00  0.00    +0.000 C 
ATOM     27  C   UNL     1       4.522  12.034  83.035  0.00  0.00    +0.000 C 
ATOM     28  C   UNL     1       3.479  12.946  83.676  0.00  0.00    +0.000 C 
ATOM     29  C   UNL     1       3.962  11.281  81.825  0.00  0.00    +0.000 C 
ENDROOT
BRANCH  14  30
ATOM     30  O   UNL     1       1.231   9.516  85.014  0.00  0.00    +0.000 OA
ATOM     31  H   UNL     1       1.946   9.226  84.413  0.00  0.00    +0.000 HD
ENDBRANCH  14  30
BRANCH  23  32
ATOM     32  O   UNL     1       8.795   0.791  88.091  0.00  0.00    +0.000 OA
ATOM     33  H   UNL     1       8.752   0.638  87.131  0.00  0.00    +0.000 HD
ENDBRANCH  23  32
TORSDOF 2
ENDMDL
MODEL 3
REMARK VINA RESULT:      -5.9     36.626     41.416
REMARK  Name = 
REMARK  5 active torsions:
REMARK  status: ('A' for Active; 'I' for Inactive)
REMARK    1  A    between atoms: O_1  and  C_16
REMARK    2  A    between atoms: O_3  and  C_25
REMARK    3  A    between atoms: C_11  and  C_22
REMARK    4  A    between atoms: C_16  and  C_28
REMARK    5  A    between atoms: C_29  and  C_31
REMARK                            x       y       z     vdW  Elec       q    Type
REMARK                         _______ _______ _______ _____ _____    ______ ____
ROOT
ATOM      1  O   UNL     1       6.016  18.685  98.144  0.00  0.00    +0.000 OA
ATOM      2  N   UNL     1       2.598   9.843  97.611  0.00  0.00    +0.000 NA
ATOM      3  C   UNL     1       4.616  13.044  96.896  0.00  0.00    +0.000 C 
ATOM      4  C   UNL     1       4.288  14.462  96.360  0.00  0.00    +0.000 C 
ATOM      5  C   UNL     1       6.107  14.612  97.925  0.00  0.00    +0.000 C 
ATOM      6  C   UNL     1       4.925  15.423  97.377  0.00  0.00    +0.000 C 
ATOM      7  C   UNL     1       3.372  12.154  97.085  0.00  0.00    +0.000 C 
ATOM      8  C   UNL     1       5.448  13.260  98.178  0.00  0.00    +0.000 C 
ATOM      9  C   UNL     1       6.834  15.338  99.089  0.00  0.00    +0.000 C 
ATOM     10  C   UNL     1       2.542  12.157  95.783  0.00  0.00    +0.000 C 
ATOM     11  C   UNL     1       2.793  14.707  96.184  0.00  0.00    +0.000 C 
ATOM     12  C   UNL     1       7.344  16.689  98.504  0.00  0.00    +0.000 C 
ATOM     13  C   UNL     1       2.103  13.593  95.400  0.00  0.00    +0.000 C 
ATOM     14  C   UNL     1       1.357  11.151  95.870  0.00  0.00    +0.000 C 
ATOM     15  C   UNL     1       5.365  16.776  96.839  0.00  0.00    +0.000 C 
ATOM     16  C   UNL     1       3.770  10.725  97.477  0.00  0.00    +0.000 C 
ATOM     17  C   UNL     1       1.868   9.731  96.317  0.00  0.00    +0.000 C 
ATOM     18  C   UNL     1       8.067  14.515  99.541  0.00  0.00    +0.000 C 
ATOM     19  C   UNL     1       6.196  17.495  97.892  0.00  0.00    +0.000 C 
ATOM     20  C   UNL     1       5.903  15.555 100.307  0.00  0.00    +0.000 C 
ATOM     21  C   UNL     1       8.184  17.482  99.505  0.00  0.00    +0.000 C 
ATOM     22  C   UNL     1       8.979  15.280 100.506  0.00  0.00    +0.000 C 
ATOM     23  C   UNL     1       9.382  16.655  99.974  0.00  0.00    +0.000 C 
ATOM     24  C   UNL     1       0.693   8.728  96.448  0.00  0.00    +0.000 C 
ATOM     25  C   UNL     1       3.059   8.525  98.092  0.00  0.00    +0.000 C 
ATOM     26  C   UNL     1       0.604  11.079  94.533  0.00  0.00    +0.000 C 
ATOM     27  C   UNL     1       1.909   7.537  98.314  0.00  0.00    +0.000 C 
ATOM     28  C   UNL     1       1.121   7.379  97.015  0.00  0.00    +0.000 C 
ATOM     29  C   UNL     1       1.013   7.956  99.482  0.00  0.00    +0.000 C 
ENDROOT
BRANCH  14  30
ATOM     30  O   UNL     1       0.433  11.635  96.860  0.00  0.00    +0.000 OA
ATOM     31  H   UNL     1      -0.348  11.935  96.353  0.00  0.00    +0.000 HD
ENDBRANCH  14  30
BRANCH  23  32
ATOM     32  O   UNL     1      10.074  17.350 101.006  0.00  0.00    +0.000 OA
ATOM     33  H   UNL     1      10.298  18.235 100.671  0.00  0.00    +0.000 HD
ENDBRANCH  23  32
TORSDOF 2
ENDMDL
MODEL 4
REMARK VINA RESULT:      -5.9     12.839     14.294
REMARK  Name = 
REMARK  5 active torsions:
REMARK  status: ('A' for Active; 'I' for Inactive)
REMARK    1  A    between atoms: O_1  and  C_16
REMARK    2  A    between atoms: O_3  and  C_25
REMARK    3  A    between atoms: C_11  and  C_22
REMARK    4  A    between atoms: C_16  and  C_28
REMARK    5  A    between atoms: C_29  and  C_31
REMARK                            x       y       z     vdW  Elec       q    Type
REMARK                         _______ _______ _______ _____ _____    ______ ____
ROOT
ATOM      1  O   UNL     1      43.595  33.882  71.478  0.00  0.00    +0.000 OA
ATOM      2  N   UNL     1      44.540  37.196  80.325  0.00  0.00    +0.000 NA
ATOM      3  C   UNL     1      43.384  36.753  76.679  0.00  0.00    +0.000 C 
ATOM      4  C   UNL     1      44.033  36.938  75.282  0.00  0.00    +0.000 C 
ATOM      5  C   UNL     1      42.430  35.150  75.176  0.00  0.00    +0.000 C 
ATOM      6  C   UNL     1      43.741  35.625  74.538  0.00  0.00    +0.000 C 
ATOM      7  C   UNL     1      44.362  36.981  77.848  0.00  0.00    +0.000 C 
ATOM      8  C   UNL     1      42.728  35.356  76.658  0.00  0.00    +0.000 C 
ATOM      9  C   UNL     1      41.999  33.746  74.672  0.00  0.00    +0.000 C 
ATOM     10  C   UNL     1      45.072  38.340  77.660  0.00  0.00    +0.000 C 
ATOM     11  C   UNL     1      45.524  37.251  75.349  0.00  0.00    +0.000 C 
ATOM     12  C   UNL     1      41.821  33.878  73.129  0.00  0.00    +0.000 C 
ATOM     13  C   UNL     1      45.843  38.389  76.316  0.00  0.00    +0.000 C 
ATOM     14  C   UNL     1      45.957  38.687  78.892  0.00  0.00    +0.000 C 
ATOM     15  C   UNL     1      43.633  35.721  73.023  0.00  0.00    +0.000 C 
ATOM     16  C   UNL     1      43.633  36.928  79.197  0.00  0.00    +0.000 C 
ATOM     17  C   UNL     1      45.124  38.563  80.223  0.00  0.00    +0.000 C 
ATOM     18  C   UNL     1      40.628  33.358  75.282  0.00  0.00    +0.000 C 
ATOM     19  C   UNL     1      43.094  34.410  72.468  0.00  0.00    +0.000 C 
ATOM     20  C   UNL     1      43.037  32.657  75.039  0.00  0.00    +0.000 C 
ATOM     21  C   UNL     1      41.289  32.595  72.489  0.00  0.00    +0.000 C 
ATOM     22  C   UNL     1      40.017  32.109  74.641  0.00  0.00    +0.000 C 
ATOM     23  C   UNL     1      39.951  32.197  73.116  0.00  0.00    +0.000 C 
ATOM     24  C   UNL     1      46.003  38.866  81.464  0.00  0.00    +0.000 C 
ATOM     25  C   UNL     1      43.786  37.019  81.582  0.00  0.00    +0.000 C 
ATOM     26  C   UNL     1      46.570  40.088  78.745  0.00  0.00    +0.000 C 
ATOM     27  C   UNL     1      44.650  37.229  82.830  0.00  0.00    +0.000 C 
ATOM     28  C   UNL     1      45.277  38.620  82.782  0.00  0.00    +0.000 C 
ATOM     29  C   UNL     1      45.703  36.128  82.986  0.00  0.00    +0.000 C 
ENDROOT
BRANCH  14  30
ATOM     30  O   UNL     1      47.041  37.745  78.943  0.00  0.00    +0.000 OA
ATOM     31  H   UNL     1      46.614  36.873  79.071  0.00  0.00    +0.000 HD
ENDBRANCH  14  30
BRANCH  23  32
ATOM     32  O   UNL     1      39.538  30.933  72.610  0.00  0.00    +0.000 OA
ATOM     33  H   UNL     1      38.815  30.609  73.175  0.00  0.00    +0.000 HD
ENDBRANCH  23  32
TORSDOF 2
ENDMDL
MODEL 5
REMARK VINA RESULT:      -5.9     14.782     17.846
REMARK  Name = 
REMARK  5 active torsions:
REMARK  status: ('A' for Active; 'I' for Inactive)
REMARK    1  A    between atoms: O_1  and  C_16
REMARK    2  A    between atoms: O_3  and  C_25
REMARK    3  A    between atoms: C_11  and  C_22
REMARK    4  A    between atoms: C_16  and  C_28
REMARK    5  A    between atoms: C_29  and  C_31
REMARK                            x       y       z     vdW  Elec       q    Type
REMARK                         _______ _______ _______ _____ _____    ______ ____
ROOT
ATOM      1  O   UNL     1      49.490  18.123  67.458  0.00  0.00    +0.000 OA
ATOM      2  N   UNL     1      45.115  26.153  70.011  0.00  0.00    +0.000 NA
ATOM      3  C   UNL     1      46.994  22.795  70.155  0.00  0.00    +0.000 C 
ATOM      4  C   UNL     1      46.643  21.316  69.844  0.00  0.00    +0.000 C 
ATOM      5  C   UNL     1      48.968  21.693  69.360  0.00  0.00    +0.000 C 
ATOM      6  C   UNL     1      47.777  20.829  68.927  0.00  0.00    +0.000 C 
ATOM      7  C   UNL     1      45.860  23.782  69.816  0.00  0.00    +0.000 C 
ATOM      8  C   UNL     1      48.325  23.075  69.425  0.00  0.00    +0.000 C 
ATOM      9  C   UNL     1      50.217  21.473  68.466  0.00  0.00    +0.000 C 
ATOM     10  C   UNL     1      44.549  23.296  70.472  0.00  0.00    +0.000 C 
ATOM     11  C   UNL     1      45.266  21.146  69.210  0.00  0.00    +0.000 C 
ATOM     12  C   UNL     1      50.581  19.963  68.597  0.00  0.00    +0.000 C 
ATOM     13  C   UNL     1      44.170  21.875  69.983  0.00  0.00    +0.000 C 
ATOM     14  C   UNL     1      43.409  24.339  70.288  0.00  0.00    +0.000 C 
ATOM     15  C   UNL     1      48.100  19.344  68.990  0.00  0.00    +0.000 C 
ATOM     16  C   UNL     1      46.209  25.203  70.277  0.00  0.00    +0.000 C 
ATOM     17  C   UNL     1      43.883  25.766  70.753  0.00  0.00    +0.000 C 
ATOM     18  C   UNL     1      51.410  22.303  69.002  0.00  0.00    +0.000 C 
ATOM     19  C   UNL     1      49.392  19.073  68.232  0.00  0.00    +0.000 C 
ATOM     20  C   UNL     1      49.951  21.872  66.993  0.00  0.00    +0.000 C 
ATOM     21  C   UNL     1      51.867  19.603  67.853  0.00  0.00    +0.000 C 
ATOM     22  C   UNL     1      52.740  21.947  68.332  0.00  0.00    +0.000 C 
ATOM     23  C   UNL     1      53.037  20.447  68.363  0.00  0.00    +0.000 C 
ATOM     24  C   UNL     1      42.771  26.824  70.538  0.00  0.00    +0.000 C 
ATOM     25  C   UNL     1      45.573  27.507  70.383  0.00  0.00    +0.000 C 
ATOM     26  C   UNL     1      42.142  23.899  71.038  0.00  0.00    +0.000 C 
ATOM     27  C   UNL     1      44.525  28.588  70.102  0.00  0.00    +0.000 C 
ATOM     28  C   UNL     1      43.233  28.245  70.841  0.00  0.00    +0.000 C 
ATOM     29  C   UNL     1      44.294  28.782  68.600  0.00  0.00    +0.000 C 
ENDROOT
BRANCH  14  30
ATOM     30  O   UNL     1      43.082  24.400  68.890  0.00  0.00    +0.000 OA
ATOM     31  H   UNL     1      43.842  24.853  68.471  0.00  0.00    +0.000 HD
ENDBRANCH  14  30
BRANCH  23  32
ATOM     32  O   UNL     1      54.192  20.202  67.569  0.00  0.00    +0.000 OA
ATOM     33  H   UNL     1      54.916  20.747  67.921  0.00  0.00    +0.000 HD
ENDBRANCH  23  32
TORSDOF 2
ENDMDL
MODEL 6
REMARK VINA RESULT:      -5.7     19.031     21.649
REMARK  Name = 
REMARK  5 active torsions:
REMARK  status: ('A' for Active; 'I' for Inactive)
REMARK    1  A    between atoms: O_1  and  C_16
REMARK    2  A    between atoms: O_3  and  C_25
REMARK    3  A    between atoms: C_11  and  C_22
REMARK    4  A    between atoms: C_16  and  C_28
REMARK    5  A    between atoms: C_29  and  C_31
REMARK                            x       y       z     vdW  Elec       q    Type
REMARK                         _______ _______ _______ _____ _____    ______ ____
ROOT
ATOM      1  O   UNL     1      57.962  37.771  85.082  0.00  0.00    +0.000 OA
ATOM      2  N   UNL     1      61.066  29.645  88.889  0.00  0.00    +0.000 NA
ATOM      3  C   UNL     1      60.303  33.379  88.334  0.00  0.00    +0.000 C 
ATOM      4  C   UNL     1      60.790  34.473  87.347  0.00  0.00    +0.000 C 
ATOM      5  C   UNL     1      58.499  34.904  87.935  0.00  0.00    +0.000 C 
ATOM      6  C   UNL     1      59.501  35.100  86.790  0.00  0.00    +0.000 C 
ATOM      7  C   UNL     1      60.880  31.981  88.037  0.00  0.00    +0.000 C 
ATOM      8  C   UNL     1      58.761  33.450  88.315  0.00  0.00    +0.000 C 
ATOM      9  C   UNL     1      57.062  35.345  87.546  0.00  0.00    +0.000 C 
ATOM     10  C   UNL     1      62.417  32.080  87.917  0.00  0.00    +0.000 C 
ATOM     11  C   UNL     1      61.696  33.930  86.247  0.00  0.00    +0.000 C 
ATOM     12  C   UNL     1      57.159  36.857  87.178  0.00  0.00    +0.000 C 
ATOM     13  C   UNL     1      62.830  33.065  86.794  0.00  0.00    +0.000 C 
ATOM     14  C   UNL     1      63.061  30.671  87.771  0.00  0.00    +0.000 C 
ATOM     15  C   UNL     1      59.595  36.556  86.360  0.00  0.00    +0.000 C 
ATOM     16  C   UNL     1      60.480  30.976  89.125  0.00  0.00    +0.000 C 
ATOM     17  C   UNL     1      62.554  29.710  88.910  0.00  0.00    +0.000 C 
ATOM     18  C   UNL     1      56.115  35.208  88.765  0.00  0.00    +0.000 C 
ATOM     19  C   UNL     1      58.198  37.094  86.081  0.00  0.00    +0.000 C 
ATOM     20  C   UNL     1      56.496  34.505  86.375  0.00  0.00    +0.000 C 
ATOM     21  C   UNL     1      55.794  37.474  86.873  0.00  0.00    +0.000 C 
ATOM     22  C   UNL     1      54.747  35.858  88.539  0.00  0.00    +0.000 C 
ATOM     23  C   UNL     1      54.851  37.309  88.066  0.00  0.00    +0.000 C 
ATOM     24  C   UNL     1      63.156  28.290  88.754  0.00  0.00    +0.000 C 
ATOM     25  C   UNL     1      60.546  28.719  89.915  0.00  0.00    +0.000 C 
ATOM     26  C   UNL     1      64.594  30.770  87.764  0.00  0.00    +0.000 C 
ATOM     27  C   UNL     1      61.057  27.285  89.736  0.00  0.00    +0.000 C 
ATOM     28  C   UNL     1      62.584  27.288  89.750  0.00  0.00    +0.000 C 
ATOM     29  C   UNL     1      60.494  26.634  88.470  0.00  0.00    +0.000 C 
ENDROOT
BRANCH  14  30
ATOM     30  O   UNL     1      62.658  30.126  86.503  0.00  0.00    +0.000 OA
ATOM     31  H   UNL     1      62.181  30.852  86.054  0.00  0.00    +0.000 HD
ENDBRANCH  14  30
BRANCH  23  32
ATOM     32  O   UNL     1      53.548  37.762  87.719  0.00  0.00    +0.000 OA
ATOM     33  H   UNL     1      53.245  37.241  86.955  0.00  0.00    +0.000 HD
ENDBRANCH  23  32
TORSDOF 2
ENDMDL
MODEL 7
REMARK VINA RESULT:      -5.7     38.014     42.917
REMARK  Name = 
REMARK  5 active torsions:
REMARK  status: ('A' for Active; 'I' for Inactive)
REMARK    1  A    between atoms: O_1  and  C_16
REMARK    2  A    between atoms: O_3  and  C_25
REMARK    3  A    between atoms: C_11  and  C_22
REMARK    4  A    between atoms: C_16  and  C_28
REMARK    5  A    between atoms: C_29  and  C_31
REMARK                            x       y       z     vdW  Elec       q    Type
REMARK                         _______ _______ _______ _____ _____    ______ ____
ROOT
ATOM      1  O   UNL     1       2.860  17.542  95.872  0.00  0.00    +0.000 OA
ATOM      2  N   UNL     1       2.014   8.396  98.280  0.00  0.00    +0.000 NA
ATOM      3  C   UNL     1       3.037  11.628  96.452  0.00  0.00    +0.000 C 
ATOM      4  C   UNL     1       2.309  12.683  95.577  0.00  0.00    +0.000 C 
ATOM      5  C   UNL     1       4.070  13.760  96.810  0.00  0.00    +0.000 C 
ATOM      6  C   UNL     1       2.691  14.037  96.198  0.00  0.00    +0.000 C 
ATOM      7  C   UNL     1       2.097  10.553  97.032  0.00  0.00    +0.000 C 
ATOM      8  C   UNL     1       3.822  12.429  97.512  0.00  0.00    +0.000 C 
ATOM      9  C   UNL     1       4.609  14.966  97.625  0.00  0.00    +0.000 C 
ATOM     10  C   UNL     1       1.252   9.947  95.890  0.00  0.00    +0.000 C 
ATOM     11  C   UNL     1       0.799  12.474  95.517  0.00  0.00    +0.000 C 
ATOM     12  C   UNL     1       4.702  16.157  96.624  0.00  0.00    +0.000 C 
ATOM     13  C   UNL     1       0.418  11.037  95.169  0.00  0.00    +0.000 C 
ATOM     14  C   UNL     1       0.397   8.750  96.398  0.00  0.00    +0.000 C 
ATOM     15  C   UNL     1       2.718  15.226  95.249  0.00  0.00    +0.000 C 
ATOM     16  C   UNL     1       2.890   9.463  97.763  0.00  0.00    +0.000 C 
ATOM     17  C   UNL     1       1.298   7.713  97.166  0.00  0.00    +0.000 C 
ATOM     18  C   UNL     1       6.038  14.663  98.144  0.00  0.00    +0.000 C 
ATOM     19  C   UNL     1       3.354  16.419  95.948  0.00  0.00    +0.000 C 
ATOM     20  C   UNL     1       3.698  15.301  98.832  0.00  0.00    +0.000 C 
ATOM     21  C   UNL     1       5.324  17.404  97.253  0.00  0.00    +0.000 C 
ATOM     22  C   UNL     1       6.735  15.890  98.736  0.00  0.00    +0.000 C 
ATOM     23  C   UNL     1       6.721  17.093  97.792  0.00  0.00    +0.000 C 
ATOM     24  C   UNL     1       0.453   6.534  97.715  0.00  0.00    +0.000 C 
ATOM     25  C   UNL     1       2.840   7.451  99.058  0.00  0.00    +0.000 C 
ATOM     26  C   UNL     1      -0.355   8.085  95.235  0.00  0.00    +0.000 C 
ATOM     27  C   UNL     1       2.019   6.320  99.685  0.00  0.00    +0.000 C 
ATOM     28  C   UNL     1       1.259   5.579  98.587  0.00  0.00    +0.000 C 
ATOM     29  C   UNL     1       1.085   6.834 100.784  0.00  0.00    +0.000 C 
ENDROOT
BRANCH  14  30
ATOM     30  O   UNL     1      -0.589   9.262  97.312  0.00  0.00    +0.000 OA
ATOM     31  H   UNL     1      -1.291   9.637  96.743  0.00  0.00    +0.000 HD
ENDBRANCH  14  30
BRANCH  23  32
ATOM     32  O   UNL     1       7.230  18.221  98.495  0.00  0.00    +0.000 OA
ATOM     33  H   UNL     1       8.040  18.513  98.043  0.00  0.00    +0.000 HD
ENDBRANCH  23  32
TORSDOF 2
ENDMDL
MODEL 8
REMARK VINA RESULT:      -5.7      5.289      9.656
REMARK  Name = 
REMARK  5 active torsions:
REMARK  status: ('A' for Active; 'I' for Inactive)
REMARK    1  A    between atoms: O_1  and  C_16
REMARK    2  A    between atoms: O_3  and  C_25
REMARK    3  A    between atoms: C_11  and  C_22
REMARK    4  A    between atoms: C_16  and  C_28
REMARK    5  A    between atoms: C_29  and  C_31
REMARK                            x       y       z     vdW  Elec       q    Type
REMARK                         _______ _______ _______ _____ _____    ______ ____
ROOT
ATOM      1  O   UNL     1      51.855  19.684  86.154  0.00  0.00    +0.000 OA
ATOM      2  N   UNL     1      44.561  25.586  84.697  0.00  0.00    +0.000 NA
ATOM      3  C   UNL     1      48.064  23.991  84.597  0.00  0.00    +0.000 C 
ATOM      4  C   UNL     1      49.211  23.774  85.620  0.00  0.00    +0.000 C 
ATOM      5  C   UNL     1      49.205  21.958  84.044  0.00  0.00    +0.000 C 
ATOM      6  C   UNL     1      49.566  22.283  85.499  0.00  0.00    +0.000 C 
ATOM      7  C   UNL     1      46.799  24.616  85.215  0.00  0.00    +0.000 C 
ATOM      8  C   UNL     1      47.837  22.622  83.922  0.00  0.00    +0.000 C 
ATOM      9  C   UNL     1      49.353  20.447  83.720  0.00  0.00    +0.000 C 
ATOM     10  C   UNL     1      47.189  25.887  86.001  0.00  0.00    +0.000 C 
ATOM     11  C   UNL     1      48.830  24.169  87.043  0.00  0.00    +0.000 C 
ATOM     12  C   UNL     1      50.847  20.092  83.988  0.00  0.00    +0.000 C 
ATOM     13  C   UNL     1      48.212  25.563  87.120  0.00  0.00    +0.000 C 
ATOM     14  C   UNL     1      45.928  26.639  86.515  0.00  0.00    +0.000 C 
ATOM     15  C   UNL     1      51.004  21.907  85.825  0.00  0.00    +0.000 C 
ATOM     16  C   UNL     1      45.758  24.939  84.134  0.00  0.00    +0.000 C 
ATOM     17  C   UNL     1      44.911  26.884  85.338  0.00  0.00    +0.000 C 
ATOM     18  C   UNL     1      49.061  20.193  82.219  0.00  0.00    +0.000 C 
ATOM     19  C   UNL     1      51.256  20.463  85.415  0.00  0.00    +0.000 C 
ATOM     20  C   UNL     1      48.395  19.577  84.571  0.00  0.00    +0.000 C 
ATOM     21  C   UNL     1      51.183  18.650  83.609  0.00  0.00    +0.000 C 
ATOM     22  C   UNL     1      49.431  18.778  81.766  0.00  0.00    +0.000 C 
ATOM     23  C   UNL     1      50.864  18.393  82.135  0.00  0.00    +0.000 C 
ATOM     24  C   UNL     1      43.630  27.597  85.843  0.00  0.00    +0.000 C 
ATOM     25  C   UNL     1      43.573  25.762  83.614  0.00  0.00    +0.000 C 
ATOM     26  C   UNL     1      46.320  27.958  87.198  0.00  0.00    +0.000 C 
ATOM     27  C   UNL     1      42.261  26.387  84.099  0.00  0.00    +0.000 C 
ATOM     28  C   UNL     1      42.558  27.728  84.767  0.00  0.00    +0.000 C 
ATOM     29  C   UNL     1      41.487  25.442  85.023  0.00  0.00    +0.000 C 
ENDROOT
BRANCH  14  30
ATOM     30  O   UNL     1      45.289  25.815  87.504  0.00  0.00    +0.000 OA
ATOM     31  H   UNL     1      44.528  25.407  87.043  0.00  0.00    +0.000 HD
ENDBRANCH  14  30
BRANCH  23  32
ATOM     32  O   UNL     1      51.050  17.015  81.833  0.00  0.00    +0.000 OA
ATOM     33  H   UNL     1      50.846  16.504  82.636  0.00  0.00    +0.000 HD
ENDBRANCH  23  32
TORSDOF 2
ENDMDL
MODEL 9
REMARK VINA RESULT:      -5.6     24.201     26.647
REMARK  Name = 
REMARK  5 active torsions:
REMARK  status: ('A' for Active; 'I' for Inactive)
REMARK    1  A    between atoms: O_1  and  C_16
REMARK    2  A    between atoms: O_3  and  C_25
REMARK    3  A    between atoms: C_11  and  C_22
REMARK    4  A    between atoms: C_16  and  C_28
REMARK    5  A    between atoms: C_29  and  C_31
REMARK                            x       y       z     vdW  Elec       q    Type
REMARK                         _______ _______ _______ _____ _____    ______ ____
ROOT
ATOM      1  O   UNL     1      18.672  14.245  79.743  0.00  0.00    +0.000 OA
ATOM      2  N   UNL     1      21.159   6.561  84.735  0.00  0.00    +0.000 NA
ATOM      3  C   UNL     1      19.323   9.736  83.562  0.00  0.00    +0.000 C 
ATOM      4  C   UNL     1      19.663  11.248  83.490  0.00  0.00    +0.000 C 
ATOM      5  C   UNL     1      18.194  10.682  81.672  0.00  0.00    +0.000 C 
ATOM      6  C   UNL     1      19.315  11.659  82.050  0.00  0.00    +0.000 C 
ATOM      7  C   UNL     1      20.500   8.862  84.039  0.00  0.00    +0.000 C 
ATOM      8  C   UNL     1      18.771   9.361  82.171  0.00  0.00    +0.000 C 
ATOM      9  C   UNL     1      17.765  10.817  80.187  0.00  0.00    +0.000 C 
ATOM     10  C   UNL     1      21.065   9.443  85.354  0.00  0.00    +0.000 C 
ATOM     11  C   UNL     1      21.113  11.556  83.849  0.00  0.00    +0.000 C 
ATOM     12  C   UNL     1      17.271  12.285  80.012  0.00  0.00    +0.000 C 
ATOM     13  C   UNL     1      21.544  10.905  85.162  0.00  0.00    +0.000 C 
ATOM     14  C   UNL     1      22.155   8.509  85.957  0.00  0.00    +0.000 C 
ATOM     15  C   UNL     1      18.897  13.108  81.848  0.00  0.00    +0.000 C 
ATOM     16  C   UNL     1      20.063   7.404  84.228  0.00  0.00    +0.000 C 
ATOM     17  C   UNL     1      21.618   7.034  86.071  0.00  0.00    +0.000 C 
ATOM     18  C   UNL     1      16.575   9.871  79.888  0.00  0.00    +0.000 C 
ATOM     19  C   UNL     1      18.346  13.286  80.440  0.00  0.00    +0.000 C 
ATOM     20  C   UNL     1      18.926  10.483  79.217  0.00  0.00    +0.000 C 
ATOM     21  C   UNL     1      16.707  12.551  78.616  0.00  0.00    +0.000 C 
ATOM     22  C   UNL     1      15.931  10.128  78.522  0.00  0.00    +0.000 C 
ATOM     23  C   UNL     1      15.553  11.594  78.311  0.00  0.00    +0.000 C 
ATOM     24  C   UNL     1      22.707   6.084  86.633  0.00  0.00    +0.000 C 
ATOM     25  C   UNL     1      20.688   5.162  84.784  0.00  0.00    +0.000 C 
ATOM     26  C   UNL     1      22.631   9.038  87.318  0.00  0.00    +0.000 C 
ATOM     27  C   UNL     1      21.770   4.185  85.255  0.00  0.00    +0.000 C 
ATOM     28  C   UNL     1      22.280   4.620  86.627  0.00  0.00    +0.000 C 
ATOM     29  C   UNL     1      22.903   4.054  84.235  0.00  0.00    +0.000 C 
ENDROOT
BRANCH  14  30
ATOM     30  O   UNL     1      23.287   8.515  85.072  0.00  0.00    +0.000 OA
ATOM     31  H   UNL     1      23.522   9.459  84.966  0.00  0.00    +0.000 HD
ENDBRANCH  14  30
BRANCH  23  32
ATOM     32  O   UNL     1      15.132  11.760  76.962  0.00  0.00    +0.000 OA
ATOM     33  H   UNL     1      14.309  12.278  76.969  0.00  0.00    +0.000 HD
ENDBRANCH  23  32
TORSDOF 2
ENDMDL
