MODEL 1
REMARK VINA RESULT:      -7.2      0.000      0.000
REMARK  Name = PhIP.pdbqt.pdb
REMARK  2 active torsions:
REMARK  status: ('A' for Active; 'I' for Inactive)
REMARK    1  A    between atoms: N_4  and  C_9
REMARK    2  A    between atoms: C_7  and  C_10
REMARK                            x       y       z     vdW  Elec       q    Type
REMARK                         _______ _______ _______ _____ _____    ______ ____
ROOT
ATOM      1  N   UNL     1      56.505  38.175  76.288  0.00  0.00    +0.000 N 
ATOM      2  N   UNL     1      55.096  36.617  75.164  0.00  0.00    +0.000 NA
ATOM      3  N   UNL     1      55.066  34.935  76.913  0.00  0.00    +0.000 NA
ATOM      4  C   UNL     1      56.312  37.132  77.143  0.00  0.00    +0.000 C 
ATOM      5  C   UNL     1      55.408  36.174  76.355  0.00  0.00    +0.000 C 
ATOM      6  C   UNL     1      56.617  35.374  78.799  0.00  0.00    +0.000 C 
ATOM      7  C   UNL     1      56.864  36.657  78.218  0.00  0.00    +0.000 C 
ATOM      8  C   UNL     1      55.797  37.812  75.139  0.00  0.00    +0.000 C 
ATOM      9  C   UNL     1      57.750  38.921  76.234  0.00  0.00    +0.000 C 
ATOM     10  C   UNL     1      55.670  34.758  77.910  0.00  0.00    +0.000 C 
ENDROOT
BRANCH   6  11
ATOM     11  C   UNL     1      57.140  34.844  80.044  0.00  0.00    +0.000 A 
ATOM     12  C   UNL     1      57.289  35.669  81.161  0.00  0.00    +0.000 A 
ATOM     13  C   UNL     1      57.502  33.500  80.149  0.00  0.00    +0.000 A 
ATOM     14  C   UNL     1      57.791  35.163  82.359  0.00  0.00    +0.000 A 
ATOM     15  C   UNL     1      58.005  32.988  81.344  0.00  0.00    +0.000 A 
ATOM     16  C   UNL     1      58.149  33.822  82.450  0.00  0.00    +0.000 A 
ENDBRANCH   6  11
BRANCH   8  17
ATOM     17  N   UNL     1      55.815  38.513  73.922  0.00  0.00    +0.000 NA
ATOM     18  H   UNL     1      55.996  39.506  74.029  0.00  0.00    +0.000 HD
ATOM     19  H   UNL     1      56.385  38.063  73.217  0.00  0.00    +0.000 HD
ENDBRANCH   8  17
TORSDOF 2
ENDMDL
MODEL 2
REMARK VINA RESULT:      -6.6      3.073      6.364
REMARK  Name = PhIP.pdbqt.pdb
REMARK  2 active torsions:
REMARK  status: ('A' for Active; 'I' for Inactive)
REMARK    1  A    between atoms: N_4  and  C_9
REMARK    2  A    between atoms: C_7  and  C_10
REMARK                            x       y       z     vdW  Elec       q    Type
REMARK                         _______ _______ _______ _____ _____    ______ ____
ROOT
ATOM      1  N   UNL     1      58.207  35.850  81.081  0.00  0.00    +0.000 N 
ATOM      2  N   UNL     1      59.595  34.159  80.138  0.00  0.00    +0.000 NA
ATOM      3  N   UNL     1      59.461  34.921  77.837  0.00  0.00    +0.000 NA
ATOM      4  C   UNL     1      58.309  36.123  79.751  0.00  0.00    +0.000 C 
ATOM      5  C   UNL     1      59.205  34.998  79.213  0.00  0.00    +0.000 C 
ATOM      6  C   UNL     1      57.841  36.759  77.447  0.00  0.00    +0.000 C 
ATOM      7  C   UNL     1      57.683  36.839  78.866  0.00  0.00    +0.000 C 
ATOM      8  C   UNL     1      58.952  34.680  81.249  0.00  0.00    +0.000 C 
ATOM      9  C   UNL     1      57.002  36.124  81.845  0.00  0.00    +0.000 C 
ATOM     10  C   UNL     1      58.801  35.707  77.256  0.00  0.00    +0.000 C 
ENDROOT
BRANCH   6  11
ATOM     11  C   UNL     1      57.234  37.601  76.434  0.00  0.00    +0.000 A 
ATOM     12  C   UNL     1      56.616  38.803  76.786  0.00  0.00    +0.000 A 
ATOM     13  C   UNL     1      57.258  37.226  75.089  0.00  0.00    +0.000 A 
ATOM     14  C   UNL     1      56.031  39.614  75.814  0.00  0.00    +0.000 A 
ATOM     15  C   UNL     1      56.675  38.033  74.114  0.00  0.00    +0.000 A 
ATOM     16  C   UNL     1      56.061  39.228  74.478  0.00  0.00    +0.000 A 
ENDBRANCH   6  11
BRANCH   8  17
ATOM     17  N   UNL     1      59.028  33.932  82.436  0.00  0.00    +0.000 NA
ATOM     18  H   UNL     1      59.306  34.479  83.243  0.00  0.00    +0.000 HD
ATOM     19  H   UNL     1      58.210  33.355  82.589  0.00  0.00    +0.000 HD
ENDBRANCH   8  17
TORSDOF 2
ENDMDL
MODEL 3
REMARK VINA RESULT:      -6.3      3.518      6.372
REMARK  Name = PhIP.pdbqt.pdb
REMARK  2 active torsions:
REMARK  status: ('A' for Active; 'I' for Inactive)
REMARK    1  A    between atoms: N_4  and  C_9
REMARK    2  A    between atoms: C_7  and  C_10
REMARK                            x       y       z     vdW  Elec       q    Type
REMARK                         _______ _______ _______ _____ _____    ______ ____
ROOT
ATOM      1  N   UNL     1      57.736  35.980  82.533  0.00  0.00    +0.000 N 
ATOM      2  N   UNL     1      58.307  33.667  82.591  0.00  0.00    +0.000 NA
ATOM      3  N   UNL     1      58.436  33.338  80.190  0.00  0.00    +0.000 NA
ATOM      4  C   UNL     1      57.908  35.585  81.241  0.00  0.00    +0.000 C 
ATOM      5  C   UNL     1      58.265  34.096  81.356  0.00  0.00    +0.000 C 
ATOM      6  C   UNL     1      57.681  35.274  78.836  0.00  0.00    +0.000 C 
ATOM      7  C   UNL     1      57.601  36.018  80.055  0.00  0.00    +0.000 C 
ATOM      8  C   UNL     1      57.953  34.818  83.278  0.00  0.00    +0.000 C 
ATOM      9  C   UNL     1      56.759  36.983  82.920  0.00  0.00    +0.000 C 
ATOM     10  C   UNL     1      58.134  33.973  79.244  0.00  0.00    +0.000 C 
ENDROOT
BRANCH   6  11
ATOM     11  C   UNL     1      57.439  35.747  77.487  0.00  0.00    +0.000 A 
ATOM     12  C   UNL     1      58.472  36.309  76.734  0.00  0.00    +0.000 A 
ATOM     13  C   UNL     1      56.169  35.648  76.915  0.00  0.00    +0.000 A 
ATOM     14  C   UNL     1      58.243  36.764  75.436  0.00  0.00    +0.000 A 
ATOM     15  C   UNL     1      55.933  36.102  75.619  0.00  0.00    +0.000 A 
ATOM     16  C   UNL     1      56.972  36.661  74.879  0.00  0.00    +0.000 A 
ENDBRANCH   6  11
BRANCH   8  17
ATOM     17  N   UNL     1      57.749  34.694  84.662  0.00  0.00    +0.000 NA
ATOM     18  H   UNL     1      57.252  33.849  84.925  0.00  0.00    +0.000 HD
ATOM     19  H   UNL     1      58.590  34.862  85.200  0.00  0.00    +0.000 HD
ENDBRANCH   8  17
TORSDOF 2
ENDMDL
MODEL 4
REMARK VINA RESULT:      -6.0      1.704      2.759
REMARK  Name = PhIP.pdbqt.pdb
REMARK  2 active torsions:
REMARK  status: ('A' for Active; 'I' for Inactive)
REMARK    1  A    between atoms: N_4  and  C_9
REMARK    2  A    between atoms: C_7  and  C_10
REMARK                            x       y       z     vdW  Elec       q    Type
REMARK                         _______ _______ _______ _____ _____    ______ ____
ROOT
ATOM      1  N   UNL     1      57.847  39.067  74.457  0.00  0.00    +0.000 N 
ATOM      2  N   UNL     1      55.555  39.715  74.388  0.00  0.00    +0.000 NA
ATOM      3  N   UNL     1      54.886  38.642  76.459  0.00  0.00    +0.000 NA
ATOM      4  C   UNL     1      57.269  38.590  75.594  0.00  0.00    +0.000 C 
ATOM      5  C   UNL     1      55.805  39.037  75.478  0.00  0.00    +0.000 C 
ATOM      6  C   UNL     1      56.625  37.206  77.492  0.00  0.00    +0.000 C 
ATOM      7  C   UNL     1      57.536  37.708  76.510  0.00  0.00    +0.000 C 
ATOM      8  C   UNL     1      56.799  39.691  73.776  0.00  0.00    +0.000 C 
ATOM      9  C   UNL     1      58.915  38.364  73.769  0.00  0.00    +0.000 C 
ATOM     10  C   UNL     1      55.386  37.871  77.199  0.00  0.00    +0.000 C 
ENDROOT
BRANCH   6  11
ATOM     11  C   UNL     1      56.907  36.296  78.585  0.00  0.00    +0.000 A 
ATOM     12  C   UNL     1      57.856  35.282  78.440  0.00  0.00    +0.000 A 
ATOM     13  C   UNL     1      56.235  36.417  79.803  0.00  0.00    +0.000 A 
ATOM     14  C   UNL     1      58.129  34.405  79.489  0.00  0.00    +0.000 A 
ATOM     15  C   UNL     1      56.503  35.543  80.855  0.00  0.00    +0.000 A 
ATOM     16  C   UNL     1      57.452  34.536  80.697  0.00  0.00    +0.000 A 
ENDBRANCH   6  11
BRANCH   8  17
ATOM     17  N   UNL     1      56.877  40.215  72.475  0.00  0.00    +0.000 NA
ATOM     18  H   UNL     1      56.032  40.076  71.931  0.00  0.00    +0.000 HD
ATOM     19  H   UNL     1      57.229  41.164  72.454  0.00  0.00    +0.000 HD
ENDBRANCH   8  17
TORSDOF 2
ENDMDL
MODEL 5
REMARK VINA RESULT:      -5.9      4.110      5.721
REMARK  Name = PhIP.pdbqt.pdb
REMARK  2 active torsions:
REMARK  status: ('A' for Active; 'I' for Inactive)
REMARK    1  A    between atoms: N_4  and  C_9
REMARK    2  A    between atoms: C_7  and  C_10
REMARK                            x       y       z     vdW  Elec       q    Type
REMARK                         _______ _______ _______ _____ _____    ______ ____
ROOT
ATOM      1  N   UNL     1      57.542  35.081  80.453  0.00  0.00    +0.000 N 
ATOM      2  N   UNL     1      56.172  36.718  79.396  0.00  0.00    +0.000 NA
ATOM      3  N   UNL     1      57.411  36.835  77.312  0.00  0.00    +0.000 NA
ATOM      4  C   UNL     1      58.050  35.271  79.203  0.00  0.00    +0.000 C 
ATOM      5  C   UNL     1      57.128  36.334  78.589  0.00  0.00    +0.000 C 
ATOM      6  C   UNL     1      59.540  35.563  77.300  0.00  0.00    +0.000 C 
ATOM      7  C   UNL     1      59.157  35.027  78.569  0.00  0.00    +0.000 C 
ATOM      8  C   UNL     1      56.465  35.968  80.523  0.00  0.00    +0.000 C 
ATOM      9  C   UNL     1      58.380  34.778  81.600  0.00  0.00    +0.000 C 
ATOM     10  C   UNL     1      58.452  36.429  76.937  0.00  0.00    +0.000 C 
ENDROOT
BRANCH   6  11
ATOM     11  C   UNL     1      60.720  35.245  76.519  0.00  0.00    +0.000 A 
ATOM     12  C   UNL     1      61.984  35.667  76.936  0.00  0.00    +0.000 A 
ATOM     13  C   UNL     1      60.613  34.511  75.336  0.00  0.00    +0.000 A 
ATOM     14  C   UNL     1      63.120  35.362  76.186  0.00  0.00    +0.000 A 
ATOM     15  C   UNL     1      61.745  34.204  74.583  0.00  0.00    +0.000 A 
ATOM     16  C   UNL     1      62.999  34.630  75.010  0.00  0.00    +0.000 A 
ENDBRANCH   6  11
BRANCH   8  17
ATOM     17  N   UNL     1      55.710  36.235  81.678  0.00  0.00    +0.000 NA
ATOM     18  H   UNL     1      54.803  36.646  81.483  0.00  0.00    +0.000 HD
ATOM     19  H   UNL     1      55.679  35.451  82.317  0.00  0.00    +0.000 HD
ENDBRANCH   8  17
TORSDOF 2
ENDMDL
MODEL 6
REMARK VINA RESULT:      -5.9      2.345      2.353
REMARK  Name = PhIP.pdbqt.pdb
REMARK  2 active torsions:
REMARK  status: ('A' for Active; 'I' for Inactive)
REMARK    1  A    between atoms: N_4  and  C_9
REMARK    2  A    between atoms: C_7  and  C_10
REMARK                            x       y       z     vdW  Elec       q    Type
REMARK                         _______ _______ _______ _____ _____    ______ ____
ROOT
ATOM      1  N   UNL     1      59.407  36.444  74.881  0.00  0.00    +0.000 N 
ATOM      2  N   UNL     1      57.196  36.184  74.033  0.00  0.00    +0.000 NA
ATOM      3  N   UNL     1      56.116  35.740  76.161  0.00  0.00    +0.000 NA
ATOM      4  C   UNL     1      58.597  36.224  75.955  0.00  0.00    +0.000 C 
ATOM      5  C   UNL     1      57.202  36.062  75.336  0.00  0.00    +0.000 C 
ATOM      6  C   UNL     1      57.671  35.459  78.073  0.00  0.00    +0.000 C 
ATOM      7  C   UNL     1      58.725  35.870  77.198  0.00  0.00    +0.000 C 
ATOM      8  C   UNL     1      58.544  36.383  73.784  0.00  0.00    +0.000 C 
ATOM      9  C   UNL     1      60.776  35.964  74.825  0.00  0.00    +0.000 C 
ATOM     10  C   UNL     1      56.492  35.503  77.254  0.00  0.00    +0.000 C 
ENDROOT
BRANCH   6  11
ATOM     11  C   UNL     1      57.758  35.147  79.487  0.00  0.00    +0.000 A 
ATOM     12  C   UNL     1      57.210  36.007  80.440  0.00  0.00    +0.000 A 
ATOM     13  C   UNL     1      58.391  33.980  79.920  0.00  0.00    +0.000 A 
ATOM     14  C   UNL     1      57.292  35.709  81.800  0.00  0.00    +0.000 A 
ATOM     15  C   UNL     1      58.477  33.677  81.278  0.00  0.00    +0.000 A 
ATOM     16  C   UNL     1      57.926  34.544  82.218  0.00  0.00    +0.000 A 
ENDBRANCH   6  11
BRANCH   8  17
ATOM     17  N   UNL     1      58.944  36.412  72.437  0.00  0.00    +0.000 NA
ATOM     18  H   UNL     1      58.713  37.279  71.965  0.00  0.00    +0.000 HD
ATOM     19  H   UNL     1      59.902  36.112  72.305  0.00  0.00    +0.000 HD
ENDBRANCH   8  17
TORSDOF 2
ENDMDL
MODEL 7
REMARK VINA RESULT:      -5.7      3.253      4.907
REMARK  Name = PhIP.pdbqt.pdb
REMARK  2 active torsions:
REMARK  status: ('A' for Active; 'I' for Inactive)
REMARK    1  A    between atoms: N_4  and  C_9
REMARK    2  A    between atoms: C_7  and  C_10
REMARK                            x       y       z     vdW  Elec       q    Type
REMARK                         _______ _______ _______ _____ _____    ______ ____
ROOT
ATOM      1  N   UNL     1      57.738  36.005  79.246  0.00  0.00    +0.000 N 
ATOM      2  N   UNL     1      58.989  33.978  79.196  0.00  0.00    +0.000 NA
ATOM      3  N   UNL     1      58.891  33.515  81.576  0.00  0.00    +0.000 NA
ATOM      4  C   UNL     1      57.768  35.530  80.523  0.00  0.00    +0.000 C 
ATOM      5  C   UNL     1      58.589  34.237  80.414  0.00  0.00    +0.000 C 
ATOM      6  C   UNL     1      57.904  35.332  82.946  0.00  0.00    +0.000 C 
ATOM      7  C   UNL     1      57.554  35.982  81.721  0.00  0.00    +0.000 C 
ATOM      8  C   UNL     1      58.487  35.078  78.518  0.00  0.00    +0.000 C 
ATOM      9  C   UNL     1      57.743  37.425  78.941  0.00  0.00    +0.000 C 
ATOM     10  C   UNL     1      58.555  34.121  82.531  0.00  0.00    +0.000 C 
ENDROOT
BRANCH   6  11
ATOM     11  C   UNL     1      57.600  35.757  84.299  0.00  0.00    +0.000 A 
ATOM     12  C   UNL     1      57.286  37.090  84.572  0.00  0.00    +0.000 A 
ATOM     13  C   UNL     1      57.614  34.841  85.353  0.00  0.00    +0.000 A 
ATOM     14  C   UNL     1      56.994  37.502  85.871  0.00  0.00    +0.000 A 
ATOM     15  C   UNL     1      57.323  35.247  86.654  0.00  0.00    +0.000 A 
ATOM     16  C   UNL     1      57.012  36.580  86.912  0.00  0.00    +0.000 A 
ENDBRANCH   6  11
BRANCH   8  17
ATOM     17  N   UNL     1      58.857  35.216  77.170  0.00  0.00    +0.000 NA
ATOM     18  H   UNL     1      59.860  35.272  77.028  0.00  0.00    +0.000 HD
ATOM     19  H   UNL     1      58.392  34.551  76.564  0.00  0.00    +0.000 HD
ENDBRANCH   8  17
TORSDOF 2
ENDMDL
MODEL 8
REMARK VINA RESULT:      -5.7      4.626      5.767
REMARK  Name = PhIP.pdbqt.pdb
REMARK  2 active torsions:
REMARK  status: ('A' for Active; 'I' for Inactive)
REMARK    1  A    between atoms: N_4  and  C_9
REMARK    2  A    between atoms: C_7  and  C_10
REMARK                            x       y       z     vdW  Elec       q    Type
REMARK                         _______ _______ _______ _____ _____    ______ ____
ROOT
ATOM      1  N   UNL     1      57.866  35.481  79.140  0.00  0.00    +0.000 N 
ATOM      2  N   UNL     1      56.768  36.140  77.131  0.00  0.00    +0.000 NA
ATOM      3  N   UNL     1      58.740  36.177  75.718  0.00  0.00    +0.000 NA
ATOM      4  C   UNL     1      58.818  35.521  78.167  0.00  0.00    +0.000 C 
ATOM      5  C   UNL     1      58.045  35.955  76.913  0.00  0.00    +0.000 C 
ATOM      6  C   UNL     1      60.885  35.857  76.923  0.00  0.00    +0.000 C 
ATOM      7  C   UNL     1      60.114  35.563  78.092  0.00  0.00    +0.000 C 
ATOM      8  C   UNL     1      56.695  35.877  78.490  0.00  0.00    +0.000 C 
ATOM      9  C   UNL     1      58.147  35.829  80.522  0.00  0.00    +0.000 C 
ATOM     10  C   UNL     1      59.903  36.117  75.907  0.00  0.00    +0.000 C 
ENDROOT
BRANCH   6  11
ATOM     11  C   UNL     1      62.327  35.822  76.776  0.00  0.00    +0.000 A 
ATOM     12  C   UNL     1      63.036  36.978  76.443  0.00  0.00    +0.000 A 
ATOM     13  C   UNL     1      63.033  34.633  76.965  0.00  0.00    +0.000 A 
ATOM     14  C   UNL     1      64.423  36.948  76.300  0.00  0.00    +0.000 A 
ATOM     15  C   UNL     1      64.420  34.596  76.824  0.00  0.00    +0.000 A 
ATOM     16  C   UNL     1      65.114  35.756  76.491  0.00  0.00    +0.000 A 
ENDBRANCH   6  11
BRANCH   8  17
ATOM     17  N   UNL     1      55.463  36.124  79.119  0.00  0.00    +0.000 NA
ATOM     18  H   UNL     1      55.028  35.290  79.499  0.00  0.00    +0.000 HD
ATOM     19  H   UNL     1      55.502  36.901  79.767  0.00  0.00    +0.000 HD
ENDBRANCH   8  17
TORSDOF 2
ENDMDL
MODEL 9
REMARK VINA RESULT:      -5.5      4.290      4.840
REMARK  Name = PhIP.pdbqt.pdb
REMARK  2 active torsions:
REMARK  status: ('A' for Active; 'I' for Inactive)
REMARK    1  A    between atoms: N_4  and  C_9
REMARK    2  A    between atoms: C_7  and  C_10
REMARK                            x       y       z     vdW  Elec       q    Type
REMARK                         _______ _______ _______ _____ _____    ______ ____
ROOT
ATOM      1  N   UNL     1      56.542  36.785  77.079  0.00  0.00    +0.000 N 
ATOM      2  N   UNL     1      55.839  36.669  74.806  0.00  0.00    +0.000 NA
ATOM      3  N   UNL     1      57.796  35.515  73.954  0.00  0.00    +0.000 NA
ATOM      4  C   UNL     1      57.511  36.108  76.403  0.00  0.00    +0.000 C 
ATOM      5  C   UNL     1      56.996  36.077  74.956  0.00  0.00    +0.000 C 
ATOM      6  C   UNL     1      59.644  35.261  75.589  0.00  0.00    +0.000 C 
ATOM      7  C   UNL     1      58.752  35.770  76.584  0.00  0.00    +0.000 C 
ATOM      8  C   UNL     1      55.604  37.113  76.097  0.00  0.00    +0.000 C 
ATOM      9  C   UNL     1      56.838  37.661  78.199  0.00  0.00    +0.000 C 
ATOM     10  C   UNL     1      58.862  35.251  74.384  0.00  0.00    +0.000 C 
ENDROOT
BRANCH   6  11
ATOM     11  C   UNL     1      61.002  34.786  75.770  0.00  0.00    +0.000 A 
ATOM     12  C   UNL     1      61.846  35.385  76.707  0.00  0.00    +0.000 A 
ATOM     13  C   UNL     1      61.490  33.720  75.011  0.00  0.00    +0.000 A 
ATOM     14  C   UNL     1      63.152  34.931  76.883  0.00  0.00    +0.000 A 
ATOM     15  C   UNL     1      62.795  33.262  75.183  0.00  0.00    +0.000 A 
ATOM     16  C   UNL     1      63.626  33.869  76.120  0.00  0.00    +0.000 A 
ENDBRANCH   6  11
BRANCH   8  17
ATOM     17  N   UNL     1      54.485  37.941  76.290  0.00  0.00    +0.000 NA
ATOM     18  H   UNL     1      53.781  37.534  76.896  0.00  0.00    +0.000 HD
ATOM     19  H   UNL     1      54.736  38.892  76.530  0.00  0.00    +0.000 HD
ENDBRANCH   8  17
TORSDOF 2
ENDMDL
