MODEL 1
REMARK VINA RESULT:      -6.0      0.000      0.000
REMARK  Name = Piroxicam.pdbqt.pdb
REMARK  3 active torsions:
REMARK  status: ('A' for Active; 'I' for Inactive)
REMARK    1  A    between atoms: C_7  and  C_14
REMARK    2  A    between atoms: C_8  and  O_24
REMARK    3  A    between atoms: N_16  and  C_18
REMARK                            x       y       z     vdW  Elec       q    Type
REMARK                         _______ _______ _______ _____ _____    ______ ____
ROOT
ATOM      1  S   UNL     1      14.468   8.995 100.266  0.00  0.00    +0.000 S 
ATOM      2  O   UNL     1      14.843   8.282 101.473  0.00  0.00    +0.000 OA
ATOM      3  O   UNL     1      15.213  10.161  99.834  0.00  0.00    +0.000 OA
ATOM      4  N   UNL     1      14.330   7.859  98.979  0.00  0.00    +0.000 N 
ATOM      5  C   UNL     1      12.795   9.468 100.473  0.00  0.00    +0.000 A 
ATOM      6  C   UNL     1      11.819   8.505 100.224  0.00  0.00    +0.000 A 
ATOM      7  C   UNL     1      13.362   6.829  99.226  0.00  0.00    +0.000 C 
ATOM      8  C   UNL     1      12.183   7.135  99.817  0.00  0.00    +0.000 C 
ATOM      9  C   UNL     1      12.488  10.773 100.842  0.00  0.00    +0.000 A 
ATOM     10  C   UNL     1      14.264   8.364  97.597  0.00  0.00    +0.000 C 
ATOM     11  C   UNL     1      10.485   8.879 100.398  0.00  0.00    +0.000 A 
ATOM     12  C   UNL     1      11.152  11.125 100.996  0.00  0.00    +0.000 A 
ATOM     13  C   UNL     1      10.152  10.180 100.781  0.00  0.00    +0.000 A 
ENDROOT
BRANCH   7  14
ATOM     14  C   UNL     1      13.695   5.421  98.833  0.00  0.00    +0.000 C 
ATOM     15  O   UNL     1      14.845   5.011  98.980  0.00  0.00    +0.000 OA
ATOM     16  N   UNL     1      12.648   4.697  98.322  0.00  0.00    +0.000 N 
ATOM     17  H   UNL     1      11.715   5.091  98.297  0.00  0.00    +0.000 HD
BRANCH  16  18
ATOM     18  C   UNL     1      12.697   3.382  97.858  0.00  0.00    +0.000 A 
ATOM     19  N   UNL     1      13.128   3.258  96.586  0.00  0.00    +0.000 NA
ATOM     20  C   UNL     1      13.198   2.003  96.086  0.00  0.00    +0.000 A 
ATOM     21  C   UNL     1      12.862   0.862  96.792  0.00  0.00    +0.000 A 
ATOM     22  C   UNL     1      12.425   1.024  98.099  0.00  0.00    +0.000 A 
ATOM     23  C   UNL     1      12.339   2.298  98.647  0.00  0.00    +0.000 A 
ENDBRANCH  16  18
ENDBRANCH   7  14
BRANCH   8  24
ATOM     24  O   UNL     1      11.195   6.203 100.088  0.00  0.00    +0.000 OA
ATOM     25  H   UNL     1      10.397   6.660 100.440  0.00  0.00    +0.000 HD
ENDBRANCH   8  24
TORSDOF 3
ENDMDL
MODEL 2
REMARK VINA RESULT:      -5.8     43.500     45.994
REMARK  Name = Piroxicam.pdbqt.pdb
REMARK  3 active torsions:
REMARK  status: ('A' for Active; 'I' for Inactive)
REMARK    1  A    between atoms: C_7  and  C_14
REMARK    2  A    between atoms: C_8  and  O_24
REMARK    3  A    between atoms: N_16  and  C_18
REMARK                            x       y       z     vdW  Elec       q    Type
REMARK                         _______ _______ _______ _____ _____    ______ ____
ROOT
ATOM      1  S   UNL     1      52.626  18.692  77.265  0.00  0.00    +0.000 S 
ATOM      2  O   UNL     1      53.914  18.242  77.758  0.00  0.00    +0.000 OA
ATOM      3  O   UNL     1      51.985  18.022  76.150  0.00  0.00    +0.000 OA
ATOM      4  N   UNL     1      51.541  18.812  78.598  0.00  0.00    +0.000 N 
ATOM      5  C   UNL     1      52.821  20.380  76.843  0.00  0.00    +0.000 A 
ATOM      6  C   UNL     1      52.767  21.312  77.878  0.00  0.00    +0.000 A 
ATOM      7  C   UNL     1      51.986  19.717  79.619  0.00  0.00    +0.000 C 
ATOM      8  C   UNL     1      52.567  20.890  79.277  0.00  0.00    +0.000 C 
ATOM      9  C   UNL     1      52.991  20.743  75.512  0.00  0.00    +0.000 A 
ATOM     10  C   UNL     1      50.100  18.948  78.323  0.00  0.00    +0.000 C 
ATOM     11  C   UNL     1      52.933  22.657  77.543  0.00  0.00    +0.000 A 
ATOM     12  C   UNL     1      53.141  22.089  75.202  0.00  0.00    +0.000 A 
ATOM     13  C   UNL     1      53.118  23.045  76.215  0.00  0.00    +0.000 A 
ENDROOT
BRANCH   7  14
ATOM     14  C   UNL     1      51.807  19.323  81.055  0.00  0.00    +0.000 C 
ATOM     15  O   UNL     1      52.138  18.195  81.416  0.00  0.00    +0.000 OA
ATOM     16  N   UNL     1      51.265  20.292  81.859  0.00  0.00    +0.000 N 
ATOM     17  H   UNL     1      51.081  21.220  81.495  0.00  0.00    +0.000 HD
BRANCH  16  18
ATOM     18  C   UNL     1      50.971  20.174  83.218  0.00  0.00    +0.000 A 
ATOM     19  N   UNL     1      49.659  20.275  83.513  0.00  0.00    +0.000 NA
ATOM     20  C   UNL     1      49.317  20.163  84.817  0.00  0.00    +0.000 A 
ATOM     21  C   UNL     1      50.219  19.953  85.845  0.00  0.00    +0.000 A 
ATOM     22  C   UNL     1      51.561  19.852  85.508  0.00  0.00    +0.000 A 
ATOM     23  C   UNL     1      51.950  19.962  84.178  0.00  0.00    +0.000 A 
ENDBRANCH  16  18
ENDBRANCH   7  14
BRANCH   8  24
ATOM     24  O   UNL     1      53.021  21.820  80.198  0.00  0.00    +0.000 OA
ATOM     25  H   UNL     1      53.979  21.674  80.371  0.00  0.00    +0.000 HD
ENDBRANCH   8  24
TORSDOF 3
ENDMDL
MODEL 3
REMARK VINA RESULT:      -5.5     44.339     46.796
REMARK  Name = Piroxicam.pdbqt.pdb
REMARK  3 active torsions:
REMARK  status: ('A' for Active; 'I' for Inactive)
REMARK    1  A    between atoms: C_7  and  C_14
REMARK    2  A    between atoms: C_8  and  O_24
REMARK    3  A    between atoms: N_16  and  C_18
REMARK                            x       y       z     vdW  Elec       q    Type
REMARK                         _______ _______ _______ _____ _____    ______ ____
ROOT
ATOM      1  S   UNL     1      43.385  37.771  85.528  0.00  0.00    +0.000 S 
ATOM      2  O   UNL     1      44.009  38.960  84.977  0.00  0.00    +0.000 OA
ATOM      3  O   UNL     1      42.213  37.875  86.375  0.00  0.00    +0.000 OA
ATOM      4  N   UNL     1      43.102  36.657  84.245  0.00  0.00    +0.000 N 
ATOM      5  C   UNL     1      44.631  36.933  86.428  0.00  0.00    +0.000 A 
ATOM      6  C   UNL     1      45.527  36.146  85.706  0.00  0.00    +0.000 A 
ATOM      7  C   UNL     1      44.296  36.271  83.548  0.00  0.00    +0.000 C 
ATOM      8  C   UNL     1      45.437  36.036  84.237  0.00  0.00    +0.000 C 
ATOM      9  C   UNL     1      44.676  37.046  87.813  0.00  0.00    +0.000 A 
ATOM     10  C   UNL     1      42.207  35.513  84.490  0.00  0.00    +0.000 C 
ATOM     11  C   UNL     1      46.526  35.484  86.423  0.00  0.00    +0.000 A 
ATOM     12  C   UNL     1      45.672  36.368  88.505  0.00  0.00    +0.000 A 
ATOM     13  C   UNL     1      46.600  35.593  87.812  0.00  0.00    +0.000 A 
ENDROOT
BRANCH   7  14
ATOM     14  C   UNL     1      44.249  36.154  82.054  0.00  0.00    +0.000 C 
ATOM     15  O   UNL     1      44.235  35.038  81.537  0.00  0.00    +0.000 OA
ATOM     16  N   UNL     1      44.231  37.347  81.378  0.00  0.00    +0.000 N 
ATOM     17  H   UNL     1      44.178  38.224  81.884  0.00  0.00    +0.000 HD
BRANCH  16  18
ATOM     18  C   UNL     1      44.216  37.517  79.993  0.00  0.00    +0.000 A 
ATOM     19  N   UNL     1      45.399  37.893  79.467  0.00  0.00    +0.000 NA
ATOM     20  C   UNL     1      45.442  38.068  78.126  0.00  0.00    +0.000 A 
ATOM     21  C   UNL     1      44.363  37.884  77.281  0.00  0.00    +0.000 A 
ATOM     22  C   UNL     1      43.161  37.494  77.853  0.00  0.00    +0.000 A 
ATOM     23  C   UNL     1      43.078  37.305  79.228  0.00  0.00    +0.000 A 
ENDBRANCH  16  18
ENDBRANCH   7  14
BRANCH   8  24
ATOM     24  O   UNL     1      46.629  35.657  83.644  0.00  0.00    +0.000 OA
ATOM     25  H   UNL     1      47.069  36.445  83.251  0.00  0.00    +0.000 HD
ENDBRANCH   8  24
TORSDOF 3
ENDMDL
MODEL 4
REMARK VINA RESULT:      -5.3     15.676     17.837
REMARK  Name = Piroxicam.pdbqt.pdb
REMARK  3 active torsions:
REMARK  status: ('A' for Active; 'I' for Inactive)
REMARK    1  A    between atoms: C_7  and  C_14
REMARK    2  A    between atoms: C_8  and  O_24
REMARK    3  A    between atoms: N_16  and  C_18
REMARK                            x       y       z     vdW  Elec       q    Type
REMARK                         _______ _______ _______ _____ _____    ______ ____
ROOT
ATOM      1  S   UNL     1      20.394   8.118  82.755  0.00  0.00    +0.000 S 
ATOM      2  O   UNL     1      19.184   8.782  83.202  0.00  0.00    +0.000 OA
ATOM      3  O   UNL     1      20.747   8.089  81.349  0.00  0.00    +0.000 OA
ATOM      4  N   UNL     1      21.716   8.700  83.694  0.00  0.00    +0.000 N 
ATOM      5  C   UNL     1      20.287   6.465  83.320  0.00  0.00    +0.000 A 
ATOM      6  C   UNL     1      20.625   6.216  84.649  0.00  0.00    +0.000 A 
ATOM      7  C   UNL     1      21.560   8.476  85.103  0.00  0.00    +0.000 C 
ATOM      8  C   UNL     1      21.041   7.308  85.550  0.00  0.00    +0.000 C 
ATOM      9  C   UNL     1      19.907   5.458  82.440  0.00  0.00    +0.000 A 
ATOM     10  C   UNL     1      23.087   8.415  83.234  0.00  0.00    +0.000 C 
ATOM     11  C   UNL     1      20.530   4.899  85.103  0.00  0.00    +0.000 A 
ATOM     12  C   UNL     1      19.833   4.153  82.912  0.00  0.00    +0.000 A 
ATOM     13  C   UNL     1      20.138   3.873  84.242  0.00  0.00    +0.000 A 
ENDROOT
BRANCH   7  14
ATOM     14  C   UNL     1      21.966   9.564  86.052  0.00  0.00    +0.000 C 
ATOM     15  O   UNL     1      21.245  10.552  86.179  0.00  0.00    +0.000 OA
ATOM     16  N   UNL     1      23.150   9.349  86.710  0.00  0.00    +0.000 N 
ATOM     17  H   UNL     1      23.650   8.474  86.596  0.00  0.00    +0.000 HD
BRANCH  16  18
ATOM     18  C   UNL     1      23.762  10.211  87.619  0.00  0.00    +0.000 A 
ATOM     19  N   UNL     1      23.880   9.711  88.866  0.00  0.00    +0.000 NA
ATOM     20  C   UNL     1      24.471  10.504  89.788  0.00  0.00    +0.000 A 
ATOM     21  C   UNL     1      24.955  11.774  89.530  0.00  0.00    +0.000 A 
ATOM     22  C   UNL     1      24.821  12.258  88.237  0.00  0.00    +0.000 A 
ATOM     23  C   UNL     1      24.218  11.472  87.262  0.00  0.00    +0.000 A 
ENDBRANCH  16  18
ENDBRANCH   7  14
BRANCH   8  24
ATOM     24  O   UNL     1      20.861   7.011  86.890  0.00  0.00    +0.000 OA
ATOM     25  H   UNL     1      20.674   7.838  87.391  0.00  0.00    +0.000 HD
ENDBRANCH   8  24
TORSDOF 3
ENDMDL
MODEL 5
REMARK VINA RESULT:      -5.3      2.468      2.824
REMARK  Name = Piroxicam.pdbqt.pdb
REMARK  3 active torsions:
REMARK  status: ('A' for Active; 'I' for Inactive)
REMARK    1  A    between atoms: C_7  and  C_14
REMARK    2  A    between atoms: C_8  and  O_24
REMARK    3  A    between atoms: N_16  and  C_18
REMARK                            x       y       z     vdW  Elec       q    Type
REMARK                         _______ _______ _______ _____ _____    ______ ____
ROOT
ATOM      1  S   UNL     1      14.146   9.310 101.350  0.00  0.00    +0.000 S 
ATOM      2  O   UNL     1      14.225   8.479 102.537  0.00  0.00    +0.000 OA
ATOM      3  O   UNL     1      14.770  10.619 101.319  0.00  0.00    +0.000 OA
ATOM      4  N   UNL     1      14.645   8.375  99.993  0.00  0.00    +0.000 N 
ATOM      5  C   UNL     1      12.442   9.515 101.004  0.00  0.00    +0.000 A 
ATOM      6  C   UNL     1      11.792   8.477 100.339  0.00  0.00    +0.000 A 
ATOM      7  C   UNL     1      13.851   7.197  99.786  0.00  0.00    +0.000 C 
ATOM      8  C   UNL     1      12.509   7.246  99.954  0.00  0.00    +0.000 C 
ATOM      9  C   UNL     1      11.801  10.694 101.366  0.00  0.00    +0.000 A 
ATOM     10  C   UNL     1      14.947   9.070  98.730  0.00  0.00    +0.000 C 
ATOM     11  C   UNL     1      10.431   8.635 100.071  0.00  0.00    +0.000 A 
ATOM     12  C   UNL     1      10.449  10.834 101.077  0.00  0.00    +0.000 A 
ATOM     13  C   UNL     1       9.762   9.805 100.437  0.00  0.00    +0.000 A 
ENDROOT
BRANCH   7  14
ATOM     14  C   UNL     1      14.543   5.923  99.401  0.00  0.00    +0.000 C 
ATOM     15  O   UNL     1      14.430   5.500  98.251  0.00  0.00    +0.000 OA
ATOM     16  N   UNL     1      15.259   5.324 100.405  0.00  0.00    +0.000 N 
ATOM     17  H   UNL     1      15.355   5.775 101.308  0.00  0.00    +0.000 HD
BRANCH  16  18
ATOM     18  C   UNL     1      15.967   4.125 100.318  0.00  0.00    +0.000 A 
ATOM     19  N   UNL     1      17.306   4.264 100.396  0.00  0.00    +0.000 NA
ATOM     20  C   UNL     1      18.042   3.132 100.321  0.00  0.00    +0.000 A 
ATOM     21  C   UNL     1      17.510   1.863 100.176  0.00  0.00    +0.000 A 
ATOM     22  C   UNL     1      16.129   1.754 100.102  0.00  0.00    +0.000 A 
ATOM     23  C   UNL     1      15.339   2.896 100.174  0.00  0.00    +0.000 A 
ENDBRANCH  16  18
ENDBRANCH   7  14
BRANCH   8  24
ATOM     24  O   UNL     1      11.672   6.159  99.772  0.00  0.00    +0.000 OA
ATOM     25  H   UNL     1      11.772   5.533 100.526  0.00  0.00    +0.000 HD
ENDBRANCH   8  24
TORSDOF 3
ENDMDL
MODEL 6
REMARK VINA RESULT:      -5.3     45.258     47.467
REMARK  Name = Piroxicam.pdbqt.pdb
REMARK  3 active torsions:
REMARK  status: ('A' for Active; 'I' for Inactive)
REMARK    1  A    between atoms: C_7  and  C_14
REMARK    2  A    between atoms: C_8  and  O_24
REMARK    3  A    between atoms: N_16  and  C_18
REMARK                            x       y       z     vdW  Elec       q    Type
REMARK                         _______ _______ _______ _____ _____    ______ ____
ROOT
ATOM      1  S   UNL     1      50.142  17.069  77.298  0.00  0.00    +0.000 S 
ATOM      2  O   UNL     1      49.783  17.765  76.076  0.00  0.00    +0.000 OA
ATOM      3  O   UNL     1      49.227  16.123  77.907  0.00  0.00    +0.000 OA
ATOM      4  N   UNL     1      51.693  16.351  77.084  0.00  0.00    +0.000 N 
ATOM      5  C   UNL     1      50.509  18.307  78.481  0.00  0.00    +0.000 A 
ATOM      6  C   UNL     1      51.771  18.894  78.427  0.00  0.00    +0.000 A 
ATOM      7  C   UNL     1      52.725  17.300  76.772  0.00  0.00    +0.000 C 
ATOM      8  C   UNL     1      52.756  18.497  77.402  0.00  0.00    +0.000 C 
ATOM      9  C   UNL     1      49.563  18.644  79.442  0.00  0.00    +0.000 A 
ATOM     10  C   UNL     1      52.143  15.340  78.056  0.00  0.00    +0.000 C 
ATOM     11  C   UNL     1      52.061  19.887  79.364  0.00  0.00    +0.000 A 
ATOM     12  C   UNL     1      49.879  19.626  80.373  0.00  0.00    +0.000 A 
ATOM     13  C   UNL     1      51.123  20.252  80.331  0.00  0.00    +0.000 A 
ENDROOT
BRANCH   7  14
ATOM     14  C   UNL     1      53.742  16.938  75.731  0.00  0.00    +0.000 C 
ATOM     15  O   UNL     1      53.396  16.857  74.554  0.00  0.00    +0.000 OA
ATOM     16  N   UNL     1      55.008  16.718  76.209  0.00  0.00    +0.000 N 
ATOM     17  H   UNL     1      55.223  16.872  77.188  0.00  0.00    +0.000 HD
BRANCH  16  18
ATOM     18  C   UNL     1      56.124  16.344  75.460  0.00  0.00    +0.000 A 
ATOM     19  N   UNL     1      57.159  17.206  75.536  0.00  0.00    +0.000 NA
ATOM     20  C   UNL     1      58.269  16.890  74.832  0.00  0.00    +0.000 A 
ATOM     21  C   UNL     1      58.403  15.753  74.055  0.00  0.00    +0.000 A 
ATOM     22  C   UNL     1      57.322  14.886  74.000  0.00  0.00    +0.000 A 
ATOM     23  C   UNL     1      56.163  15.178  74.709  0.00  0.00    +0.000 A 
ENDBRANCH  16  18
ENDBRANCH   7  14
BRANCH   8  24
ATOM     24  O   UNL     1      53.717  19.466  77.164  0.00  0.00    +0.000 OA
ATOM     25  H   UNL     1      53.623  20.194  77.819  0.00  0.00    +0.000 HD
ENDBRANCH   8  24
TORSDOF 3
ENDMDL
MODEL 7
REMARK VINA RESULT:      -5.2     46.147     48.108
REMARK  Name = Piroxicam.pdbqt.pdb
REMARK  3 active torsions:
REMARK  status: ('A' for Active; 'I' for Inactive)
REMARK    1  A    between atoms: C_7  and  C_14
REMARK    2  A    between atoms: C_8  and  O_24
REMARK    3  A    between atoms: N_16  and  C_18
REMARK                            x       y       z     vdW  Elec       q    Type
REMARK                         _______ _______ _______ _____ _____    ______ ____
ROOT
ATOM      1  S   UNL     1      43.648  25.423  69.075  0.00  0.00    +0.000 S 
ATOM      2  O   UNL     1      44.034  25.828  67.737  0.00  0.00    +0.000 OA
ATOM      3  O   UNL     1      42.347  24.832  69.323  0.00  0.00    +0.000 OA
ATOM      4  N   UNL     1      44.893  24.427  69.727  0.00  0.00    +0.000 N 
ATOM      5  C   UNL     1      43.798  26.846  70.085  0.00  0.00    +0.000 A 
ATOM      6  C   UNL     1      45.072  27.181  70.539  0.00  0.00    +0.000 A 
ATOM      7  C   UNL     1      46.171  25.078  69.793  0.00  0.00    +0.000 C 
ATOM      8  C   UNL     1      46.252  26.375  70.170  0.00  0.00    +0.000 C 
ATOM      9  C   UNL     1      42.663  27.572  70.425  0.00  0.00    +0.000 A 
ATOM     10  C   UNL     1      44.606  23.642  70.940  0.00  0.00    +0.000 C 
ATOM     11  C   UNL     1      45.193  28.321  71.335  0.00  0.00    +0.000 A 
ATOM     12  C   UNL     1      42.807  28.696  71.230  0.00  0.00    +0.000 A 
ATOM     13  C   UNL     1      44.070  29.074  71.680  0.00  0.00    +0.000 A 
ENDROOT
BRANCH   7  14
ATOM     14  C   UNL     1      47.395  24.295  69.420  0.00  0.00    +0.000 C 
ATOM     15  O   UNL     1      48.042  24.626  68.428  0.00  0.00    +0.000 OA
ATOM     16  N   UNL     1      47.685  23.242  70.249  0.00  0.00    +0.000 N 
ATOM     17  H   UNL     1      47.136  23.079  71.085  0.00  0.00    +0.000 HD
BRANCH  16  18
ATOM     18  C   UNL     1      48.745  22.345  70.111  0.00  0.00    +0.000 A 
ATOM     19  N   UNL     1      48.425  21.203  69.468  0.00  0.00    +0.000 NA
ATOM     20  C   UNL     1      49.417  20.298  69.302  0.00  0.00    +0.000 A 
ATOM     21  C   UNL     1      50.716  20.475  69.743  0.00  0.00    +0.000 A 
ATOM     22  C   UNL     1      51.013  21.662  70.398  0.00  0.00    +0.000 A 
ATOM     23  C   UNL     1      50.019  22.615  70.588  0.00  0.00    +0.000 A 
ENDBRANCH  16  18
ENDBRANCH   7  14
BRANCH   8  24
ATOM     24  O   UNL     1      47.443  27.075  70.263  0.00  0.00    +0.000 OA
ATOM     25  H   UNL     1      47.933  26.790  71.068  0.00  0.00    +0.000 HD
ENDBRANCH   8  24
TORSDOF 3
ENDMDL
MODEL 8
REMARK VINA RESULT:      -5.1     46.556     48.241
REMARK  Name = Piroxicam.pdbqt.pdb
REMARK  3 active torsions:
REMARK  status: ('A' for Active; 'I' for Inactive)
REMARK    1  A    between atoms: C_7  and  C_14
REMARK    2  A    between atoms: C_8  and  O_24
REMARK    3  A    between atoms: N_16  and  C_18
REMARK                            x       y       z     vdW  Elec       q    Type
REMARK                         _______ _______ _______ _____ _____    ______ ____
ROOT
ATOM      1  S   UNL     1      43.498  36.364  81.468  0.00  0.00    +0.000 S 
ATOM      2  O   UNL     1      44.069  35.039  81.307  0.00  0.00    +0.000 OA
ATOM      3  O   UNL     1      42.078  36.586  81.281  0.00  0.00    +0.000 OA
ATOM      4  N   UNL     1      44.011  37.001  82.984  0.00  0.00    +0.000 N 
ATOM      5  C   UNL     1      44.361  37.410  80.360  0.00  0.00    +0.000 A 
ATOM      6  C   UNL     1      45.609  37.883  80.761  0.00  0.00    +0.000 A 
ATOM      7  C   UNL     1      45.438  37.093  83.113  0.00  0.00    +0.000 C 
ATOM      8  C   UNL     1      46.188  37.503  82.064  0.00  0.00    +0.000 C 
ATOM      9  C   UNL     1      43.778  37.760  79.147  0.00  0.00    +0.000 A 
ATOM     10  C   UNL     1      43.327  38.191  83.517  0.00  0.00    +0.000 C 
ATOM     11  C   UNL     1      46.301  38.709  79.873  0.00  0.00    +0.000 A 
ATOM     12  C   UNL     1      44.481  38.594  78.286  0.00  0.00    +0.000 A 
ATOM     13  C   UNL     1      45.743  39.063  78.644  0.00  0.00    +0.000 A 
ENDROOT
BRANCH   7  14
ATOM     14  C   UNL     1      46.067  36.711  84.420  0.00  0.00    +0.000 C 
ATOM     15  O   UNL     1      45.954  35.556  84.828  0.00  0.00    +0.000 OA
ATOM     16  N   UNL     1      46.728  37.725  85.064  0.00  0.00    +0.000 N 
ATOM     17  H   UNL     1      46.830  38.633  84.626  0.00  0.00    +0.000 HD
BRANCH  16  18
ATOM     18  C   UNL     1      47.372  37.642  86.300  0.00  0.00    +0.000 A 
ATOM     19  N   UNL     1      48.465  38.423  86.409  0.00  0.00    +0.000 NA
ATOM     20  C   UNL     1      49.126  38.385  87.589  0.00  0.00    +0.000 A 
ATOM     21  C   UNL     1      48.750  37.608  88.670  0.00  0.00    +0.000 A 
ATOM     22  C   UNL     1      47.618  36.817  88.525  0.00  0.00    +0.000 A 
ATOM     23  C   UNL     1      46.914  36.829  87.327  0.00  0.00    +0.000 A 
ENDBRANCH  16  18
ENDBRANCH   7  14
BRANCH   8  24
ATOM     24  O   UNL     1      47.567  37.623  82.106  0.00  0.00    +0.000 OA
ATOM     25  H   UNL     1      47.870  37.635  83.042  0.00  0.00    +0.000 HD
ENDBRANCH   8  24
TORSDOF 3
ENDMDL
MODEL 9
REMARK VINA RESULT:      -5.1     33.417     36.328
REMARK  Name = Piroxicam.pdbqt.pdb
REMARK  3 active torsions:
REMARK  status: ('A' for Active; 'I' for Inactive)
REMARK    1  A    between atoms: C_7  and  C_14
REMARK    2  A    between atoms: C_8  and  O_24
REMARK    3  A    between atoms: N_16  and  C_18
REMARK                            x       y       z     vdW  Elec       q    Type
REMARK                         _______ _______ _______ _____ _____    ______ ____
ROOT
ATOM      1  S   UNL     1      39.065  22.468  85.927  0.00  0.00    +0.000 S 
ATOM      2  O   UNL     1      40.387  22.097  86.396  0.00  0.00    +0.000 OA
ATOM      3  O   UNL     1      37.979  22.678  86.864  0.00  0.00    +0.000 OA
ATOM      4  N   UNL     1      39.218  23.822  84.873  0.00  0.00    +0.000 N 
ATOM      5  C   UNL     1      38.574  21.222  84.799  0.00  0.00    +0.000 A 
ATOM      6  C   UNL     1      39.072  21.298  83.500  0.00  0.00    +0.000 A 
ATOM      7  C   UNL     1      40.057  23.570  83.736  0.00  0.00    +0.000 C 
ATOM      8  C   UNL     1      39.990  22.380  83.095  0.00  0.00    +0.000 C 
ATOM      9  C   UNL     1      37.695  20.227  85.211  0.00  0.00    +0.000 A 
ATOM     10  C   UNL     1      38.004  24.575  84.512  0.00  0.00    +0.000 C 
ATOM     11  C   UNL     1      38.689  20.300  82.603  0.00  0.00    +0.000 A 
ATOM     12  C   UNL     1      37.317  19.251  84.296  0.00  0.00    +0.000 A 
ATOM     13  C   UNL     1      37.817  19.283  82.996  0.00  0.00    +0.000 A 
ENDROOT
BRANCH   7  14
ATOM     14  C   UNL     1      41.010  24.641  83.295  0.00  0.00    +0.000 C 
ATOM     15  O   UNL     1      41.049  24.961  82.108  0.00  0.00    +0.000 OA
ATOM     16  N   UNL     1      41.780  25.180  84.294  0.00  0.00    +0.000 N 
ATOM     17  H   UNL     1      41.637  24.905  85.259  0.00  0.00    +0.000 HD
BRANCH  16  18
ATOM     18  C   UNL     1      42.757  26.165  84.148  0.00  0.00    +0.000 A 
ATOM     19  N   UNL     1      42.299  27.426  84.284  0.00  0.00    +0.000 NA
ATOM     20  C   UNL     1      43.205  28.422  84.156  0.00  0.00    +0.000 A 
ATOM     21  C   UNL     1      44.551  28.224  83.901  0.00  0.00    +0.000 A 
ATOM     22  C   UNL     1      44.991  26.915  83.770  0.00  0.00    +0.000 A 
ATOM     23  C   UNL     1      44.088  25.865  83.894  0.00  0.00    +0.000 A 
ENDBRANCH  16  18
ENDBRANCH   7  14
BRANCH   8  24
ATOM     24  O   UNL     1      40.761  22.058  81.990  0.00  0.00    +0.000 OA
ATOM     25  H   UNL     1      40.329  22.400  81.174  0.00  0.00    +0.000 HD
ENDBRANCH   8  24
TORSDOF 3
ENDMDL
