MODEL 1
REMARK VINA RESULT:      -7.3      0.000      0.000
REMARK  Name = PKR_Inhibitor.pdbqt.pdb
REMARK  0 active torsions:
REMARK  status: ('A' for Active; 'I' for Inactive)
REMARK                            x       y       z     vdW  Elec       q    Type
REMARK                         _______ _______ _______ _____ _____    ______ ____
ROOT
ATOM      1  S   UNL     1      59.707  36.413  75.663  0.00  0.00    +0.000 S 
ATOM      2  O   UNL     1      53.956  36.951  75.918  0.00  0.00    +0.000 OA
ATOM      3  N   UNL     1      55.214  35.841  77.558  0.00  0.00    +0.000 N 
ATOM      4  N   UNL     1      60.654  35.106  77.704  0.00  0.00    +0.000 NA
ATOM      5  C   UNL     1      57.328  36.072  76.732  0.00  0.00    +0.000 A 
ATOM      6  C   UNL     1      56.548  35.545  77.791  0.00  0.00    +0.000 A 
ATOM      7  C   UNL     1      56.380  36.735  75.792  0.00  0.00    +0.000 C 
ATOM      8  C   UNL     1      58.661  35.853  76.834  0.00  0.00    +0.000 A 
ATOM      9  C   UNL     1      55.010  36.556  76.378  0.00  0.00    +0.000 C 
ATOM     10  C   UNL     1      59.280  35.177  77.863  0.00  0.00    +0.000 A 
ATOM     11  C   UNL     1      57.056  34.846  78.883  0.00  0.00    +0.000 A 
ATOM     12  C   UNL     1      56.604  37.359  74.680  0.00  0.00    +0.000 C 
ATOM     13  C   UNL     1      58.459  34.671  78.898  0.00  0.00    +0.000 A 
ATOM     14  C   UNL     1      60.977  35.722  76.585  0.00  0.00    +0.000 A 
ATOM     15  H   UNL     1      54.449  35.578  78.165  0.00  0.00    +0.000 HD
ATOM     16  C   UNL     1      56.764  38.054  73.458  0.00  0.00    +0.000 C 
ATOM     17  N   UNL     1      55.747  38.604  72.729  0.00  0.00    +0.000 N 
ATOM     18  C   UNL     1      56.299  39.184  71.621  0.00  0.00    +0.000 C 
ATOM     19  H   UNL     1      54.763  38.587  72.960  0.00  0.00    +0.000 HD
ATOM     20  N   UNL     1      57.605  39.037  71.603  0.00  0.00    +0.000 NA
ATOM     21  C   UNL     1      57.907  38.333  72.744  0.00  0.00    +0.000 C 
ENDROOT
TORSDOF 0
ENDMDL
MODEL 2
REMARK VINA RESULT:      -6.6      2.585      5.302
REMARK  Name = PKR_Inhibitor.pdbqt.pdb
REMARK  0 active torsions:
REMARK  status: ('A' for Active; 'I' for Inactive)
REMARK                            x       y       z     vdW  Elec       q    Type
REMARK                         _______ _______ _______ _____ _____    ______ ____
ROOT
ATOM      1  S   UNL     1      58.121  37.290  75.215  0.00  0.00    +0.000 S 
ATOM      2  O   UNL     1      59.870  34.341  79.870  0.00  0.00    +0.000 OA
ATOM      3  N   UNL     1      57.690  35.171  79.623  0.00  0.00    +0.000 N 
ATOM      4  N   UNL     1      55.625  38.003  75.395  0.00  0.00    +0.000 NA
ATOM      5  C   UNL     1      57.824  36.175  77.578  0.00  0.00    +0.000 A 
ATOM      6  C   UNL     1      56.974  35.887  78.676  0.00  0.00    +0.000 A 
ATOM      7  C   UNL     1      59.152  35.582  77.900  0.00  0.00    +0.000 C 
ATOM      8  C   UNL     1      57.247  36.876  76.573  0.00  0.00    +0.000 A 
ATOM      9  C   UNL     1      59.013  34.937  79.247  0.00  0.00    +0.000 C 
ATOM     10  C   UNL     1      55.939  37.309  76.552  0.00  0.00    +0.000 A 
ATOM     11  C   UNL     1      55.639  36.269  78.771  0.00  0.00    +0.000 A 
ATOM     12  C   UNL     1      60.253  35.576  77.218  0.00  0.00    +0.000 C 
ATOM     13  C   UNL     1      55.130  36.997  77.670  0.00  0.00    +0.000 A 
ATOM     14  C   UNL     1      56.698  38.048  74.632  0.00  0.00    +0.000 A 
ATOM     15  H   UNL     1      57.315  34.841  80.502  0.00  0.00    +0.000 HD
ATOM     16  C   UNL     1      61.492  35.526  76.536  0.00  0.00    +0.000 C 
ATOM     17  N   UNL     1      62.622  34.918  77.006  0.00  0.00    +0.000 N 
ATOM     18  C   UNL     1      63.602  35.084  76.067  0.00  0.00    +0.000 C 
ATOM     19  H   UNL     1      62.723  34.433  77.887  0.00  0.00    +0.000 HD
ATOM     20  N   UNL     1      63.162  35.760  75.029  0.00  0.00    +0.000 NA
ATOM     21  C   UNL     1      61.846  36.041  75.310  0.00  0.00    +0.000 C 
ENDROOT
TORSDOF 0
ENDMDL
MODEL 3
REMARK VINA RESULT:      -5.8      2.771      5.982
REMARK  Name = PKR_Inhibitor.pdbqt.pdb
REMARK  0 active torsions:
REMARK  status: ('A' for Active; 'I' for Inactive)
REMARK                            x       y       z     vdW  Elec       q    Type
REMARK                         _______ _______ _______ _____ _____    ______ ____
ROOT
ATOM      1  S   UNL     1      58.017  38.455  74.867  0.00  0.00    +0.000 S 
ATOM      2  O   UNL     1      61.043  34.823  78.195  0.00  0.00    +0.000 OA
ATOM      3  N   UNL     1      62.045  36.325  76.696  0.00  0.00    +0.000 N 
ATOM      4  N   UNL     1      59.561  39.922  73.373  0.00  0.00    +0.000 NA
ATOM      5  C   UNL     1      60.213  37.355  75.806  0.00  0.00    +0.000 A 
ATOM      6  C   UNL     1      61.629  37.289  75.791  0.00  0.00    +0.000 A 
ATOM      7  C   UNL     1      59.750  36.346  76.801  0.00  0.00    +0.000 C 
ATOM      8  C   UNL     1      59.670  38.263  74.961  0.00  0.00    +0.000 A 
ATOM      9  C   UNL     1      60.985  35.700  77.355  0.00  0.00    +0.000 C 
ATOM     10  C   UNL     1      60.380  39.095  74.123  0.00  0.00    +0.000 A 
ATOM     11  C   UNL     1      62.454  38.075  74.991  0.00  0.00    +0.000 A 
ATOM     12  C   UNL     1      58.551  36.028  77.172  0.00  0.00    +0.000 C 
ATOM     13  C   UNL     1      61.792  38.993  74.145  0.00  0.00    +0.000 A 
ATOM     14  C   UNL     1      58.308  39.665  73.688  0.00  0.00    +0.000 A 
ATOM     15  H   UNL     1      63.009  36.081  76.879  0.00  0.00    +0.000 HD
ATOM     16  C   UNL     1      57.275  35.622  77.631  0.00  0.00    +0.000 C 
ATOM     17  N   UNL     1      57.051  34.658  78.573  0.00  0.00    +0.000 N 
ATOM     18  C   UNL     1      55.698  34.554  78.745  0.00  0.00    +0.000 C 
ATOM     19  H   UNL     1      57.752  34.114  79.058  0.00  0.00    +0.000 HD
ATOM     20  N   UNL     1      55.051  35.395  77.969  0.00  0.00    +0.000 NA
ATOM     21  C   UNL     1      56.025  36.067  77.270  0.00  0.00    +0.000 C 
ENDROOT
TORSDOF 0
ENDMDL
MODEL 4
REMARK VINA RESULT:      -5.8     17.052     19.293
REMARK  Name = PKR_Inhibitor.pdbqt.pdb
REMARK  0 active torsions:
REMARK  status: ('A' for Active; 'I' for Inactive)
REMARK                            x       y       z     vdW  Elec       q    Type
REMARK                         _______ _______ _______ _____ _____    ______ ____
ROOT
ATOM      1  S   UNL     1      50.224  17.540  77.850  0.00  0.00    +0.000 S 
ATOM      2  O   UNL     1      53.072  22.325  79.405  0.00  0.00    +0.000 OA
ATOM      3  N   UNL     1      53.078  21.485  77.215  0.00  0.00    +0.000 N 
ATOM      4  N   UNL     1      50.527  17.006  75.322  0.00  0.00    +0.000 NA
ATOM      5  C   UNL     1      51.759  19.637  77.443  0.00  0.00    +0.000 A 
ATOM      6  C   UNL     1      52.525  20.410  76.535  0.00  0.00    +0.000 A 
ATOM      7  C   UNL     1      51.865  20.306  78.770  0.00  0.00    +0.000 C 
ATOM      8  C   UNL     1      51.159  18.547  76.906  0.00  0.00    +0.000 A 
ATOM      9  C   UNL     1      52.738  21.510  78.568  0.00  0.00    +0.000 C 
ATOM     10  C   UNL     1      51.244  18.161  75.586  0.00  0.00    +0.000 A 
ATOM     11  C   UNL     1      52.687  20.123  75.182  0.00  0.00    +0.000 A 
ATOM     12  C   UNL     1      51.345  19.987  79.912  0.00  0.00    +0.000 C 
ATOM     13  C   UNL     1      52.020  18.966  74.719  0.00  0.00    +0.000 A 
ATOM     14  C   UNL     1      49.958  16.603  76.439  0.00  0.00    +0.000 A 
ATOM     15  H   UNL     1      53.669  22.191  76.797  0.00  0.00    +0.000 HD
ATOM     16  C   UNL     1      50.816  19.705  81.194  0.00  0.00    +0.000 C 
ATOM     17  N   UNL     1      51.031  20.458  82.314  0.00  0.00    +0.000 N 
ATOM     18  C   UNL     1      50.357  19.867  83.346  0.00  0.00    +0.000 C 
ATOM     19  H   UNL     1      51.587  21.300  82.376  0.00  0.00    +0.000 HD
ATOM     20  N   UNL     1      49.727  18.784  82.948  0.00  0.00    +0.000 NA
ATOM     21  C   UNL     1      50.006  18.673  81.607  0.00  0.00    +0.000 C 
ENDROOT
TORSDOF 0
ENDMDL
MODEL 5
REMARK VINA RESULT:      -5.8     56.232     58.579
REMARK  Name = PKR_Inhibitor.pdbqt.pdb
REMARK  0 active torsions:
REMARK  status: ('A' for Active; 'I' for Inactive)
REMARK                            x       y       z     vdW  Elec       q    Type
REMARK                         _______ _______ _______ _____ _____    ______ ____
ROOT
ATOM      1  S   UNL     1      11.993   6.120 100.670  0.00  0.00    +0.000 S 
ATOM      2  O   UNL     1      15.096   6.165  95.792  0.00  0.00    +0.000 OA
ATOM      3  N   UNL     1      14.794   8.064  97.136  0.00  0.00    +0.000 N 
ATOM      4  N   UNL     1      11.945   8.457 101.814  0.00  0.00    +0.000 NA
ATOM      5  C   UNL     1      13.491   7.222  98.810  0.00  0.00    +0.000 A 
ATOM      6  C   UNL     1      14.139   8.382  98.316  0.00  0.00    +0.000 A 
ATOM      7  C   UNL     1      13.784   6.125  97.845  0.00  0.00    +0.000 C 
ATOM      8  C   UNL     1      12.807   7.394  99.966  0.00  0.00    +0.000 A 
ATOM      9  C   UNL     1      14.640   6.726  96.769  0.00  0.00    +0.000 C 
ATOM     10  C   UNL     1      12.708   8.578 100.665  0.00  0.00    +0.000 A 
ATOM     11  C   UNL     1      14.112   9.632  98.929  0.00  0.00    +0.000 A 
ATOM     12  C   UNL     1      13.419   4.883  97.854  0.00  0.00    +0.000 C 
ATOM     13  C   UNL     1      13.373   9.708 100.132  0.00  0.00    +0.000 A 
ATOM     14  C   UNL     1      11.526   7.212 101.907  0.00  0.00    +0.000 A 
ATOM     15  H   UNL     1      15.334   8.714  96.582  0.00  0.00    +0.000 HD
ATOM     16  C   UNL     1      13.063   3.515  97.792  0.00  0.00    +0.000 C 
ATOM     17  N   UNL     1      13.441   2.651  96.803  0.00  0.00    +0.000 N 
ATOM     18  C   UNL     1      12.902   1.428  97.094  0.00  0.00    +0.000 C 
ATOM     19  H   UNL     1      14.014   2.868  95.999  0.00  0.00    +0.000 HD
ATOM     20  N   UNL     1      12.205   1.465  98.208  0.00  0.00    +0.000 NA
ATOM     21  C   UNL     1      12.298   2.762  98.652  0.00  0.00    +0.000 C 
ENDROOT
TORSDOF 0
ENDMDL
MODEL 6
REMARK VINA RESULT:      -5.7      3.254      5.060
REMARK  Name = PKR_Inhibitor.pdbqt.pdb
REMARK  0 active torsions:
REMARK  status: ('A' for Active; 'I' for Inactive)
REMARK                            x       y       z     vdW  Elec       q    Type
REMARK                         _______ _______ _______ _____ _____    ______ ____
ROOT
ATOM      1  S   UNL     1      57.243  37.677  73.128  0.00  0.00    +0.000 S 
ATOM      2  O   UNL     1      59.827  34.783  77.415  0.00  0.00    +0.000 OA
ATOM      3  N   UNL     1      58.355  36.572  77.782  0.00  0.00    +0.000 N 
ATOM      4  N   UNL     1      55.704  39.573  74.024  0.00  0.00    +0.000 NA
ATOM      5  C   UNL     1      57.797  37.136  75.642  0.00  0.00    +0.000 A 
ATOM      6  C   UNL     1      57.599  37.443  77.011  0.00  0.00    +0.000 A 
ATOM      7  C   UNL     1      58.748  35.990  75.594  0.00  0.00    +0.000 C 
ATOM      8  C   UNL     1      57.112  37.917  74.773  0.00  0.00    +0.000 A 
ATOM      9  C   UNL     1      59.083  35.659  77.019  0.00  0.00    +0.000 C 
ATOM     10  C   UNL     1      56.268  38.949  75.123  0.00  0.00    +0.000 A 
ATOM     11  C   UNL     1      56.774  38.458  77.490  0.00  0.00    +0.000 A 
ATOM     12  C   UNL     1      59.237  35.351  74.580  0.00  0.00    +0.000 C 
ATOM     13  C   UNL     1      56.103  39.216  76.503  0.00  0.00    +0.000 A 
ATOM     14  C   UNL     1      56.149  38.983  72.934  0.00  0.00    +0.000 A 
ATOM     15  H   UNL     1      58.391  36.578  78.792  0.00  0.00    +0.000 HD
ATOM     16  C   UNL     1      59.815  34.604  73.526  0.00  0.00    +0.000 C 
ATOM     17  N   UNL     1      60.686  33.563  73.689  0.00  0.00    +0.000 N 
ATOM     18  C   UNL     1      61.017  33.103  72.445  0.00  0.00    +0.000 C 
ATOM     19  H   UNL     1      61.027  33.194  74.566  0.00  0.00    +0.000 HD
ATOM     20  N   UNL     1      60.410  33.789  71.503  0.00  0.00    +0.000 NA
ATOM     21  C   UNL     1      59.657  34.729  72.166  0.00  0.00    +0.000 C 
ENDROOT
TORSDOF 0
ENDMDL
MODEL 7
REMARK VINA RESULT:      -5.4     44.253     46.281
REMARK  Name = PKR_Inhibitor.pdbqt.pdb
REMARK  0 active torsions:
REMARK  status: ('A' for Active; 'I' for Inactive)
REMARK                            x       y       z     vdW  Elec       q    Type
REMARK                         _______ _______ _______ _____ _____    ______ ____
ROOT
ATOM      1  S   UNL     1      24.722   5.476  87.052  0.00  0.00    +0.000 S 
ATOM      2  O   UNL     1      21.663  10.372  86.744  0.00  0.00    +0.000 OA
ATOM      3  N   UNL     1      20.787   8.275  86.161  0.00  0.00    +0.000 N 
ATOM      4  N   UNL     1      23.328   3.410  86.304  0.00  0.00    +0.000 NA
ATOM      5  C   UNL     1      22.579   6.919  86.555  0.00  0.00    +0.000 A 
ATOM      6  C   UNL     1      21.231   6.962  86.120  0.00  0.00    +0.000 A 
ATOM      7  C   UNL     1      22.969   8.320  86.881  0.00  0.00    +0.000 C 
ATOM      8  C   UNL     1      23.141   5.686  86.564  0.00  0.00    +0.000 A 
ATOM      9  C   UNL     1      21.762   9.169  86.606  0.00  0.00    +0.000 C 
ATOM     10  C   UNL     1      22.508   4.520  86.193  0.00  0.00    +0.000 A 
ATOM     11  C   UNL     1      20.487   5.856  85.720  0.00  0.00    +0.000 A 
ATOM     12  C   UNL     1      24.091   8.796  87.316  0.00  0.00    +0.000 C 
ATOM     13  C   UNL     1      21.163   4.615  85.766  0.00  0.00    +0.000 A 
ATOM     14  C   UNL     1      24.506   3.803  86.745  0.00  0.00    +0.000 A 
ATOM     15  H   UNL     1      19.859   8.580  85.900  0.00  0.00    +0.000 HD
ATOM     16  C   UNL     1      25.283   9.395  87.790  0.00  0.00    +0.000 C 
ATOM     17  N   UNL     1      25.447  10.729  88.034  0.00  0.00    +0.000 N 
ATOM     18  C   UNL     1      26.726  10.914  88.478  0.00  0.00    +0.000 C 
ATOM     19  H   UNL     1      24.753  11.454  87.911  0.00  0.00    +0.000 HD
ATOM     20  N   UNL     1      27.384   9.777  88.531  0.00  0.00    +0.000 NA
ATOM     21  C   UNL     1      26.494   8.822  88.103  0.00  0.00    +0.000 C 
ENDROOT
TORSDOF 0
ENDMDL
MODEL 8
REMARK VINA RESULT:      -5.3     17.282     18.909
REMARK  Name = PKR_Inhibitor.pdbqt.pdb
REMARK  0 active torsions:
REMARK  status: ('A' for Active; 'I' for Inactive)
REMARK                            x       y       z     vdW  Elec       q    Type
REMARK                         _______ _______ _______ _____ _____    ______ ____
ROOT
ATOM      1  S   UNL     1      46.440  27.261  88.804  0.00  0.00    +0.000 S 
ATOM      2  O   UNL     1      45.979  25.569  83.295  0.00  0.00    +0.000 OA
ATOM      3  N   UNL     1      48.016  25.610  84.457  0.00  0.00    +0.000 N 
ATOM      4  N   UNL     1      48.894  27.135  89.658  0.00  0.00    +0.000 NA
ATOM      5  C   UNL     1      47.349  26.374  86.501  0.00  0.00    +0.000 A 
ATOM      6  C   UNL     1      48.457  25.946  85.728  0.00  0.00    +0.000 A 
ATOM      7  C   UNL     1      46.152  26.286  85.617  0.00  0.00    +0.000 C 
ATOM      8  C   UNL     1      47.640  26.735  87.773  0.00  0.00    +0.000 A 
ATOM      9  C   UNL     1      46.641  25.781  84.292  0.00  0.00    +0.000 C 
ATOM     10  C   UNL     1      48.896  26.711  88.340  0.00  0.00    +0.000 A 
ATOM     11  C   UNL     1      49.770  25.878  86.186  0.00  0.00    +0.000 A 
ATOM     12  C   UNL     1      44.911  26.565  85.859  0.00  0.00    +0.000 C 
ATOM     13  C   UNL     1      49.970  26.276  87.528  0.00  0.00    +0.000 A 
ATOM     14  C   UNL     1      47.659  27.444  89.996  0.00  0.00    +0.000 A 
ATOM     15  H   UNL     1      48.609  25.274  83.710  0.00  0.00    +0.000 HD
ATOM     16  C   UNL     1      43.537  26.849  86.043  0.00  0.00    +0.000 C 
ATOM     17  N   UNL     1      42.570  26.699  85.089  0.00  0.00    +0.000 N 
ATOM     18  C   UNL     1      41.378  27.072  85.645  0.00  0.00    +0.000 C 
ATOM     19  H   UNL     1      42.705  26.372  84.142  0.00  0.00    +0.000 HD
ATOM     20  N   UNL     1      41.531  27.450  86.895  0.00  0.00    +0.000 NA
ATOM     21  C   UNL     1      42.873  27.315  87.154  0.00  0.00    +0.000 C 
ENDROOT
TORSDOF 0
ENDMDL
MODEL 9
REMARK VINA RESULT:      -5.2     54.675     57.026
REMARK  Name = PKR_Inhibitor.pdbqt.pdb
REMARK  0 active torsions:
REMARK  status: ('A' for Active; 'I' for Inactive)
REMARK                            x       y       z     vdW  Elec       q    Type
REMARK                         _______ _______ _______ _____ _____    ______ ____
ROOT
ATOM      1  S   UNL     1      12.650  12.042 101.776  0.00  0.00    +0.000 S 
ATOM      2  O   UNL     1      14.877   7.691  98.687  0.00  0.00    +0.000 OA
ATOM      3  N   UNL     1      12.600   7.843  99.229  0.00  0.00    +0.000 N 
ATOM      4  N   UNL     1      10.085  11.777 102.120  0.00  0.00    +0.000 NA
ATOM      5  C   UNL     1      12.555   9.788 100.422  0.00  0.00    +0.000 A 
ATOM      6  C   UNL     1      11.774   8.715  99.923  0.00  0.00    +0.000 A 
ATOM      7  C   UNL     1      13.958   9.533  99.990  0.00  0.00    +0.000 C 
ATOM      8  C   UNL     1      11.868  10.720 101.125  0.00  0.00    +0.000 A 
ATOM      9  C   UNL     1      13.934   8.250  99.213  0.00  0.00    +0.000 C 
ATOM     10  C   UNL     1      10.513  10.691 101.374  0.00  0.00    +0.000 A 
ATOM     11  C   UNL     1      10.402   8.575 100.108  0.00  0.00    +0.000 A 
ATOM     12  C   UNL     1      15.035  10.221 100.197  0.00  0.00    +0.000 C 
ATOM     13  C   UNL     1       9.777   9.600 100.855  0.00  0.00    +0.000 A 
ATOM     14  C   UNL     1      11.125  12.541 102.380  0.00  0.00    +0.000 A 
ATOM     15  H   UNL     1      12.291   6.995  98.774  0.00  0.00    +0.000 HD
ATOM     16  C   UNL     1      16.255  10.915 100.379  0.00  0.00    +0.000 C 
ATOM     17  N   UNL     1      17.467  10.511  99.892  0.00  0.00    +0.000 N 
ATOM     18  C   UNL     1      18.396  11.438 100.274  0.00  0.00    +0.000 C 
ATOM     19  H   UNL     1      17.650   9.679  99.348  0.00  0.00    +0.000 HD
ATOM     20  N   UNL     1      17.847  12.406 100.974  0.00  0.00    +0.000 NA
ATOM     21  C   UNL     1      16.511  12.090 101.046  0.00  0.00    +0.000 C 
ENDROOT
TORSDOF 0
ENDMDL
