MODEL 1
REMARK VINA RESULT:      -7.8      0.000      0.000
REMARK  Name = 
REMARK  14 active torsions:
REMARK  status: ('A' for Active; 'I' for Inactive)
REMARK    1  A    between atoms: O_1  and  C_14
REMARK    2  A    between atoms: O_1  and  C_15
REMARK    3  A    between atoms: O_4  and  C_16
REMARK    4  A    between atoms: O_5  and  C_18
REMARK    5  A    between atoms: O_6  and  C_26
REMARK    6  A    between atoms: O_7  and  C_29
REMARK    7  A    between atoms: O_8  and  C_35
REMARK    8  A    between atoms: O_9  and  C_36
REMARK    9  A    between atoms: O_10  and  C_39
REMARK   10  A    between atoms: O_11  and  C_40
REMARK   11  A    between atoms: O_12  and  C_41
REMARK   12  A    between atoms: O_13  and  C_43
REMARK   13  A    between atoms: C_14  and  C_20
REMARK   14  A    between atoms: C_17  and  C_24
REMARK                            x       y       z     vdW  Elec       q    Type
REMARK                         _______ _______ _______ _____ _____    ______ ____
ROOT
ATOM      1  O   UNL     1      59.434  35.613  75.111  0.00  0.00    +0.000 OA
ATOM      2  C   UNL     1      60.524  35.522  76.038  0.00  0.00    +0.000 C 
ATOM      3  C   UNL     1      60.015  35.567  77.510  0.00  0.00    +0.000 C 
ATOM      4  C   UNL     1      59.176  36.818  77.748  0.00  0.00    +0.000 C 
ATOM      5  C   UNL     1      58.160  37.007  76.662  0.00  0.00    +0.000 A 
ATOM      6  C   UNL     1      58.362  36.404  75.417  0.00  0.00    +0.000 A 
ATOM      7  C   UNL     1      57.021  37.809  76.833  0.00  0.00    +0.000 A 
ATOM      8  C   UNL     1      57.441  36.585  74.383  0.00  0.00    +0.000 A 
ATOM      9  C   UNL     1      56.108  38.011  75.802  0.00  0.00    +0.000 A 
ATOM     10  C   UNL     1      56.325  37.390  74.581  0.00  0.00    +0.000 A 
ENDROOT
BRANCH   2  11
ATOM     11  C   UNL     1      61.608  36.591  75.796  0.00  0.00    +0.000 A 
ATOM     12  C   UNL     1      61.476  37.525  74.745  0.00  0.00    +0.000 A 
ATOM     13  C   UNL     1      62.750  36.678  76.621  0.00  0.00    +0.000 A 
ATOM     14  C   UNL     1      62.457  38.489  74.534  0.00  0.00    +0.000 A 
ATOM     15  C   UNL     1      63.737  37.641  76.392  0.00  0.00    +0.000 A 
ATOM     16  C   UNL     1      63.585  38.533  75.346  0.00  0.00    +0.000 A 
BRANCH  14  17
ATOM     17  O   UNL     1      62.364  39.426  73.544  0.00  0.00    +0.000 OA
ATOM     18  H   UNL     1      62.793  39.088  72.732  0.00  0.00    +0.000 HD
ENDBRANCH  14  17
BRANCH  16  19
ATOM     19  O   UNL     1      64.547  39.476  75.125  0.00  0.00    +0.000 OA
ATOM     20  H   UNL     1      64.340  39.830  74.236  0.00  0.00    +0.000 HD
ENDBRANCH  16  19
ENDBRANCH   2  11
BRANCH   3  21
ATOM     21  O   UNL     1      59.207  34.402  77.844  0.00  0.00    +0.000 OA
ATOM     22  H   UNL     1      59.534  33.693  77.255  0.00  0.00    +0.000 HD
ENDBRANCH   3  21
BRANCH   4  23
ATOM     23  O   UNL     1      58.505  36.711  79.016  0.00  0.00    +0.000 OA
ATOM     24  H   UNL     1      57.966  35.893  78.933  0.00  0.00    +0.000 HD
ENDBRANCH   4  23
BRANCH   7  25
ATOM     25  O   UNL     1      56.744  38.416  78.029  0.00  0.00    +0.000 OA
ATOM     26  H   UNL     1      55.837  38.141  78.288  0.00  0.00    +0.000 HD
ENDBRANCH   7  25
BRANCH  10  27
ATOM     27  O   UNL     1      55.459  37.547  73.539  0.00  0.00    +0.000 OA
ATOM     28  H   UNL     1      54.619  37.115  73.770  0.00  0.00    +0.000 HD
ENDBRANCH  10  27
BRANCH   2  29
ATOM     29  O   UNL     1      61.103  34.191  75.929  0.00  0.00    +0.000 OA
BRANCH  29  31
ATOM     30  O   UNL     1      63.168  32.361  73.456  0.00  0.00    +0.000 OA
ATOM     31  C   UNL     1      61.469  33.740  74.610  0.00  0.00    +0.000 C 
ATOM     32  C   UNL     1      62.690  32.796  74.737  0.00  0.00    +0.000 C 
ATOM     33  C   UNL     1      60.339  32.945  73.949  0.00  0.00    +0.000 C 
ATOM     34  C   UNL     1      60.832  32.070  72.830  0.00  0.00    +0.000 A 
ATOM     35  C   UNL     1      62.198  31.833  72.648  0.00  0.00    +0.000 A 
ATOM     36  C   UNL     1      59.928  31.465  71.948  0.00  0.00    +0.000 A 
ATOM     37  C   UNL     1      62.654  31.051  71.585  0.00  0.00    +0.000 A 
ATOM     38  C   UNL     1      60.369  30.670  70.893  0.00  0.00    +0.000 A 
ATOM     39  C   UNL     1      61.733  30.475  70.718  0.00  0.00    +0.000 A 
BRANCH  32  40
ATOM     40  C   UNL     1      63.848  33.486  75.446  0.00  0.00    +0.000 A 
ATOM     41  C   UNL     1      64.121  33.232  76.800  0.00  0.00    +0.000 A 
ATOM     42  C   UNL     1      64.711  34.328  74.723  0.00  0.00    +0.000 A 
ATOM     43  C   UNL     1      65.259  33.773  77.393  0.00  0.00    +0.000 A 
ATOM     44  C   UNL     1      65.841  34.884  75.329  0.00  0.00    +0.000 A 
ATOM     45  C   UNL     1      66.119  34.589  76.660  0.00  0.00    +0.000 A 
BRANCH  43  46
ATOM     46  O   UNL     1      65.581  33.452  78.681  0.00  0.00    +0.000 OA
ATOM     47  H   UNL     1      65.992  34.223  79.107  0.00  0.00    +0.000 HD
ENDBRANCH  43  46
BRANCH  45  48
ATOM     48  O   UNL     1      67.250  35.069  77.255  0.00  0.00    +0.000 OA
ATOM     49  H   UNL     1      67.146  35.024  78.219  0.00  0.00    +0.000 HD
ENDBRANCH  45  48
ENDBRANCH  32  40
BRANCH  36  50
ATOM     50  O   UNL     1      58.590  31.674  72.138  0.00  0.00    +0.000 OA
ATOM     51  H   UNL     1      58.456  32.579  72.466  0.00  0.00    +0.000 HD
ENDBRANCH  36  50
BRANCH  39  52
ATOM     52  O   UNL     1      62.133  29.697  69.670  0.00  0.00    +0.000 OA
ATOM     53  H   UNL     1      62.511  30.271  68.982  0.00  0.00    +0.000 HD
ENDBRANCH  39  52
ENDBRANCH  29  31
ENDBRANCH   2  29
TORSDOF 14
ENDMDL
MODEL 2
REMARK VINA RESULT:      -7.3      2.154      7.574
REMARK  Name = 
REMARK  14 active torsions:
REMARK  status: ('A' for Active; 'I' for Inactive)
REMARK    1  A    between atoms: O_1  and  C_14
REMARK    2  A    between atoms: O_1  and  C_15
REMARK    3  A    between atoms: O_4  and  C_16
REMARK    4  A    between atoms: O_5  and  C_18
REMARK    5  A    between atoms: O_6  and  C_26
REMARK    6  A    between atoms: O_7  and  C_29
REMARK    7  A    between atoms: O_8  and  C_35
REMARK    8  A    between atoms: O_9  and  C_36
REMARK    9  A    between atoms: O_10  and  C_39
REMARK   10  A    between atoms: O_11  and  C_40
REMARK   11  A    between atoms: O_12  and  C_41
REMARK   12  A    between atoms: O_13  and  C_43
REMARK   13  A    between atoms: C_14  and  C_20
REMARK   14  A    between atoms: C_17  and  C_24
REMARK                            x       y       z     vdW  Elec       q    Type
REMARK                         _______ _______ _______ _____ _____    ______ ____
ROOT
ATOM      1  O   UNL     1      62.252  36.049  74.723  0.00  0.00    +0.000 OA
ATOM      2  C   UNL     1      62.126  34.628  74.572  0.00  0.00    +0.000 C 
ATOM      3  C   UNL     1      62.886  33.874  75.705  0.00  0.00    +0.000 C 
ATOM      4  C   UNL     1      64.348  34.309  75.750  0.00  0.00    +0.000 C 
ATOM      5  C   UNL     1      64.473  35.802  75.713  0.00  0.00    +0.000 A 
ATOM      6  C   UNL     1      63.425  36.568  75.194  0.00  0.00    +0.000 A 
ATOM      7  C   UNL     1      65.629  36.468  76.146  0.00  0.00    +0.000 A 
ATOM      8  C   UNL     1      63.529  37.960  75.127  0.00  0.00    +0.000 A 
ATOM      9  C   UNL     1      65.750  37.852  76.065  0.00  0.00    +0.000 A 
ATOM     10  C   UNL     1      64.690  38.590  75.558  0.00  0.00    +0.000 A 
ENDROOT
BRANCH   2  11
ATOM     11  C   UNL     1      62.571  34.130  73.183  0.00  0.00    +0.000 A 
ATOM     12  C   UNL     1      62.590  32.749  72.886  0.00  0.00    +0.000 A 
ATOM     13  C   UNL     1      62.954  35.031  72.168  0.00  0.00    +0.000 A 
ATOM     14  C   UNL     1      62.990  32.306  71.629  0.00  0.00    +0.000 A 
ATOM     15  C   UNL     1      63.368  34.576  70.913  0.00  0.00    +0.000 A 
ATOM     16  C   UNL     1      63.388  33.217  70.658  0.00  0.00    +0.000 A 
BRANCH  14  17
ATOM     17  O   UNL     1      63.005  30.983  71.289  0.00  0.00    +0.000 OA
ATOM     18  H   UNL     1      63.246  30.891  70.345  0.00  0.00    +0.000 HD
ENDBRANCH  14  17
BRANCH  16  19
ATOM     19  O   UNL     1      63.789  32.772  69.431  0.00  0.00    +0.000 OA
ATOM     20  H   UNL     1      63.351  31.902  69.333  0.00  0.00    +0.000 HD
ENDBRANCH  16  19
ENDBRANCH   2  11
BRANCH   3  21
ATOM     21  O   UNL     1      62.295  34.115  77.014  0.00  0.00    +0.000 OA
ATOM     22  H   UNL     1      62.429  33.281  77.508  0.00  0.00    +0.000 HD
ENDBRANCH   3  21
BRANCH   4  23
ATOM     23  O   UNL     1      64.960  33.808  76.952  0.00  0.00    +0.000 OA
ATOM     24  H   UNL     1      65.922  33.817  76.751  0.00  0.00    +0.000 HD
ENDBRANCH   4  23
BRANCH   7  25
ATOM     25  O   UNL     1      66.689  35.788  76.686  0.00  0.00    +0.000 OA
ATOM     26  H   UNL     1      66.531  35.731  77.654  0.00  0.00    +0.000 HD
ENDBRANCH   7  25
BRANCH  10  27
ATOM     27  O   UNL     1      64.751  39.950  75.464  0.00  0.00    +0.000 OA
ATOM     28  H   UNL     1      65.677  40.206  75.318  0.00  0.00    +0.000 HD
ENDBRANCH  10  27
BRANCH   2  29
ATOM     29  O   UNL     1      60.737  34.267  74.811  0.00  0.00    +0.000 OA
BRANCH  29  31
ATOM     30  O   UNL     1      57.534  35.919  73.948  0.00  0.00    +0.000 OA
ATOM     31  C   UNL     1      59.774  35.339  74.826  0.00  0.00    +0.000 C 
ATOM     32  C   UNL     1      58.516  34.878  74.048  0.00  0.00    +0.000 C 
ATOM     33  C   UNL     1      59.332  35.686  76.251  0.00  0.00    +0.000 C 
ATOM     34  C   UNL     1      58.020  36.420  76.282  0.00  0.00    +0.000 A 
ATOM     35  C   UNL     1      57.209  36.496  75.146  0.00  0.00    +0.000 A 
ATOM     36  C   UNL     1      57.578  37.039  77.458  0.00  0.00    +0.000 A 
ATOM     37  C   UNL     1      56.010  37.212  75.168  0.00  0.00    +0.000 A 
ATOM     38  C   UNL     1      56.376  37.742  77.498  0.00  0.00    +0.000 A 
ATOM     39  C   UNL     1      55.604  37.827  76.347  0.00  0.00    +0.000 A 
BRANCH  32  40
ATOM     40  C   UNL     1      58.873  34.449  72.630  0.00  0.00    +0.000 A 
ATOM     41  C   UNL     1      59.260  35.393  71.666  0.00  0.00    +0.000 A 
ATOM     42  C   UNL     1      58.897  33.084  72.295  0.00  0.00    +0.000 A 
ATOM     43  C   UNL     1      59.706  34.968  70.417  0.00  0.00    +0.000 A 
ATOM     44  C   UNL     1      59.327  32.665  71.034  0.00  0.00    +0.000 A 
ATOM     45  C   UNL     1      59.746  33.611  70.104  0.00  0.00    +0.000 A 
BRANCH  43  46
ATOM     46  O   UNL     1      60.175  35.875  69.509  0.00  0.00    +0.000 OA
ATOM     47  H   UNL     1      59.877  36.764  69.765  0.00  0.00    +0.000 HD
ENDBRANCH  43  46
BRANCH  45  48
ATOM     48  O   UNL     1      60.229  33.220  68.888  0.00  0.00    +0.000 OA
ATOM     49  H   UNL     1      60.864  33.883  68.571  0.00  0.00    +0.000 HD
ENDBRANCH  45  48
ENDBRANCH  32  40
BRANCH  36  50
ATOM     50  O   UNL     1      58.356  36.945  78.578  0.00  0.00    +0.000 OA
ATOM     51  H   UNL     1      59.101  37.564  78.497  0.00  0.00    +0.000 HD
ENDBRANCH  36  50
BRANCH  39  52
ATOM     52  O   UNL     1      54.436  38.529  76.417  0.00  0.00    +0.000 OA
ATOM     53  H   UNL     1      54.525  39.216  77.099  0.00  0.00    +0.000 HD
ENDBRANCH  39  52
ENDBRANCH  29  31
ENDBRANCH   2  29
TORSDOF 14
ENDMDL
MODEL 3
REMARK VINA RESULT:      -6.9     23.672     27.258
REMARK  Name = 
REMARK  14 active torsions:
REMARK  status: ('A' for Active; 'I' for Inactive)
REMARK    1  A    between atoms: O_1  and  C_14
REMARK    2  A    between atoms: O_1  and  C_15
REMARK    3  A    between atoms: O_4  and  C_16
REMARK    4  A    between atoms: O_5  and  C_18
REMARK    5  A    between atoms: O_6  and  C_26
REMARK    6  A    between atoms: O_7  and  C_29
REMARK    7  A    between atoms: O_8  and  C_35
REMARK    8  A    between atoms: O_9  and  C_36
REMARK    9  A    between atoms: O_10  and  C_39
REMARK   10  A    between atoms: O_11  and  C_40
REMARK   11  A    between atoms: O_12  and  C_41
REMARK   12  A    between atoms: O_13  and  C_43
REMARK   13  A    between atoms: C_14  and  C_20
REMARK   14  A    between atoms: C_17  and  C_24
REMARK                            x       y       z     vdW  Elec       q    Type
REMARK                         _______ _______ _______ _____ _____    ______ ____
ROOT
ATOM      1  O   UNL     1      39.464  23.217  80.886  0.00  0.00    +0.000 OA
ATOM      2  C   UNL     1      39.321  22.016  81.656  0.00  0.00    +0.000 C 
ATOM      3  C   UNL     1      40.199  20.867  81.072  0.00  0.00    +0.000 C 
ATOM      4  C   UNL     1      39.867  20.636  79.601  0.00  0.00    +0.000 C 
ATOM      5  C   UNL     1      39.830  21.928  78.842  0.00  0.00    +0.000 A 
ATOM      6  C   UNL     1      39.621  23.126  79.531  0.00  0.00    +0.000 A 
ATOM      7  C   UNL     1      39.958  21.980  77.446  0.00  0.00    +0.000 A 
ATOM      8  C   UNL     1      39.559  24.340  78.842  0.00  0.00    +0.000 A 
ATOM      9  C   UNL     1      39.878  23.182  76.749  0.00  0.00    +0.000 A 
ATOM     10  C   UNL     1      39.682  24.358  77.458  0.00  0.00    +0.000 A 
ENDROOT
BRANCH   2  11
ATOM     11  C   UNL     1      37.854  21.569  81.805  0.00  0.00    +0.000 A 
ATOM     12  C   UNL     1      36.816  22.279  81.161  0.00  0.00    +0.000 A 
ATOM     13  C   UNL     1      37.506  20.436  82.571  0.00  0.00    +0.000 A 
ATOM     14  C   UNL     1      35.494  21.868  81.298  0.00  0.00    +0.000 A 
ATOM     15  C   UNL     1      36.173  20.040  82.715  0.00  0.00    +0.000 A 
ATOM     16  C   UNL     1      35.180  20.764  82.082  0.00  0.00    +0.000 A 
BRANCH  14  17
ATOM     17  O   UNL     1      34.459  22.510  80.678  0.00  0.00    +0.000 OA
ATOM     18  H   UNL     1      34.716  22.733  79.761  0.00  0.00    +0.000 HD
ENDBRANCH  14  17
BRANCH  16  19
ATOM     19  O   UNL     1      33.878  20.375  82.218  0.00  0.00    +0.000 OA
ATOM     20  H   UNL     1      33.913  19.397  82.203  0.00  0.00    +0.000 HD
ENDBRANCH  16  19
ENDBRANCH   2  11
BRANCH   3  21
ATOM     21  O   UNL     1      41.622  21.157  81.182  0.00  0.00    +0.000 OA
ATOM     22  H   UNL     1      42.060  20.469  80.641  0.00  0.00    +0.000 HD
ENDBRANCH   3  21
BRANCH   4  23
ATOM     23  O   UNL     1      40.854  19.768  79.018  0.00  0.00    +0.000 OA
ATOM     24  H   UNL     1      41.215  20.288  78.265  0.00  0.00    +0.000 HD
ENDBRANCH   4  23
BRANCH   7  25
ATOM     25  O   UNL     1      40.186  20.852  76.704  0.00  0.00    +0.000 OA
ATOM     26  H   UNL     1      41.136  20.859  76.453  0.00  0.00    +0.000 HD
ENDBRANCH   7  25
BRANCH  10  27
ATOM     27  O   UNL     1      39.605  25.565  76.826  0.00  0.00    +0.000 OA
ATOM     28  H   UNL     1      38.700  25.678  76.490  0.00  0.00    +0.000 HD
ENDBRANCH  10  27
BRANCH   2  29
ATOM     29  O   UNL     1      39.909  22.245  82.968  0.00  0.00    +0.000 OA
BRANCH  29  31
ATOM     30  O   UNL     1      39.988  25.221  85.174  0.00  0.00    +0.000 OA
ATOM     31  C   UNL     1      40.229  23.607  83.314  0.00  0.00    +0.000 C 
ATOM     32  C   UNL     1      39.775  23.860  84.774  0.00  0.00    +0.000 C 
ATOM     33  C   UNL     1      41.737  23.870  83.250  0.00  0.00    +0.000 C 
ATOM     34  C   UNL     1      42.144  25.077  84.049  0.00  0.00    +0.000 A 
ATOM     35  C   UNL     1      41.259  25.677  84.950  0.00  0.00    +0.000 A 
ATOM     36  C   UNL     1      43.426  25.623  83.911  0.00  0.00    +0.000 A 
ATOM     37  C   UNL     1      41.627  26.821  85.661  0.00  0.00    +0.000 A 
ATOM     38  C   UNL     1      43.811  26.754  84.627  0.00  0.00    +0.000 A 
ATOM     39  C   UNL     1      42.903  27.347  85.494  0.00  0.00    +0.000 A 
BRANCH  32  40
ATOM     40  C   UNL     1      38.292  23.560  84.948  0.00  0.00    +0.000 A 
ATOM     41  C   UNL     1      37.319  24.301  84.260  0.00  0.00    +0.000 A 
ATOM     42  C   UNL     1      37.885  22.473  85.743  0.00  0.00    +0.000 A 
ATOM     43  C   UNL     1      35.979  23.927  84.333  0.00  0.00    +0.000 A 
ATOM     44  C   UNL     1      36.538  22.114  85.827  0.00  0.00    +0.000 A 
ATOM     45  C   UNL     1      35.591  22.835  85.107  0.00  0.00    +0.000 A 
BRANCH  43  46
ATOM     46  O   UNL     1      35.040  24.585  83.590  0.00  0.00    +0.000 OA
ATOM     47  H   UNL     1      34.942  25.489  83.932  0.00  0.00    +0.000 HD
ENDBRANCH  43  46
BRANCH  45  48
ATOM     48  O   UNL     1      34.277  22.463  85.124  0.00  0.00    +0.000 OA
ATOM     49  H   UNL     1      33.820  22.946  85.833  0.00  0.00    +0.000 HD
ENDBRANCH  45  48
ENDBRANCH  32  40
BRANCH  36  50
ATOM     50  O   UNL     1      44.302  25.024  83.050  0.00  0.00    +0.000 OA
ATOM     51  H   UNL     1      44.265  24.061  83.182  0.00  0.00    +0.000 HD
ENDBRANCH  36  50
BRANCH  39  52
ATOM     52  O   UNL     1      43.308  28.458  86.175  0.00  0.00    +0.000 OA
ATOM     53  H   UNL     1      44.280  28.473  86.197  0.00  0.00    +0.000 HD
ENDBRANCH  39  52
ENDBRANCH  29  31
ENDBRANCH   2  29
TORSDOF 14
ENDMDL
MODEL 4
REMARK VINA RESULT:      -6.7      2.085      6.825
REMARK  Name = 
REMARK  14 active torsions:
REMARK  status: ('A' for Active; 'I' for Inactive)
REMARK    1  A    between atoms: O_1  and  C_14
REMARK    2  A    between atoms: O_1  and  C_15
REMARK    3  A    between atoms: O_4  and  C_16
REMARK    4  A    between atoms: O_5  and  C_18
REMARK    5  A    between atoms: O_6  and  C_26
REMARK    6  A    between atoms: O_7  and  C_29
REMARK    7  A    between atoms: O_8  and  C_35
REMARK    8  A    between atoms: O_9  and  C_36
REMARK    9  A    between atoms: O_10  and  C_39
REMARK   10  A    between atoms: O_11  and  C_40
REMARK   11  A    between atoms: O_12  and  C_41
REMARK   12  A    between atoms: O_13  and  C_43
REMARK   13  A    between atoms: C_14  and  C_20
REMARK   14  A    between atoms: C_17  and  C_24
REMARK                            x       y       z     vdW  Elec       q    Type
REMARK                         _______ _______ _______ _____ _____    ______ ____
ROOT
ATOM      1  O   UNL     1      62.588  37.734  74.354  0.00  0.00    +0.000 OA
ATOM      2  C   UNL     1      63.093  36.502  74.887  0.00  0.00    +0.000 C 
ATOM      3  C   UNL     1      64.150  36.764  76.003  0.00  0.00    +0.000 C 
ATOM      4  C   UNL     1      65.272  37.654  75.478  0.00  0.00    +0.000 C 
ATOM      5  C   UNL     1      64.727  38.846  74.751  0.00  0.00    +0.000 A 
ATOM      6  C   UNL     1      63.431  38.802  74.230  0.00  0.00    +0.000 A 
ATOM      7  C   UNL     1      65.490  40.004  74.533  0.00  0.00    +0.000 A 
ATOM      8  C   UNL     1      62.910  39.892  73.528  0.00  0.00    +0.000 A 
ATOM      9  C   UNL     1      64.987  41.087  73.818  0.00  0.00    +0.000 A 
ATOM     10  C   UNL     1      63.693  41.023  73.324  0.00  0.00    +0.000 A 
ENDROOT
BRANCH   2  11
ATOM     11  C   UNL     1      63.658  35.564  73.802  0.00  0.00    +0.000 A 
ATOM     12  C   UNL     1      63.622  35.937  72.440  0.00  0.00    +0.000 A 
ATOM     13  C   UNL     1      64.237  34.321  74.135  0.00  0.00    +0.000 A 
ATOM     14  C   UNL     1      64.136  35.086  71.466  0.00  0.00    +0.000 A 
ATOM     15  C   UNL     1      64.738  33.468  73.147  0.00  0.00    +0.000 A 
ATOM     16  C   UNL     1      64.676  33.856  71.821  0.00  0.00    +0.000 A 
BRANCH  14  17
ATOM     17  O   UNL     1      64.143  35.411  70.139  0.00  0.00    +0.000 OA
ATOM     18  H   UNL     1      63.234  35.344  69.781  0.00  0.00    +0.000 HD
ENDBRANCH  14  17
BRANCH  16  19
ATOM     19  O   UNL     1      65.168  33.024  70.857  0.00  0.00    +0.000 OA
ATOM     20  H   UNL     1      65.422  32.213  71.342  0.00  0.00    +0.000 HD
ENDBRANCH  16  19
ENDBRANCH   2  11
BRANCH   3  21
ATOM     21  O   UNL     1      63.563  37.408  77.170  0.00  0.00    +0.000 OA
ATOM     22  H   UNL     1      62.678  37.000  77.263  0.00  0.00    +0.000 HD
ENDBRANCH   3  21
BRANCH   4  23
ATOM     23  O   UNL     1      66.087  38.096  76.577  0.00  0.00    +0.000 OA
ATOM     24  H   UNL     1      66.706  37.348  76.732  0.00  0.00    +0.000 HD
ENDBRANCH   4  23
BRANCH   7  25
ATOM     25  O   UNL     1      66.759  40.130  75.030  0.00  0.00    +0.000 OA
ATOM     26  H   UNL     1      66.696  40.661  75.855  0.00  0.00    +0.000 HD
ENDBRANCH   7  25
BRANCH  10  27
ATOM     27  O   UNL     1      63.146  42.059  72.624  0.00  0.00    +0.000 OA
ATOM     28  H   UNL     1      63.725  42.257  71.868  0.00  0.00    +0.000 HD
ENDBRANCH  10  27
BRANCH   2  29
ATOM     29  O   UNL     1      62.013  35.841  75.605  0.00  0.00    +0.000 OA
BRANCH  29  31
ATOM     30  O   UNL     1      58.499  35.104  74.691  0.00  0.00    +0.000 OA
ATOM     31  C   UNL     1      60.666  36.175  75.217  0.00  0.00    +0.000 C 
ATOM     32  C   UNL     1      59.838  34.868  75.147  0.00  0.00    +0.000 C 
ATOM     33  C   UNL     1      59.992  37.093  76.242  0.00  0.00    +0.000 C 
ATOM     34  C   UNL     1      58.492  37.064  76.138  0.00  0.00    +0.000 A 
ATOM     35  C   UNL     1      57.841  36.088  75.378  0.00  0.00    +0.000 A 
ATOM     36  C   UNL     1      57.713  38.014  76.810  0.00  0.00    +0.000 A 
ATOM     37  C   UNL     1      56.449  36.088  75.252  0.00  0.00    +0.000 A 
ATOM     38  C   UNL     1      56.324  38.015  76.706  0.00  0.00    +0.000 A 
ATOM     39  C   UNL     1      55.704  37.052  75.921  0.00  0.00    +0.000 A 
BRANCH  32  40
ATOM     40  C   UNL     1      60.475  33.864  74.194  0.00  0.00    +0.000 A 
ATOM     41  C   UNL     1      61.016  32.659  74.670  0.00  0.00    +0.000 A 
ATOM     42  C   UNL     1      60.452  34.101  72.808  0.00  0.00    +0.000 A 
ATOM     43  C   UNL     1      61.475  31.700  73.770  0.00  0.00    +0.000 A 
ATOM     44  C   UNL     1      60.933  33.143  71.911  0.00  0.00    +0.000 A 
ATOM     45  C   UNL     1      61.428  31.938  72.398  0.00  0.00    +0.000 A 
BRANCH  43  46
ATOM     46  O   UNL     1      61.913  30.488  74.222  0.00  0.00    +0.000 OA
ATOM     47  H   UNL     1      61.413  29.783  73.778  0.00  0.00    +0.000 HD
ENDBRANCH  43  46
BRANCH  45  48
ATOM     48  O   UNL     1      61.844  30.962  71.537  0.00  0.00    +0.000 OA
ATOM     49  H   UNL     1      62.074  30.167  72.046  0.00  0.00    +0.000 HD
ENDBRANCH  45  48
ENDBRANCH  32  40
BRANCH  36  50
ATOM     50  O   UNL     1      58.345  38.954  77.575  0.00  0.00    +0.000 OA
ATOM     51  H   UNL     1      57.925  39.818  77.423  0.00  0.00    +0.000 HD
ENDBRANCH  36  50
BRANCH  39  52
ATOM     52  O   UNL     1      54.343  37.084  75.834  0.00  0.00    +0.000 OA
ATOM     53  H   UNL     1      53.969  36.712  76.651  0.00  0.00    +0.000 HD
ENDBRANCH  39  52
ENDBRANCH  29  31
ENDBRANCH   2  29
TORSDOF 14
ENDMDL
MODEL 5
REMARK VINA RESULT:      -6.5     15.149     20.068
REMARK  Name = 
REMARK  14 active torsions:
REMARK  status: ('A' for Active; 'I' for Inactive)
REMARK    1  A    between atoms: O_1  and  C_14
REMARK    2  A    between atoms: O_1  and  C_15
REMARK    3  A    between atoms: O_4  and  C_16
REMARK    4  A    between atoms: O_5  and  C_18
REMARK    5  A    between atoms: O_6  and  C_26
REMARK    6  A    between atoms: O_7  and  C_29
REMARK    7  A    between atoms: O_8  and  C_35
REMARK    8  A    between atoms: O_9  and  C_36
REMARK    9  A    between atoms: O_10  and  C_39
REMARK   10  A    between atoms: O_11  and  C_40
REMARK   11  A    between atoms: O_12  and  C_41
REMARK   12  A    between atoms: O_13  and  C_43
REMARK   13  A    between atoms: C_14  and  C_20
REMARK   14  A    between atoms: C_17  and  C_24
REMARK                            x       y       z     vdW  Elec       q    Type
REMARK                         _______ _______ _______ _____ _____    ______ ____
ROOT
ATOM      1  O   UNL     1      44.532  38.339  84.685  0.00  0.00    +0.000 OA
ATOM      2  C   UNL     1      45.062  37.439  83.702  0.00  0.00    +0.000 C 
ATOM      3  C   UNL     1      45.407  36.057  84.334  0.00  0.00    +0.000 C 
ATOM      4  C   UNL     1      46.361  36.231  85.512  0.00  0.00    +0.000 C 
ATOM      5  C   UNL     1      45.892  37.314  86.437  0.00  0.00    +0.000 A 
ATOM      6  C   UNL     1      45.022  38.298  85.961  0.00  0.00    +0.000 A 
ATOM      7  C   UNL     1      46.331  37.404  87.767  0.00  0.00    +0.000 A 
ATOM      8  C   UNL     1      44.590  39.330  86.797  0.00  0.00    +0.000 A 
ATOM      9  C   UNL     1      45.922  38.439  88.602  0.00  0.00    +0.000 A 
ATOM     10  C   UNL     1      45.047  39.396  88.108  0.00  0.00    +0.000 A 
ENDROOT
BRANCH   2  11
ATOM     11  C   UNL     1      46.274  38.020  82.948  0.00  0.00    +0.000 A 
ATOM     12  C   UNL     1      46.902  37.282  81.919  0.00  0.00    +0.000 A 
ATOM     13  C   UNL     1      46.782  39.301  83.250  0.00  0.00    +0.000 A 
ATOM     14  C   UNL     1      47.995  37.814  81.242  0.00  0.00    +0.000 A 
ATOM     15  C   UNL     1      47.889  39.820  82.573  0.00  0.00    +0.000 A 
ATOM     16  C   UNL     1      48.489  39.068  81.580  0.00  0.00    +0.000 A 
BRANCH  14  17
ATOM     17  O   UNL     1      48.622  37.148  80.226  0.00  0.00    +0.000 OA
ATOM     18  H   UNL     1      49.518  36.881  80.515  0.00  0.00    +0.000 HD
ENDBRANCH  14  17
BRANCH  16  19
ATOM     19  O   UNL     1      49.569  39.576  80.915  0.00  0.00    +0.000 OA
ATOM     20  H   UNL     1      49.273  40.459  80.611  0.00  0.00    +0.000 HD
ENDBRANCH  16  19
ENDBRANCH   2  11
BRANCH   3  21
ATOM     21  O   UNL     1      44.219  35.360  84.806  0.00  0.00    +0.000 OA
ATOM     22  H   UNL     1      43.655  36.060  85.194  0.00  0.00    +0.000 HD
ENDBRANCH   3  21
BRANCH   4  23
ATOM     23  O   UNL     1      46.458  34.993  86.237  0.00  0.00    +0.000 OA
ATOM     24  H   UNL     1      46.605  34.317  85.538  0.00  0.00    +0.000 HD
ENDBRANCH   4  23
BRANCH   7  25
ATOM     25  O   UNL     1      47.167  36.466  88.312  0.00  0.00    +0.000 OA
ATOM     26  H   UNL     1      48.066  36.640  87.957  0.00  0.00    +0.000 HD
ENDBRANCH   7  25
BRANCH  10  27
ATOM     27  O   UNL     1      44.608  40.427  88.886  0.00  0.00    +0.000 OA
ATOM     28  H   UNL     1      45.368  40.793  89.368  0.00  0.00    +0.000 HD
ENDBRANCH  10  27
BRANCH   2  29
ATOM     29  O   UNL     1      43.998  37.115  82.762  0.00  0.00    +0.000 OA
BRANCH  29  31
ATOM     30  O   UNL     1      41.409  39.126  81.035  0.00  0.00    +0.000 OA
ATOM     31  C   UNL     1      42.887  38.030  82.689  0.00  0.00    +0.000 C 
ATOM     32  C   UNL     1      42.465  38.170  81.205  0.00  0.00    +0.000 C 
ATOM     33  C   UNL     1      41.673  37.510  83.466  0.00  0.00    +0.000 C 
ATOM     34  C   UNL     1      40.389  38.157  83.024  0.00  0.00    +0.000 A 
ATOM     35  C   UNL     1      40.332  38.919  81.854  0.00  0.00    +0.000 A 
ATOM     36  C   UNL     1      39.219  38.003  83.777  0.00  0.00    +0.000 A 
ATOM     37  C   UNL     1      39.147  39.551  81.468  0.00  0.00    +0.000 A 
ATOM     38  C   UNL     1      38.027  38.615  83.395  0.00  0.00    +0.000 A 
ATOM     39  C   UNL     1      38.005  39.390  82.243  0.00  0.00    +0.000 A 
BRANCH  32  40
ATOM     40  C   UNL     1      43.635  38.623  80.342  0.00  0.00    +0.000 A 
ATOM     41  C   UNL     1      44.233  39.878  80.536  0.00  0.00    +0.000 A 
ATOM     42  C   UNL     1      44.184  37.746  79.389  0.00  0.00    +0.000 A 
ATOM     43  C   UNL     1      45.381  40.218  79.825  0.00  0.00    +0.000 A 
ATOM     44  C   UNL     1      45.325  38.101  78.664  0.00  0.00    +0.000 A 
ATOM     45  C   UNL     1      45.928  39.333  78.898  0.00  0.00    +0.000 A 
BRANCH  43  46
ATOM     46  O   UNL     1      46.022  41.397  80.078  0.00  0.00    +0.000 OA
ATOM     47  H   UNL     1      45.660  41.788  80.891  0.00  0.00    +0.000 HD
ENDBRANCH  43  46
BRANCH  45  48
ATOM     48  O   UNL     1      47.079  39.675  78.248  0.00  0.00    +0.000 OA
ATOM     49  H   UNL     1      47.181  39.110  77.464  0.00  0.00    +0.000 HD
ENDBRANCH  45  48
ENDBRANCH  32  40
BRANCH  36  50
ATOM     50  O   UNL     1      39.265  37.238  84.909  0.00  0.00    +0.000 OA
ATOM     51  H   UNL     1      38.630  36.508  84.822  0.00  0.00    +0.000 HD
ENDBRANCH  36  50
BRANCH  39  52
ATOM     52  O   UNL     1      36.824  39.982  81.899  0.00  0.00    +0.000 OA
ATOM     53  H   UNL     1      36.105  39.553  82.393  0.00  0.00    +0.000 HD
ENDBRANCH  39  52
ENDBRANCH  29  31
ENDBRANCH   2  29
TORSDOF 14
ENDMDL
MODEL 6
REMARK VINA RESULT:      -6.3     57.864     60.941
REMARK  Name = 
REMARK  14 active torsions:
REMARK  status: ('A' for Active; 'I' for Inactive)
REMARK    1  A    between atoms: O_1  and  C_14
REMARK    2  A    between atoms: O_1  and  C_15
REMARK    3  A    between atoms: O_4  and  C_16
REMARK    4  A    between atoms: O_5  and  C_18
REMARK    5  A    between atoms: O_6  and  C_26
REMARK    6  A    between atoms: O_7  and  C_29
REMARK    7  A    between atoms: O_8  and  C_35
REMARK    8  A    between atoms: O_9  and  C_36
REMARK    9  A    between atoms: O_10  and  C_39
REMARK   10  A    between atoms: O_11  and  C_40
REMARK   11  A    between atoms: O_12  and  C_41
REMARK   12  A    between atoms: O_13  and  C_43
REMARK   13  A    between atoms: C_14  and  C_20
REMARK   14  A    between atoms: C_17  and  C_24
REMARK                            x       y       z     vdW  Elec       q    Type
REMARK                         _______ _______ _______ _____ _____    ______ ____
ROOT
ATOM      1  O   UNL     1      14.717   8.504 101.470  0.00  0.00    +0.000 OA
ATOM      2  C   UNL     1      13.995   9.502 100.735  0.00  0.00    +0.000 C 
ATOM      3  C   UNL     1      14.956  10.359  99.857  0.00  0.00    +0.000 C 
ATOM      4  C   UNL     1      16.056  10.977 100.715  0.00  0.00    +0.000 C 
ATOM      5  C   UNL     1      16.677   9.956 101.622  0.00  0.00    +0.000 A 
ATOM      6  C   UNL     1      15.964   8.799 101.946  0.00  0.00    +0.000 A 
ATOM      7  C   UNL     1      17.943  10.138 102.199  0.00  0.00    +0.000 A 
ATOM      8  C   UNL     1      16.512   7.845 102.808  0.00  0.00    +0.000 A 
ATOM      9  C   UNL     1      18.489   9.204 103.074  0.00  0.00    +0.000 A 
ATOM     10  C   UNL     1      17.766   8.057 103.368  0.00  0.00    +0.000 A 
ENDROOT
BRANCH   2  11
ATOM     11  C   UNL     1      13.125  10.399 101.637  0.00  0.00    +0.000 A 
ATOM     12  C   UNL     1      12.285  11.386 101.075  0.00  0.00    +0.000 A 
ATOM     13  C   UNL     1      13.128  10.252 103.041  0.00  0.00    +0.000 A 
ATOM     14  C   UNL     1      11.500  12.190 101.895  0.00  0.00    +0.000 A 
ATOM     15  C   UNL     1      12.346  11.075 103.857  0.00  0.00    +0.000 A 
ATOM     16  C   UNL     1      11.545  12.041 103.277  0.00  0.00    +0.000 A 
BRANCH  14  17
ATOM     17  O   UNL     1      10.657  13.144 101.397  0.00  0.00    +0.000 OA
ATOM     18  H   UNL     1      11.156  13.971 101.240  0.00  0.00    +0.000 HD
ENDBRANCH  14  17
BRANCH  16  19
ATOM     19  O   UNL     1      10.778  12.842 104.073  0.00  0.00    +0.000 OA
ATOM     20  H   UNL     1      10.952  12.520 104.981  0.00  0.00    +0.000 HD
ENDBRANCH  16  19
ENDBRANCH   2  11
BRANCH   3  21
ATOM     21  O   UNL     1      15.583   9.572  98.805  0.00  0.00    +0.000 OA
ATOM     22  H   UNL     1      15.212   8.672  98.910  0.00  0.00    +0.000 HD
ENDBRANCH   3  21
BRANCH   4  23
ATOM     23  O   UNL     1      17.070  11.538  99.864  0.00  0.00    +0.000 OA
ATOM     24  H   UNL     1      17.085  12.491 100.105  0.00  0.00    +0.000 HD
ENDBRANCH   4  23
BRANCH   7  25
ATOM     25  O   UNL     1      18.710  11.236 101.913  0.00  0.00    +0.000 OA
ATOM     26  H   UNL     1      19.067  11.112 101.006  0.00  0.00    +0.000 HD
ENDBRANCH   7  25
BRANCH  10  27
ATOM     27  O   UNL     1      18.257   7.104 104.212  0.00  0.00    +0.000 OA
ATOM     28  H   UNL     1      18.850   7.536 104.851  0.00  0.00    +0.000 HD
ENDBRANCH  10  27
BRANCH   2  29
ATOM     29  O   UNL     1      13.163   8.828  99.750  0.00  0.00    +0.000 OA
BRANCH  29  31
ATOM     30  O   UNL     1      11.688   5.439 100.022  0.00  0.00    +0.000 OA
ATOM     31  C   UNL     1      13.189   7.387  99.746  0.00  0.00    +0.000 C 
ATOM     32  C   UNL     1      11.741   6.870  99.938  0.00  0.00    +0.000 C 
ATOM     33  C   UNL     1      13.702   6.833  98.413  0.00  0.00    +0.000 C 
ATOM     34  C   UNL     1      13.294   5.402  98.190  0.00  0.00    +0.000 A 
ATOM     35  C   UNL     1      12.327   4.795  98.997  0.00  0.00    +0.000 A 
ATOM     36  C   UNL     1      13.871   4.649  97.161  0.00  0.00    +0.000 A 
ATOM     37  C   UNL     1      11.979   3.455  98.812  0.00  0.00    +0.000 A 
ATOM     38  C   UNL     1      13.521   3.317  96.956  0.00  0.00    +0.000 A 
ATOM     39  C   UNL     1      12.579   2.729  97.790  0.00  0.00    +0.000 A 
BRANCH  32  40
ATOM     40  C   UNL     1      11.124   7.426 101.214  0.00  0.00    +0.000 A 
ATOM     41  C   UNL     1      10.124   8.410 101.164  0.00  0.00    +0.000 A 
ATOM     42  C   UNL     1      11.495   6.894 102.463  0.00  0.00    +0.000 A 
ATOM     43  C   UNL     1       9.483   8.811 102.334  0.00  0.00    +0.000 A 
ATOM     44  C   UNL     1      10.861   7.314 103.635  0.00  0.00    +0.000 A 
ATOM     45  C   UNL     1       9.845   8.261 103.563  0.00  0.00    +0.000 A 
BRANCH  43  46
ATOM     46  O   UNL     1       8.445   9.697 102.281  0.00  0.00    +0.000 OA
ATOM     47  H   UNL     1       8.657  10.468 102.834  0.00  0.00    +0.000 HD
ENDBRANCH  43  46
BRANCH  45  48
ATOM     48  O   UNL     1       9.169   8.639 104.688  0.00  0.00    +0.000 OA
ATOM     49  H   UNL     1       9.808   8.939 105.355  0.00  0.00    +0.000 HD
ENDBRANCH  45  48
ENDBRANCH  32  40
BRANCH  36  50
ATOM     50  O   UNL     1      14.799   5.247  96.354  0.00  0.00    +0.000 OA
ATOM     51  H   UNL     1      14.345   5.637  95.588  0.00  0.00    +0.000 HD
ENDBRANCH  36  50
BRANCH  39  52
ATOM     52  O   UNL     1      12.263   1.420  97.568  0.00  0.00    +0.000 OA
ATOM     53  H   UNL     1      11.529   1.381  96.931  0.00  0.00    +0.000 HD
ENDBRANCH  39  52
ENDBRANCH  29  31
ENDBRANCH   2  29
TORSDOF 14
ENDMDL
MODEL 7
REMARK VINA RESULT:      -6.2     22.857     25.527
REMARK  Name = 
REMARK  14 active torsions:
REMARK  status: ('A' for Active; 'I' for Inactive)
REMARK    1  A    between atoms: O_1  and  C_14
REMARK    2  A    between atoms: O_1  and  C_15
REMARK    3  A    between atoms: O_4  and  C_16
REMARK    4  A    between atoms: O_5  and  C_18
REMARK    5  A    between atoms: O_6  and  C_26
REMARK    6  A    between atoms: O_7  and  C_29
REMARK    7  A    between atoms: O_8  and  C_35
REMARK    8  A    between atoms: O_9  and  C_36
REMARK    9  A    between atoms: O_10  and  C_39
REMARK   10  A    between atoms: O_11  and  C_40
REMARK   11  A    between atoms: O_12  and  C_41
REMARK   12  A    between atoms: O_13  and  C_43
REMARK   13  A    between atoms: C_14  and  C_20
REMARK   14  A    between atoms: C_17  and  C_24
REMARK                            x       y       z     vdW  Elec       q    Type
REMARK                         _______ _______ _______ _____ _____    ______ ____
ROOT
ATOM      1  O   UNL     1      39.209  21.526  83.986  0.00  0.00    +0.000 OA
ATOM      2  C   UNL     1      39.822  22.801  83.750  0.00  0.00    +0.000 C 
ATOM      3  C   UNL     1      38.934  23.961  84.293  0.00  0.00    +0.000 C 
ATOM      4  C   UNL     1      37.534  23.888  83.691  0.00  0.00    +0.000 C 
ATOM      5  C   UNL     1      36.977  22.498  83.772  0.00  0.00    +0.000 A 
ATOM      6  C   UNL     1      37.849  21.414  83.902  0.00  0.00    +0.000 A 
ATOM      7  C   UNL     1      35.602  22.236  83.680  0.00  0.00    +0.000 A 
ATOM      8  C   UNL     1      37.356  20.108  83.956  0.00  0.00    +0.000 A 
ATOM      9  C   UNL     1      35.102  20.937  83.712  0.00  0.00    +0.000 A 
ATOM     10  C   UNL     1      35.989  19.880  83.856  0.00  0.00    +0.000 A 
ENDROOT
BRANCH   2  11
ATOM     11  C   UNL     1      40.183  23.028  82.269  0.00  0.00    +0.000 A 
ATOM     12  C   UNL     1      40.263  21.939  81.372  0.00  0.00    +0.000 A 
ATOM     13  C   UNL     1      40.427  24.323  81.763  0.00  0.00    +0.000 A 
ATOM     14  C   UNL     1      40.587  22.152  80.036  0.00  0.00    +0.000 A 
ATOM     15  C   UNL     1      40.765  24.525  80.421  0.00  0.00    +0.000 A 
ATOM     16  C   UNL     1      40.849  23.436  79.573  0.00  0.00    +0.000 A 
BRANCH  14  17
ATOM     17  O   UNL     1      40.656  21.134  79.127  0.00  0.00    +0.000 OA
ATOM     18  H   UNL     1      40.207  21.403  78.300  0.00  0.00    +0.000 HD
ENDBRANCH  14  17
BRANCH  16  19
ATOM     19  O   UNL     1      41.175  23.633  78.261  0.00  0.00    +0.000 OA
ATOM     20  H   UNL     1      40.353  23.427  77.773  0.00  0.00    +0.000 HD
ENDBRANCH  16  19
ENDBRANCH   2  11
BRANCH   3  21
ATOM     21  O   UNL     1      38.812  23.923  85.743  0.00  0.00    +0.000 OA
ATOM     22  H   UNL     1      38.372  23.070  85.935  0.00  0.00    +0.000 HD
ENDBRANCH   3  21
BRANCH   4  23
ATOM     23  O   UNL     1      36.663  24.792  84.392  0.00  0.00    +0.000 OA
ATOM     24  H   UNL     1      37.239  25.194  85.080  0.00  0.00    +0.000 HD
ENDBRANCH   4  23
BRANCH   7  25
ATOM     25  O   UNL     1      34.684  23.246  83.571  0.00  0.00    +0.000 OA
ATOM     26  H   UNL     1      34.941  23.940  84.218  0.00  0.00    +0.000 HD
ENDBRANCH   7  25
BRANCH  10  27
ATOM     27  O   UNL     1      35.553  18.587  83.903  0.00  0.00    +0.000 OA
ATOM     28  H   UNL     1      34.581  18.591  83.900  0.00  0.00    +0.000 HD
ENDBRANCH  10  27
BRANCH   2  29
ATOM     29  O   UNL     1      41.019  22.890  84.574  0.00  0.00    +0.000 OA
BRANCH  29  31
ATOM     30  O   UNL     1      44.644  23.356  83.967  0.00  0.00    +0.000 OA
ATOM     31  C   UNL     1      42.280  22.626  83.929  0.00  0.00    +0.000 C 
ATOM     32  C   UNL     1      43.366  23.502  84.602  0.00  0.00    +0.000 C 
ATOM     33  C   UNL     1      42.705  21.163  84.090  0.00  0.00    +0.000 C 
ATOM     34  C   UNL     1      44.180  20.966  83.876  0.00  0.00    +0.000 A 
ATOM     35  C   UNL     1      45.052  22.058  83.825  0.00  0.00    +0.000 A 
ATOM     36  C   UNL     1      44.714  19.680  83.731  0.00  0.00    +0.000 A 
ATOM     37  C   UNL     1      46.417  21.874  83.588  0.00  0.00    +0.000 A 
ATOM     38  C   UNL     1      46.075  19.482  83.511  0.00  0.00    +0.000 A 
ATOM     39  C   UNL     1      46.915  20.585  83.435  0.00  0.00    +0.000 A 
BRANCH  32  40
ATOM     40  C   UNL     1      42.994  24.978  84.548  0.00  0.00    +0.000 A 
ATOM     41  C   UNL     1      42.072  25.524  85.454  0.00  0.00    +0.000 A 
ATOM     42  C   UNL     1      43.640  25.831  83.634  0.00  0.00    +0.000 A 
ATOM     43  C   UNL     1      41.844  26.898  85.470  0.00  0.00    +0.000 A 
ATOM     44  C   UNL     1      43.392  27.205  83.643  0.00  0.00    +0.000 A 
ATOM     45  C   UNL     1      42.505  27.736  84.574  0.00  0.00    +0.000 A 
BRANCH  43  46
ATOM     46  O   UNL     1      41.021  27.447  86.411  0.00  0.00    +0.000 OA
ATOM     47  H   UNL     1      40.929  28.399  86.238  0.00  0.00    +0.000 HD
ENDBRANCH  43  46
BRANCH  45  48
ATOM     48  O   UNL     1      42.296  29.084  84.642  0.00  0.00    +0.000 OA
ATOM     49  H   UNL     1      42.792  29.518  83.929  0.00  0.00    +0.000 HD
ENDBRANCH  45  48
ENDBRANCH  32  40
BRANCH  36  50
ATOM     50  O   UNL     1      43.867  18.609  83.807  0.00  0.00    +0.000 OA
ATOM     51  H   UNL     1      44.394  17.794  83.865  0.00  0.00    +0.000 HD
ENDBRANCH  36  50
BRANCH  39  52
ATOM     52  O   UNL     1      48.241  20.358  83.210  0.00  0.00    +0.000 OA
ATOM     53  H   UNL     1      48.622  19.930  83.996  0.00  0.00    +0.000 HD
ENDBRANCH  39  52
ENDBRANCH  29  31
ENDBRANCH   2  29
TORSDOF 14
ENDMDL
MODEL 8
REMARK VINA RESULT:      -6.2     56.833     60.318
REMARK  Name = 
REMARK  14 active torsions:
REMARK  status: ('A' for Active; 'I' for Inactive)
REMARK    1  A    between atoms: O_1  and  C_14
REMARK    2  A    between atoms: O_1  and  C_15
REMARK    3  A    between atoms: O_4  and  C_16
REMARK    4  A    between atoms: O_5  and  C_18
REMARK    5  A    between atoms: O_6  and  C_26
REMARK    6  A    between atoms: O_7  and  C_29
REMARK    7  A    between atoms: O_8  and  C_35
REMARK    8  A    between atoms: O_9  and  C_36
REMARK    9  A    between atoms: O_10  and  C_39
REMARK   10  A    between atoms: O_11  and  C_40
REMARK   11  A    between atoms: O_12  and  C_41
REMARK   12  A    between atoms: O_13  and  C_43
REMARK   13  A    between atoms: C_14  and  C_20
REMARK   14  A    between atoms: C_17  and  C_24
REMARK                            x       y       z     vdW  Elec       q    Type
REMARK                         _______ _______ _______ _____ _____    ______ ____
ROOT
ATOM      1  O   UNL     1      14.971  11.320 101.153  0.00  0.00    +0.000 OA
ATOM      2  C   UNL     1      14.205  10.432 101.978  0.00  0.00    +0.000 C 
ATOM      3  C   UNL     1      14.982  10.063 103.278  0.00  0.00    +0.000 C 
ATOM      4  C   UNL     1      16.348   9.476 102.935  0.00  0.00    +0.000 C 
ATOM      5  C   UNL     1      17.063  10.317 101.920  0.00  0.00    +0.000 A 
ATOM      6  C   UNL     1      16.328  11.171 101.093  0.00  0.00    +0.000 A 
ATOM      7  C   UNL     1      18.452  10.250 101.737  0.00  0.00    +0.000 A 
ATOM      8  C   UNL     1      16.970  11.947 100.124  0.00  0.00    +0.000 A 
ATOM      9  C   UNL     1      19.098  11.004 100.762  0.00  0.00    +0.000 A 
ATOM     10  C   UNL     1      18.347  11.854  99.963  0.00  0.00    +0.000 A 
ENDROOT
BRANCH   2  11
ATOM     11  C   UNL     1      13.744   9.165 101.231  0.00  0.00    +0.000 A 
ATOM     12  C   UNL     1      13.691   9.142  99.819  0.00  0.00    +0.000 A 
ATOM     13  C   UNL     1      13.378   7.994 101.928  0.00  0.00    +0.000 A 
ATOM     14  C   UNL     1      13.277   7.994  99.151  0.00  0.00    +0.000 A 
ATOM     15  C   UNL     1      12.949   6.850 101.248  0.00  0.00    +0.000 A 
ATOM     16  C   UNL     1      12.896   6.864  99.866  0.00  0.00    +0.000 A 
BRANCH  14  17
ATOM     17  O   UNL     1      13.229   7.916  97.788  0.00  0.00    +0.000 OA
ATOM     18  H   UNL     1      14.125   8.061  97.421  0.00  0.00    +0.000 HD
ENDBRANCH  14  17
BRANCH  16  19
ATOM     19  O   UNL     1      12.482   5.745  99.201  0.00  0.00    +0.000 OA
ATOM     20  H   UNL     1      11.531   5.671  99.421  0.00  0.00    +0.000 HD
ENDBRANCH  16  19
ENDBRANCH   2  11
BRANCH   3  21
ATOM     21  O   UNL     1      15.183  11.217 104.141  0.00  0.00    +0.000 OA
ATOM     22  H   UNL     1      15.758  11.818 103.627  0.00  0.00    +0.000 HD
ENDBRANCH   3  21
BRANCH   4  23
ATOM     23  O   UNL     1      17.145   9.388 104.129  0.00  0.00    +0.000 OA
ATOM     24  H   UNL     1      18.054   9.609 103.826  0.00  0.00    +0.000 HD
ENDBRANCH   4  23
BRANCH   7  25
ATOM     25  O   UNL     1      19.242   9.453 102.523  0.00  0.00    +0.000 OA
ATOM     26  H   UNL     1      19.337   9.906 103.390  0.00  0.00    +0.000 HD
ENDBRANCH   7  25
BRANCH  10  27
ATOM     27  O   UNL     1      18.930  12.622  98.998  0.00  0.00    +0.000 OA
ATOM     28  H   UNL     1      19.135  13.491  99.380  0.00  0.00    +0.000 HD
ENDBRANCH  10  27
BRANCH   2  29
ATOM     29  O   UNL     1      13.050  11.162 102.481  0.00  0.00    +0.000 OA
BRANCH  29  31
ATOM     30  O   UNL     1      10.033  12.680 100.959  0.00  0.00    +0.000 OA
ATOM     31  C   UNL     1      12.335  11.988 101.541  0.00  0.00    +0.000 C 
ATOM     32  C   UNL     1      10.828  11.942 101.897  0.00  0.00    +0.000 C 
ATOM     33  C   UNL     1      12.782  13.451 101.616  0.00  0.00    +0.000 C 
ATOM     34  C   UNL     1      11.763  14.393 101.037  0.00  0.00    +0.000 A 
ATOM     35  C   UNL     1      10.467  13.960 100.743  0.00  0.00    +0.000 A 
ATOM     36  C   UNL     1      12.092  15.731 100.785  0.00  0.00    +0.000 A 
ATOM     37  C   UNL     1       9.535  14.827 100.168  0.00  0.00    +0.000 A 
ATOM     38  C   UNL     1      11.166  16.610 100.228  0.00  0.00    +0.000 A 
ATOM     39  C   UNL     1       9.894  16.147  99.919  0.00  0.00    +0.000 A 
BRANCH  32  40
ATOM     40  C   UNL     1      10.309  10.511 101.910  0.00  0.00    +0.000 A 
ATOM     41  C   UNL     1      10.191   9.774 100.721  0.00  0.00    +0.000 A 
ATOM     42  C   UNL     1      10.020   9.881 103.134  0.00  0.00    +0.000 A 
ATOM     43  C   UNL     1       9.838   8.427 100.770  0.00  0.00    +0.000 A 
ATOM     44  C   UNL     1       9.648   8.534 103.175  0.00  0.00    +0.000 A 
ATOM     45  C   UNL     1       9.575   7.809 101.990  0.00  0.00    +0.000 A 
BRANCH  43  46
ATOM     46  O   UNL     1       9.814   7.681  99.626  0.00  0.00    +0.000 OA
ATOM     47  H   UNL     1       9.605   6.760  99.851  0.00  0.00    +0.000 HD
ENDBRANCH  43  46
BRANCH  45  48
ATOM     48  O   UNL     1       9.275   6.476 102.011  0.00  0.00    +0.000 OA
ATOM     49  H   UNL     1       9.800   6.022 101.332  0.00  0.00    +0.000 HD
ENDBRANCH  45  48
ENDBRANCH  32  40
BRANCH  36  50
ATOM     50  O   UNL     1      13.350  16.164 101.095  0.00  0.00    +0.000 OA
ATOM     51  H   UNL     1      13.891  15.399 101.359  0.00  0.00    +0.000 HD
ENDBRANCH  36  50
BRANCH  39  52
ATOM     52  O   UNL     1       9.013  17.031  99.367  0.00  0.00    +0.000 OA
ATOM     53  H   UNL     1       8.489  16.568  98.692  0.00  0.00    +0.000 HD
ENDBRANCH  39  52
ENDBRANCH  29  31
ENDBRANCH   2  29
TORSDOF 14
ENDMDL
MODEL 9
REMARK VINA RESULT:      -6.1     15.468     18.827
REMARK  Name = 
REMARK  14 active torsions:
REMARK  status: ('A' for Active; 'I' for Inactive)
REMARK    1  A    between atoms: O_1  and  C_14
REMARK    2  A    between atoms: O_1  and  C_15
REMARK    3  A    between atoms: O_4  and  C_16
REMARK    4  A    between atoms: O_5  and  C_18
REMARK    5  A    between atoms: O_6  and  C_26
REMARK    6  A    between atoms: O_7  and  C_29
REMARK    7  A    between atoms: O_8  and  C_35
REMARK    8  A    between atoms: O_9  and  C_36
REMARK    9  A    between atoms: O_10  and  C_39
REMARK   10  A    between atoms: O_11  and  C_40
REMARK   11  A    between atoms: O_12  and  C_41
REMARK   12  A    between atoms: O_13  and  C_43
REMARK   13  A    between atoms: C_14  and  C_20
REMARK   14  A    between atoms: C_17  and  C_24
REMARK                            x       y       z     vdW  Elec       q    Type
REMARK                         _______ _______ _______ _____ _____    ______ ____
ROOT
ATOM      1  O   UNL     1      42.829  38.021  81.892  0.00  0.00    +0.000 OA
ATOM      2  C   UNL     1      44.134  37.465  82.108  0.00  0.00    +0.000 C 
ATOM      3  C   UNL     1      44.049  36.124  82.899  0.00  0.00    +0.000 C 
ATOM      4  C   UNL     1      43.298  36.325  84.212  0.00  0.00    +0.000 C 
ATOM      5  C   UNL     1      42.021  37.081  83.999  0.00  0.00    +0.000 A 
ATOM      6  C   UNL     1      41.877  37.884  82.864  0.00  0.00    +0.000 A 
ATOM      7  C   UNL     1      40.967  37.048  84.924  0.00  0.00    +0.000 A 
ATOM      8  C   UNL     1      40.706  38.616  82.655  0.00  0.00    +0.000 A 
ATOM      9  C   UNL     1      39.804  37.789  84.735  0.00  0.00    +0.000 A 
ATOM     10  C   UNL     1      39.682  38.567  83.594  0.00  0.00    +0.000 A 
ENDROOT
BRANCH   2  11
ATOM     11  C   UNL     1      45.101  38.450  82.792  0.00  0.00    +0.000 A 
ATOM     12  C   UNL     1      46.310  37.992  83.362  0.00  0.00    +0.000 A 
ATOM     13  C   UNL     1      44.819  39.831  82.858  0.00  0.00    +0.000 A 
ATOM     14  C   UNL     1      47.180  38.888  83.977  0.00  0.00    +0.000 A 
ATOM     15  C   UNL     1      45.692  40.720  83.490  0.00  0.00    +0.000 A 
ATOM     16  C   UNL     1      46.861  40.239  84.049  0.00  0.00    +0.000 A 
BRANCH  14  17
ATOM     17  O   UNL     1      48.370  38.496  84.523  0.00  0.00    +0.000 OA
ATOM     18  H   UNL     1      49.107  38.917  84.036  0.00  0.00    +0.000 HD
ENDBRANCH  14  17
BRANCH  16  19
ATOM     19  O   UNL     1      47.717  41.108  84.663  0.00  0.00    +0.000 OA
ATOM     20  H   UNL     1      47.871  40.715  85.546  0.00  0.00    +0.000 HD
ENDBRANCH  16  19
ENDBRANCH   2  11
BRANCH   3  21
ATOM     21  O   UNL     1      43.373  35.082  82.139  0.00  0.00    +0.000 OA
ATOM     22  H   UNL     1      42.919  35.556  81.413  0.00  0.00    +0.000 HD
ENDBRANCH   3  21
BRANCH   4  23
ATOM     23  O   UNL     1      43.003  35.045  84.796  0.00  0.00    +0.000 OA
ATOM     24  H   UNL     1      43.823  34.521  84.653  0.00  0.00    +0.000 HD
ENDBRANCH   4  23
BRANCH   7  25
ATOM     25  O   UNL     1      41.025  36.269  86.049  0.00  0.00    +0.000 OA
ATOM     26  H   UNL     1      40.321  36.587  86.657  0.00  0.00    +0.000 HD
ENDBRANCH   7  25
BRANCH  10  27
ATOM     27  O   UNL     1      38.561  39.306  83.354  0.00  0.00    +0.000 OA
ATOM     28  H   UNL     1      38.120  38.948  82.565  0.00  0.00    +0.000 HD
ENDBRANCH  10  27
BRANCH   2  29
ATOM     29  O   UNL     1      44.670  37.052  80.819  0.00  0.00    +0.000 OA
BRANCH  29  31
ATOM     30  O   UNL     1      44.490  38.684  77.497  0.00  0.00    +0.000 OA
ATOM     31  C   UNL     1      44.005  37.550  79.642  0.00  0.00    +0.000 C 
ATOM     32  C   UNL     1      45.077  38.098  78.667  0.00  0.00    +0.000 C 
ATOM     33  C   UNL     1      43.241  36.441  78.910  0.00  0.00    +0.000 C 
ATOM     34  C   UNL     1      42.959  36.789  77.475  0.00  0.00    +0.000 A 
ATOM     35  C   UNL     1      43.588  37.876  76.860  0.00  0.00    +0.000 A 
ATOM     36  C   UNL     1      42.062  36.024  76.720  0.00  0.00    +0.000 A 
ATOM     37  C   UNL     1      43.294  38.220  75.539  0.00  0.00    +0.000 A 
ATOM     38  C   UNL     1      41.773  36.346  75.396  0.00  0.00    +0.000 A 
ATOM     39  C   UNL     1      42.389  37.448  74.818  0.00  0.00    +0.000 A 
BRANCH  32  40
ATOM     40  C   UNL     1      45.932  39.167  79.335  0.00  0.00    +0.000 A 
ATOM     41  C   UNL     1      47.173  38.846  79.907  0.00  0.00    +0.000 A 
ATOM     42  C   UNL     1      45.519  40.511  79.311  0.00  0.00    +0.000 A 
ATOM     43  C   UNL     1      47.995  39.859  80.396  0.00  0.00    +0.000 A 
ATOM     44  C   UNL     1      46.340  41.520  79.821  0.00  0.00    +0.000 A 
ATOM     45  C   UNL     1      47.584  41.189  80.348  0.00  0.00    +0.000 A 
BRANCH  43  46
ATOM     46  O   UNL     1      49.244  39.564  80.866  0.00  0.00    +0.000 OA
ATOM     47  H   UNL     1      49.667  40.381  81.178  0.00  0.00    +0.000 HD
ENDBRANCH  43  46
BRANCH  45  48
ATOM     48  O   UNL     1      48.429  42.165  80.794  0.00  0.00    +0.000 OA
ATOM     49  H   UNL     1      48.044  43.034  80.594  0.00  0.00    +0.000 HD
ENDBRANCH  45  48
ENDBRANCH  32  40
BRANCH  36  50
ATOM     50  O   UNL     1      41.465  34.945  77.310  0.00  0.00    +0.000 OA
ATOM     51  H   UNL     1      41.602  34.997  78.271  0.00  0.00    +0.000 HD
ENDBRANCH  36  50
BRANCH  39  52
ATOM     52  O   UNL     1      42.079  37.742  73.522  0.00  0.00    +0.000 OA
ATOM     53  H   UNL     1      41.202  37.374  73.320  0.00  0.00    +0.000 HD
ENDBRANCH  39  52
ENDBRANCH  29  31
ENDBRANCH   2  29
TORSDOF 14
ENDMDL
