MODEL 1
REMARK VINA RESULT:      -6.0      0.000      0.000
REMARK  Name = Progesterone.pdbqt.pdb
REMARK  1 active torsions:
REMARK  status: ('A' for Active; 'I' for Inactive)
REMARK    1  A    between atoms: C_7  and  C_21
REMARK                            x       y       z     vdW  Elec       q    Type
REMARK                         _______ _______ _______ _____ _____    ______ ____
ROOT
ATOM      1  O   UNL     1      64.759  38.974  76.240  0.00  0.00    +0.000 OA
ATOM      2  C   UNL     1      60.603  33.063  73.710  0.00  0.00    +0.000 C 
ATOM      3  C   UNL     1      61.257  31.864  72.832  0.00  0.00    +0.000 C 
ATOM      4  C   UNL     1      61.391  33.864  74.667  0.00  0.00    +0.000 C 
ATOM      5  C   UNL     1      62.890  33.890  74.777  0.00  0.00    +0.000 C 
ATOM      6  C   UNL     1      63.663  34.655  75.874  0.00  0.00    +0.000 C 
ATOM      7  C   UNL     1      60.646  32.069  71.478  0.00  0.00    +0.000 C 
ATOM      8  C   UNL     1      62.697  32.112  72.910  0.00  0.00    +0.000 C 
ATOM      9  C   UNL     1      63.483  33.024  73.817  0.00  0.00    +0.000 C 
ATOM     10  C   UNL     1      59.606  33.688  72.896  0.00  0.00    +0.000 C 
ATOM     11  C   UNL     1      60.771  34.820  75.506  0.00  0.00    +0.000 C 
ATOM     12  C   UNL     1      59.656  33.092  71.515  0.00  0.00    +0.000 C 
ATOM     13  C   UNL     1      62.818  35.881  76.601  0.00  0.00    +0.000 C 
ATOM     14  C   UNL     1      60.791  30.538  73.477  0.00  0.00    +0.000 C 
ATOM     15  C   UNL     1      61.413  35.799  76.441  0.00  0.00    +0.000 C 
ATOM     16  C   UNL     1      64.840  35.371  75.280  0.00  0.00    +0.000 C 
ATOM     17  C   UNL     1      64.091  33.672  76.996  0.00  0.00    +0.000 C 
ATOM     18  C   UNL     1      65.327  36.835  75.361  0.00  0.00    +0.000 C 
ATOM     19  C   UNL     1      63.368  37.077  76.621  0.00  0.00    +0.000 C 
ATOM     20  C   UNL     1      64.530  37.788  76.109  0.00  0.00    +0.000 C 
ENDROOT
BRANCH   7  21
ATOM     21  C   UNL     1      60.991  31.294  70.311  0.00  0.00    +0.000 C 
ATOM     22  O   UNL     1      61.962  31.487  69.600  0.00  0.00    +0.000 OA
ATOM     23  C   UNL     1      60.248  30.076  69.870  0.00  0.00    +0.000 C 
ENDBRANCH   7  21
TORSDOF 1
ENDMDL
MODEL 2
REMARK VINA RESULT:      -5.4      1.870      2.019
REMARK  Name = Progesterone.pdbqt.pdb
REMARK  1 active torsions:
REMARK  status: ('A' for Active; 'I' for Inactive)
REMARK    1  A    between atoms: C_7  and  C_21
REMARK                            x       y       z     vdW  Elec       q    Type
REMARK                         _______ _______ _______ _____ _____    ______ ____
ROOT
ATOM      1  O   UNL     1      63.788  40.715  73.553  0.00  0.00    +0.000 OA
ATOM      2  C   UNL     1      60.129  33.989  73.595  0.00  0.00    +0.000 C 
ATOM      3  C   UNL     1      60.711  32.688  72.817  0.00  0.00    +0.000 C 
ATOM      4  C   UNL     1      61.003  35.069  74.096  0.00  0.00    +0.000 C 
ATOM      5  C   UNL     1      62.452  35.269  73.748  0.00  0.00    +0.000 C 
ATOM      6  C   UNL     1      63.354  36.344  74.392  0.00  0.00    +0.000 C 
ATOM      7  C   UNL     1      59.735  32.506  71.693  0.00  0.00    +0.000 C 
ATOM      8  C   UNL     1      62.059  33.089  72.413  0.00  0.00    +0.000 C 
ATOM      9  C   UNL     1      62.900  34.264  72.847  0.00  0.00    +0.000 C 
ATOM     10  C   UNL     1      58.863  34.302  73.007  0.00  0.00    +0.000 C 
ATOM     11  C   UNL     1      60.483  36.128  74.875  0.00  0.00    +0.000 C 
ATOM     12  C   UNL     1      58.639  33.404  71.820  0.00  0.00    +0.000 C 
ATOM     13  C   UNL     1      62.547  37.617  75.080  0.00  0.00    +0.000 C 
ATOM     14  C   UNL     1      60.658  31.513  73.821  0.00  0.00    +0.000 C 
ATOM     15  C   UNL     1      61.183  37.360  75.364  0.00  0.00    +0.000 C 
ATOM     16  C   UNL     1      64.196  37.013  73.346  0.00  0.00    +0.000 C 
ATOM     17  C   UNL     1      64.222  35.702  75.507  0.00  0.00    +0.000 C 
ATOM     18  C   UNL     1      64.442  38.496  72.987  0.00  0.00    +0.000 C 
ATOM     19  C   UNL     1      62.879  38.832  74.698  0.00  0.00    +0.000 C 
ATOM     20  C   UNL     1      63.730  39.514  73.734  0.00  0.00    +0.000 C 
ENDROOT
BRANCH   7  21
ATOM     21  C   UNL     1      59.877  31.515  70.655  0.00  0.00    +0.000 C 
ATOM     22  O   UNL     1      60.066  30.324  70.839  0.00  0.00    +0.000 OA
ATOM     23  C   UNL     1      59.716  31.804  69.199  0.00  0.00    +0.000 C 
ENDBRANCH   7  21
TORSDOF 1
ENDMDL
MODEL 3
REMARK VINA RESULT:      -5.2     21.305     23.190
REMARK  Name = Progesterone.pdbqt.pdb
REMARK  1 active torsions:
REMARK  status: ('A' for Active; 'I' for Inactive)
REMARK    1  A    between atoms: C_7  and  C_21
REMARK                            x       y       z     vdW  Elec       q    Type
REMARK                         _______ _______ _______ _____ _____    ______ ____
ROOT
ATOM      1  O   UNL     1      49.794  24.344  87.133  0.00  0.00    +0.000 OA
ATOM      2  C   UNL     1      43.246  22.763  83.494  0.00  0.00    +0.000 C 
ATOM      3  C   UNL     1      42.069  23.868  83.320  0.00  0.00    +0.000 C 
ATOM      4  C   UNL     1      44.666  23.135  83.643  0.00  0.00    +0.000 C 
ATOM      5  C   UNL     1      45.196  24.514  83.922  0.00  0.00    +0.000 C 
ATOM      6  C   UNL     1      46.698  24.873  83.950  0.00  0.00    +0.000 C 
ATOM      7  C   UNL     1      40.979  23.340  84.205  0.00  0.00    +0.000 C 
ATOM      8  C   UNL     1      42.686  25.117  83.769  0.00  0.00    +0.000 C 
ATOM      9  C   UNL     1      44.133  25.453  84.031  0.00  0.00    +0.000 C 
ATOM     10  C   UNL     1      42.701  21.681  84.257  0.00  0.00    +0.000 C 
ATOM     11  C   UNL     1      45.681  22.150  83.672  0.00  0.00    +0.000 C 
ATOM     12  C   UNL     1      41.316  22.054  84.715  0.00  0.00    +0.000 C 
ATOM     13  C   UNL     1      47.720  23.594  84.200  0.00  0.00    +0.000 C 
ATOM     14  C   UNL     1      41.660  23.846  81.829  0.00  0.00    +0.000 C 
ATOM     15  C   UNL     1      47.147  22.326  83.934  0.00  0.00    +0.000 C 
ATOM     16  C   UNL     1      46.998  25.768  85.117  0.00  0.00    +0.000 C 
ATOM     17  C   UNL     1      47.108  25.525  82.603  0.00  0.00    +0.000 C 
ATOM     18  C   UNL     1      48.048  25.700  86.249  0.00  0.00    +0.000 C 
ATOM     19  C   UNL     1      48.586  23.683  85.188  0.00  0.00    +0.000 C 
ATOM     20  C   UNL     1      48.941  24.559  86.294  0.00  0.00    +0.000 C 
ENDROOT
BRANCH   7  21
ATOM     21  C   UNL     1      39.740  24.032  84.458  0.00  0.00    +0.000 C 
ATOM     22  O   UNL     1      39.591  24.939  85.260  0.00  0.00    +0.000 OA
ATOM     23  C   UNL     1      38.479  23.792  83.694  0.00  0.00    +0.000 C 
ENDBRANCH   7  21
TORSDOF 1
ENDMDL
MODEL 4
REMARK VINA RESULT:      -5.2     12.728     15.171
REMARK  Name = Progesterone.pdbqt.pdb
REMARK  1 active torsions:
REMARK  status: ('A' for Active; 'I' for Inactive)
REMARK    1  A    between atoms: C_7  and  C_21
REMARK                            x       y       z     vdW  Elec       q    Type
REMARK                         _______ _______ _______ _____ _____    ______ ____
ROOT
ATOM      1  O   UNL     1      60.364  28.423  88.294  0.00  0.00    +0.000 OA
ATOM      2  C   UNL     1      58.393  35.614  86.558  0.00  0.00    +0.000 C 
ATOM      3  C   UNL     1      57.068  36.318  87.181  0.00  0.00    +0.000 C 
ATOM      4  C   UNL     1      59.113  34.528  87.252  0.00  0.00    +0.000 C 
ATOM      5  C   UNL     1      58.613  33.752  88.438  0.00  0.00    +0.000 C 
ATOM      6  C   UNL     1      59.455  32.705  89.202  0.00  0.00    +0.000 C 
ATOM      7  C   UNL     1      56.165  36.444  85.990  0.00  0.00    +0.000 C 
ATOM      8  C   UNL     1      56.617  35.379  88.208  0.00  0.00    +0.000 C 
ATOM      9  C   UNL     1      57.320  34.197  88.828  0.00  0.00    +0.000 C 
ATOM     10  C   UNL     1      58.223  35.573  85.138  0.00  0.00    +0.000 C 
ATOM     11  C   UNL     1      60.330  34.018  86.746  0.00  0.00    +0.000 C 
ATOM     12  C   UNL     1      56.839  36.059  84.797  0.00  0.00    +0.000 C 
ATOM     13  C   UNL     1      60.728  32.073  88.352  0.00  0.00    +0.000 C 
ATOM     14  C   UNL     1      57.511  37.700  87.715  0.00  0.00    +0.000 C 
ATOM     15  C   UNL     1      61.132  32.851  87.238  0.00  0.00    +0.000 C 
ATOM     16  C   UNL     1      58.626  31.492  89.507  0.00  0.00    +0.000 C 
ATOM     17  C   UNL     1      60.041  33.342  90.490  0.00  0.00    +0.000 C 
ATOM     18  C   UNL     1      58.850  29.981  89.268  0.00  0.00    +0.000 C 
ATOM     19  C   UNL     1      60.809  30.763  88.250  0.00  0.00    +0.000 C 
ATOM     20  C   UNL     1      60.058  29.562  88.584  0.00  0.00    +0.000 C 
ENDROOT
BRANCH   7  21
ATOM     21  C   UNL     1      54.811  36.936  86.053  0.00  0.00    +0.000 C 
ATOM     22  O   UNL     1      53.831  36.360  85.612  0.00  0.00    +0.000 OA
ATOM     23  C   UNL     1      54.412  38.189  86.761  0.00  0.00    +0.000 C 
ENDBRANCH   7  21
TORSDOF 1
ENDMDL
MODEL 5
REMARK VINA RESULT:      -5.2     62.606     64.593
REMARK  Name = Progesterone.pdbqt.pdb
REMARK  1 active torsions:
REMARK  status: ('A' for Active; 'I' for Inactive)
REMARK    1  A    between atoms: C_7  and  C_21
REMARK                            x       y       z     vdW  Elec       q    Type
REMARK                         _______ _______ _______ _____ _____    ______ ____
ROOT
ATOM      1  O   UNL     1       1.352  15.020  94.997  0.00  0.00    +0.000 OA
ATOM      2  C   UNL     1       7.838  15.584  99.026  0.00  0.00    +0.000 C 
ATOM      3  C   UNL     1       8.006  14.895 100.488  0.00  0.00    +0.000 C 
ATOM      4  C   UNL     1       6.908  15.060  98.006  0.00  0.00    +0.000 C 
ATOM      5  C   UNL     1       5.829  14.038  98.233  0.00  0.00    +0.000 C 
ATOM      6  C   UNL     1       4.961  13.434  97.107  0.00  0.00    +0.000 C 
ATOM      7  C   UNL     1       8.063  16.077 101.410  0.00  0.00    +0.000 C 
ATOM      8  C   UNL     1       6.816  14.056 100.624  0.00  0.00    +0.000 C 
ATOM      9  C   UNL     1       5.804  13.620  99.593  0.00  0.00    +0.000 C 
ATOM     10  C   UNL     1       7.991  16.995  99.204  0.00  0.00    +0.000 C 
ATOM     11  C   UNL     1       6.871  15.605  96.702  0.00  0.00    +0.000 C 
ATOM     12  C   UNL     1       8.101  17.295 100.675  0.00  0.00    +0.000 C 
ATOM     13  C   UNL     1       4.884  14.337  95.720  0.00  0.00    +0.000 C 
ATOM     14  C   UNL     1       9.345  14.122 100.460  0.00  0.00    +0.000 C 
ATOM     15  C   UNL     1       5.923  15.290  95.584  0.00  0.00    +0.000 C 
ATOM     16  C   UNL     1       3.525  13.365  97.537  0.00  0.00    +0.000 C 
ATOM     17  C   UNL     1       5.512  12.039  96.710  0.00  0.00    +0.000 C 
ATOM     18  C   UNL     1       2.210  13.847  96.884  0.00  0.00    +0.000 C 
ATOM     19  C   UNL     1       3.692  14.655  95.260  0.00  0.00    +0.000 C 
ATOM     20  C   UNL     1       2.285  14.552  95.619  0.00  0.00    +0.000 C 
ENDROOT
BRANCH   7  21
ATOM     21  C   UNL     1       8.119  15.975 102.848  0.00  0.00    +0.000 C 
ATOM     22  O   UNL     1       9.141  15.882 103.507  0.00  0.00    +0.000 OA
ATOM     23  C   UNL     1       6.923  16.066 103.737  0.00  0.00    +0.000 C 
ENDBRANCH   7  21
TORSDOF 1
ENDMDL
MODEL 6
REMARK VINA RESULT:      -5.1      5.446      8.441
REMARK  Name = Progesterone.pdbqt.pdb
REMARK  1 active torsions:
REMARK  status: ('A' for Active; 'I' for Inactive)
REMARK    1  A    between atoms: C_7  and  C_21
REMARK                            x       y       z     vdW  Elec       q    Type
REMARK                         _______ _______ _______ _____ _____    ______ ____
ROOT
ATOM      1  O   UNL     1      53.017  35.895  67.406  0.00  0.00    +0.000 OA
ATOM      2  C   UNL     1      59.744  33.554  70.214  0.00  0.00    +0.000 C 
ATOM      3  C   UNL     1      60.609  32.376  69.506  0.00  0.00    +0.000 C 
ATOM      4  C   UNL     1      58.805  34.408  69.461  0.00  0.00    +0.000 C 
ATOM      5  C   UNL     1      58.314  34.164  68.060  0.00  0.00    +0.000 C 
ATOM      6  C   UNL     1      57.424  35.152  67.273  0.00  0.00    +0.000 C 
ATOM      7  C   UNL     1      60.512  31.250  70.492  0.00  0.00    +0.000 C 
ATOM      8  C   UNL     1      59.925  32.149  68.232  0.00  0.00    +0.000 C 
ATOM      9  C   UNL     1      58.878  32.973  67.526  0.00  0.00    +0.000 C 
ATOM     10  C   UNL     1      59.409  33.101  71.529  0.00  0.00    +0.000 C 
ATOM     11  C   UNL     1      58.156  35.503  70.078  0.00  0.00    +0.000 C 
ATOM     12  C   UNL     1      59.860  31.673  71.685  0.00  0.00    +0.000 C 
ATOM     13  C   UNL     1      56.582  36.233  68.205  0.00  0.00    +0.000 C 
ATOM     14  C   UNL     1      62.056  32.906  69.380  0.00  0.00    +0.000 C 
ATOM     15  C   UNL     1      57.092  36.397  69.516  0.00  0.00    +0.000 C 
ATOM     16  C   UNL     1      56.332  34.412  66.557  0.00  0.00    +0.000 C 
ATOM     17  C   UNL     1      58.298  35.980  66.295  0.00  0.00    +0.000 C 
ATOM     18  C   UNL     1      54.799  34.595  66.507  0.00  0.00    +0.000 C 
ATOM     19  C   UNL     1      55.278  36.302  68.037  0.00  0.00    +0.000 C 
ATOM     20  C   UNL     1      54.203  35.644  67.311  0.00  0.00    +0.000 C 
ENDROOT
BRANCH   7  21
ATOM     21  C   UNL     1      61.054  29.932  70.267  0.00  0.00    +0.000 C 
ATOM     22  O   UNL     1      60.447  28.996  69.775  0.00  0.00    +0.000 OA
ATOM     23  C   UNL     1      62.478  29.562  70.523  0.00  0.00    +0.000 C 
ENDBRANCH   7  21
TORSDOF 1
ENDMDL
MODEL 7
REMARK VINA RESULT:      -5.0     21.581     23.450
REMARK  Name = Progesterone.pdbqt.pdb
REMARK  1 active torsions:
REMARK  status: ('A' for Active; 'I' for Inactive)
REMARK    1  A    between atoms: C_7  and  C_21
REMARK                            x       y       z     vdW  Elec       q    Type
REMARK                         _______ _______ _______ _____ _____    ______ ____
ROOT
ATOM      1  O   UNL     1      49.752  21.657  84.904  0.00  0.00    +0.000 OA
ATOM      2  C   UNL     1      43.157  25.416  83.908  0.00  0.00    +0.000 C 
ATOM      3  C   UNL     1      41.949  25.335  84.990  0.00  0.00    +0.000 C 
ATOM      4  C   UNL     1      44.571  25.221  84.284  0.00  0.00    +0.000 C 
ATOM      5  C   UNL     1      45.072  24.674  85.592  0.00  0.00    +0.000 C 
ATOM      6  C   UNL     1      46.565  24.601  85.983  0.00  0.00    +0.000 C 
ATOM      7  C   UNL     1      40.896  24.558  84.258  0.00  0.00    +0.000 C 
ATOM      8  C   UNL     1      42.544  24.650  86.137  0.00  0.00    +0.000 C 
ATOM      9  C   UNL     1      43.989  24.353  86.456  0.00  0.00    +0.000 C 
ATOM     10  C   UNL     1      42.660  24.882  82.677  0.00  0.00    +0.000 C 
ATOM     11  C   UNL     1      45.611  25.416  83.346  0.00  0.00    +0.000 C 
ATOM     12  C   UNL     1      41.278  24.330  82.905  0.00  0.00    +0.000 C 
ATOM     13  C   UNL     1      47.626  24.640  84.711  0.00  0.00    +0.000 C 
ATOM     14  C   UNL     1      41.503  26.791  85.262  0.00  0.00    +0.000 C 
ATOM     15  C   UNL     1      47.078  25.151  83.508  0.00  0.00    +0.000 C 
ATOM     16  C   UNL     1      46.871  23.281  86.627  0.00  0.00    +0.000 C 
ATOM     17  C   UNL     1      46.924  25.793  86.909  0.00  0.00    +0.000 C 
ATOM     18  C   UNL     1      47.951  22.208  86.360  0.00  0.00    +0.000 C 
ATOM     19  C   UNL     1      48.513  23.672  84.622  0.00  0.00    +0.000 C 
ATOM     20  C   UNL     1      48.874  22.416  85.262  0.00  0.00    +0.000 C 
ENDROOT
BRANCH   7  21
ATOM     21  C   UNL     1      39.645  24.143  84.846  0.00  0.00    +0.000 C 
ATOM     22  O   UNL     1      39.532  23.458  85.848  0.00  0.00    +0.000 OA
ATOM     23  C   UNL     1      38.306  24.582  84.353  0.00  0.00    +0.000 C 
ENDBRANCH   7  21
TORSDOF 1
ENDMDL
MODEL 8
REMARK VINA RESULT:      -5.0      3.059      4.339
REMARK  Name = Progesterone.pdbqt.pdb
REMARK  1 active torsions:
REMARK  status: ('A' for Active; 'I' for Inactive)
REMARK    1  A    between atoms: C_7  and  C_21
REMARK                            x       y       z     vdW  Elec       q    Type
REMARK                         _______ _______ _______ _____ _____    ______ ____
ROOT
ATOM      1  O   UNL     1      68.532  37.229  73.293  0.00  0.00    +0.000 OA
ATOM      2  C   UNL     1      61.304  36.863  75.792  0.00  0.00    +0.000 C 
ATOM      3  C   UNL     1      60.352  35.582  75.489  0.00  0.00    +0.000 C 
ATOM      4  C   UNL     1      62.775  36.759  75.856  0.00  0.00    +0.000 C 
ATOM      5  C   UNL     1      63.600  35.585  75.405  0.00  0.00    +0.000 C 
ATOM      6  C   UNL     1      65.128  35.477  75.604  0.00  0.00    +0.000 C 
ATOM      7  C   UNL     1      59.337  36.138  74.535  0.00  0.00    +0.000 C 
ATOM      8  C   UNL     1      61.264  34.590  74.920  0.00  0.00    +0.000 C 
ATOM      9  C   UNL     1      62.771  34.551  74.889  0.00  0.00    +0.000 C 
ATOM     10  C   UNL     1      60.689  38.002  75.181  0.00  0.00    +0.000 C 
ATOM     11  C   UNL     1      63.570  37.863  76.241  0.00  0.00    +0.000 C 
ATOM     12  C   UNL     1      59.495  37.545  74.386  0.00  0.00    +0.000 C 
ATOM     13  C   UNL     1      65.909  36.919  75.840  0.00  0.00    +0.000 C 
ATOM     14  C   UNL     1      59.713  35.178  76.838  0.00  0.00    +0.000 C 
ATOM     15  C   UNL     1      65.065  37.982  76.247  0.00  0.00    +0.000 C 
ATOM     16  C   UNL     1      65.779  34.949  74.359  0.00  0.00    +0.000 C 
ATOM     17  C   UNL     1      65.435  34.588  76.838  0.00  0.00    +0.000 C 
ATOM     18  C   UNL     1      66.964  35.449  73.502  0.00  0.00    +0.000 C 
ATOM     19  C   UNL     1      66.922  37.205  75.050  0.00  0.00    +0.000 C 
ATOM     20  C   UNL     1      67.614  36.689  73.878  0.00  0.00    +0.000 C 
ENDROOT
BRANCH   7  21
ATOM     21  C   UNL     1      58.313  35.348  73.897  0.00  0.00    +0.000 C 
ATOM     22  O   UNL     1      57.139  35.315  74.230  0.00  0.00    +0.000 OA
ATOM     23  C   UNL     1      58.536  34.526  72.671  0.00  0.00    +0.000 C 
ENDBRANCH   7  21
TORSDOF 1
ENDMDL
MODEL 9
REMARK VINA RESULT:      -4.9     46.216     49.185
REMARK  Name = Progesterone.pdbqt.pdb
REMARK  1 active torsions:
REMARK  status: ('A' for Active; 'I' for Inactive)
REMARK    1  A    between atoms: C_7  and  C_21
REMARK                            x       y       z     vdW  Elec       q    Type
REMARK                         _______ _______ _______ _____ _____    ______ ____
ROOT
ATOM      1  O   UNL     1      19.938   3.675  81.653  0.00  0.00    +0.000 OA
ATOM      2  C   UNL     1      24.143   7.173  87.009  0.00  0.00    +0.000 C 
ATOM      3  C   UNL     1      24.792   8.643  86.771  0.00  0.00    +0.000 C 
ATOM      4  C   UNL     1      22.920   6.725  86.314  0.00  0.00    +0.000 C 
ATOM      5  C   UNL     1      22.272   7.401  85.138  0.00  0.00    +0.000 C 
ATOM      6  C   UNL     1      20.926   6.959  84.522  0.00  0.00    +0.000 C 
ATOM      7  C   UNL     1      26.261   8.352  86.694  0.00  0.00    +0.000 C 
ATOM      8  C   UNL     1      24.182   9.102  85.522  0.00  0.00    +0.000 C 
ATOM      9  C   UNL     1      22.999   8.563  84.757  0.00  0.00    +0.000 C 
ATOM     10  C   UNL     1      25.226   6.262  87.222  0.00  0.00    +0.000 C 
ATOM     11  C   UNL     1      22.311   5.489  86.631  0.00  0.00    +0.000 C 
ATOM     12  C   UNL     1      26.526   6.987  86.999  0.00  0.00    +0.000 C 
ATOM     13  C   UNL     1      20.486   5.395  84.847  0.00  0.00    +0.000 C 
ATOM     14  C   UNL     1      24.438   9.489  88.015  0.00  0.00    +0.000 C 
ATOM     15  C   UNL     1      21.151   4.819  85.958  0.00  0.00    +0.000 C 
ATOM     16  C   UNL     1      21.009   6.974  83.024  0.00  0.00    +0.000 C 
ATOM     17  C   UNL     1      19.785   7.870  85.046  0.00  0.00    +0.000 C 
ATOM     18  C   UNL     1      20.672   5.921  81.943  0.00  0.00    +0.000 C 
ATOM     19  C   UNL     1      20.199   4.614  83.827  0.00  0.00    +0.000 C 
ATOM     20  C   UNL     1      20.211   4.615  82.372  0.00  0.00    +0.000 C 
ENDROOT
BRANCH   7  21
ATOM     21  C   UNL     1      27.265   9.344  86.397  0.00  0.00    +0.000 C 
ATOM     22  O   UNL     1      27.534   9.762  85.283  0.00  0.00    +0.000 OA
ATOM     23  C   UNL     1      28.053  10.071  87.437  0.00  0.00    +0.000 C 
ENDBRANCH   7  21
TORSDOF 1
ENDMDL
