MODEL 1
REMARK VINA RESULT:      -7.8      0.000      0.000
REMARK  Name = Quercetin.pdbqt.pdb
REMARK  6 active torsions:
REMARK  status: ('A' for Active; 'I' for Inactive)
REMARK    1  A    between atoms: C_5  and  C_12
REMARK    2  A    between atoms: C_6  and  O_22
REMARK    3  A    between atoms: C_8  and  O_24
REMARK    4  A    between atoms: C_10  and  O_26
REMARK    5  A    between atoms: C_15  and  O_18
REMARK    6  A    between atoms: C_17  and  O_20
REMARK                            x       y       z     vdW  Elec       q    Type
REMARK                         _______ _______ _______ _____ _____    ______ ____
ROOT
ATOM      1  O   UNL     1      58.098  36.889  77.438  0.00  0.00    +0.000 OA
ATOM      2  O   UNL     1      54.386  36.755  75.787  0.00  0.00    +0.000 OA
ATOM      3  C   UNL     1      56.613  37.416  75.595  0.00  0.00    +0.000 A 
ATOM      4  C   UNL     1      57.861  37.437  76.207  0.00  0.00    +0.000 A 
ATOM      5  C   UNL     1      57.054  36.265  78.106  0.00  0.00    +0.000 A 
ATOM      6  C   UNL     1      55.790  36.181  77.639  0.00  0.00    +0.000 A 
ATOM      7  C   UNL     1      55.500  36.777  76.304  0.00  0.00    +0.000 A 
ATOM      8  C   UNL     1      56.443  37.999  74.333  0.00  0.00    +0.000 A 
ATOM      9  C   UNL     1      58.944  38.037  75.567  0.00  0.00    +0.000 A 
ATOM     10  C   UNL     1      58.765  38.613  74.313  0.00  0.00    +0.000 A 
ATOM     11  C   UNL     1      57.522  38.599  73.690  0.00  0.00    +0.000 A 
ENDROOT
BRANCH   5  12
ATOM     12  C   UNL     1      57.480  35.710  79.399  0.00  0.00    +0.000 A 
ATOM     13  C   UNL     1      58.337  34.607  79.461  0.00  0.00    +0.000 A 
ATOM     14  C   UNL     1      57.074  36.331  80.587  0.00  0.00    +0.000 A 
ATOM     15  C   UNL     1      58.754  34.126  80.696  0.00  0.00    +0.000 A 
ATOM     16  C   UNL     1      57.508  35.856  81.824  0.00  0.00    +0.000 A 
ATOM     17  C   UNL     1      58.361  34.763  81.868  0.00  0.00    +0.000 A 
BRANCH  15  18
ATOM     18  O   UNL     1      59.522  33.000  80.736  0.00  0.00    +0.000 OA
ATOM     19  H   UNL     1      58.928  32.255  80.947  0.00  0.00    +0.000 HD
ENDBRANCH  15  18
BRANCH  17  20
ATOM     20  O   UNL     1      58.829  34.335  83.076  0.00  0.00    +0.000 OA
ATOM     21  H   UNL     1      58.513  33.419  83.188  0.00  0.00    +0.000 HD
ENDBRANCH  17  20
ENDBRANCH   5  12
BRANCH   6  22
ATOM     22  O   UNL     1      54.728  35.600  78.307  0.00  0.00    +0.000 OA
ATOM     23  H   UNL     1      54.287  34.951  77.736  0.00  0.00    +0.000 HD
ENDBRANCH   6  22
BRANCH   8  24
ATOM     24  O   UNL     1      55.244  38.017  73.673  0.00  0.00    +0.000 OA
ATOM     25  H   UNL     1      54.953  38.955  73.585  0.00  0.00    +0.000 HD
ENDBRANCH   8  24
BRANCH  10  26
ATOM     26  O   UNL     1      59.840  39.194  73.707  0.00  0.00    +0.000 OA
ATOM     27  H   UNL     1      60.490  38.496  73.508  0.00  0.00    +0.000 HD
ENDBRANCH  10  26
TORSDOF 6
ENDMDL
MODEL 2
REMARK VINA RESULT:      -7.4      1.589      7.235
REMARK  Name = Quercetin.pdbqt.pdb
REMARK  6 active torsions:
REMARK  status: ('A' for Active; 'I' for Inactive)
REMARK    1  A    between atoms: C_5  and  C_12
REMARK    2  A    between atoms: C_6  and  O_22
REMARK    3  A    between atoms: C_8  and  O_24
REMARK    4  A    between atoms: C_10  and  O_26
REMARK    5  A    between atoms: C_15  and  O_18
REMARK    6  A    between atoms: C_17  and  O_20
REMARK                            x       y       z     vdW  Elec       q    Type
REMARK                         _______ _______ _______ _____ _____    ______ ____
ROOT
ATOM      1  O   UNL     1      56.826  36.674  79.792  0.00  0.00    +0.000 OA
ATOM      2  O   UNL     1      59.718  33.875  80.362  0.00  0.00    +0.000 OA
ATOM      3  C   UNL     1      58.138  35.307  81.305  0.00  0.00    +0.000 A 
ATOM      4  C   UNL     1      57.161  36.263  81.053  0.00  0.00    +0.000 A 
ATOM      5  C   UNL     1      57.475  36.103  78.706  0.00  0.00    +0.000 A 
ATOM      6  C   UNL     1      58.451  35.175  78.801  0.00  0.00    +0.000 A 
ATOM      7  C   UNL     1      58.843  34.714  80.164  0.00  0.00    +0.000 A 
ATOM      8  C   UNL     1      58.431  34.935  82.623  0.00  0.00    +0.000 A 
ATOM      9  C   UNL     1      56.470  36.852  82.110  0.00  0.00    +0.000 A 
ATOM     10  C   UNL     1      56.767  36.476  83.416  0.00  0.00    +0.000 A 
ATOM     11  C   UNL     1      57.744  35.521  83.682  0.00  0.00    +0.000 A 
ENDROOT
BRANCH   5  12
ATOM     12  C   UNL     1      56.983  36.635  77.427  0.00  0.00    +0.000 A 
ATOM     13  C   UNL     1      57.586  37.747  76.831  0.00  0.00    +0.000 A 
ATOM     14  C   UNL     1      55.935  35.984  76.764  0.00  0.00    +0.000 A 
ATOM     15  C   UNL     1      57.124  38.206  75.604  0.00  0.00    +0.000 A 
ATOM     16  C   UNL     1      55.485  36.437  75.524  0.00  0.00    +0.000 A 
ATOM     17  C   UNL     1      56.098  37.539  74.944  0.00  0.00    +0.000 A 
BRANCH  15  18
ATOM     18  O   UNL     1      57.671  39.340  75.079  0.00  0.00    +0.000 OA
ATOM     19  H   UNL     1      57.147  40.091  75.413  0.00  0.00    +0.000 HD
ENDBRANCH  15  18
BRANCH  17  20
ATOM     20  O   UNL     1      55.694  37.946  73.706  0.00  0.00    +0.000 OA
ATOM     21  H   UNL     1      55.168  37.216  73.331  0.00  0.00    +0.000 HD
ENDBRANCH  17  20
ENDBRANCH   5  12
BRANCH   6  22
ATOM     22  O   UNL     1      59.137  34.624  77.735  0.00  0.00    +0.000 OA
ATOM     23  H   UNL     1      59.638  33.845  78.025  0.00  0.00    +0.000 HD
ENDBRANCH   6  22
BRANCH   8  24
ATOM     24  O   UNL     1      59.381  34.004  82.944  0.00  0.00    +0.000 OA
ATOM     25  H   UNL     1      59.786  34.261  83.806  0.00  0.00    +0.000 HD
ENDBRANCH   8  24
BRANCH  10  26
ATOM     26  O   UNL     1      56.078  37.067  84.434  0.00  0.00    +0.000 OA
ATOM     27  H   UNL     1      55.749  37.927  84.118  0.00  0.00    +0.000 HD
ENDBRANCH  10  26
TORSDOF 6
ENDMDL
MODEL 3
REMARK VINA RESULT:      -7.1      1.754      7.202
REMARK  Name = Quercetin.pdbqt.pdb
REMARK  6 active torsions:
REMARK  status: ('A' for Active; 'I' for Inactive)
REMARK    1  A    between atoms: C_5  and  C_12
REMARK    2  A    between atoms: C_6  and  O_22
REMARK    3  A    between atoms: C_8  and  O_24
REMARK    4  A    between atoms: C_10  and  O_26
REMARK    5  A    between atoms: C_15  and  O_18
REMARK    6  A    between atoms: C_17  and  O_20
REMARK                            x       y       z     vdW  Elec       q    Type
REMARK                         _______ _______ _______ _____ _____    ______ ____
ROOT
ATOM      1  O   UNL     1      57.358  37.184  77.387  0.00  0.00    +0.000 OA
ATOM      2  O   UNL     1      60.595  34.785  77.927  0.00  0.00    +0.000 OA
ATOM      3  C   UNL     1      58.632  35.686  78.806  0.00  0.00    +0.000 A 
ATOM      4  C   UNL     1      57.546  36.521  78.569  0.00  0.00    +0.000 A 
ATOM      5  C   UNL     1      58.280  37.007  76.365  0.00  0.00    +0.000 A 
ATOM      6  C   UNL     1      59.386  36.238  76.458  0.00  0.00    +0.000 A 
ATOM      7  C   UNL     1      59.621  35.510  77.738  0.00  0.00    +0.000 A 
ATOM      8  C   UNL     1      58.762  35.039  80.041  0.00  0.00    +0.000 A 
ATOM      9  C   UNL     1      56.585  36.716  79.560  0.00  0.00    +0.000 A 
ATOM     10  C   UNL     1      56.723  36.069  80.784  0.00  0.00    +0.000 A 
ATOM     11  C   UNL     1      57.805  35.231  81.034  0.00  0.00    +0.000 A 
ENDROOT
BRANCH   5  12
ATOM     12  C   UNL     1      57.919  37.768  75.160  0.00  0.00    +0.000 A 
ATOM     13  C   UNL     1      56.694  37.561  74.519  0.00  0.00    +0.000 A 
ATOM     14  C   UNL     1      58.787  38.758  74.680  0.00  0.00    +0.000 A 
ATOM     15  C   UNL     1      56.363  38.321  73.404  0.00  0.00    +0.000 A 
ATOM     16  C   UNL     1      58.444  39.529  73.571  0.00  0.00    +0.000 A 
ATOM     17  C   UNL     1      57.222  39.315  72.949  0.00  0.00    +0.000 A 
BRANCH  15  18
ATOM     18  O   UNL     1      55.201  38.047  72.745  0.00  0.00    +0.000 OA
ATOM     19  H   UNL     1      54.544  37.788  73.419  0.00  0.00    +0.000 HD
ENDBRANCH  15  18
BRANCH  17  20
ATOM     20  O   UNL     1      56.865  40.109  71.899  0.00  0.00    +0.000 OA
ATOM     21  H   UNL     1      57.518  39.947  71.193  0.00  0.00    +0.000 HD
ENDBRANCH  17  20
ENDBRANCH   5  12
BRANCH   6  22
ATOM     22  O   UNL     1      60.336  36.081  75.467  0.00  0.00    +0.000 OA
ATOM     23  H   UNL     1      60.082  35.358  74.871  0.00  0.00    +0.000 HD
ENDBRANCH   6  22
BRANCH   8  24
ATOM     24  O   UNL     1      59.805  34.206  80.344  0.00  0.00    +0.000 OA
ATOM     25  H   UNL     1      59.767  33.431  79.736  0.00  0.00    +0.000 HD
ENDBRANCH   8  24
BRANCH  10  26
ATOM     26  O   UNL     1      55.769  36.276  81.737  0.00  0.00    +0.000 OA
ATOM     27  H   UNL     1      55.186  36.994  81.432  0.00  0.00    +0.000 HD
ENDBRANCH  10  26
TORSDOF 6
ENDMDL
MODEL 4
REMARK VINA RESULT:      -6.9      1.739      2.222
REMARK  Name = Quercetin.pdbqt.pdb
REMARK  6 active torsions:
REMARK  status: ('A' for Active; 'I' for Inactive)
REMARK    1  A    between atoms: C_5  and  C_12
REMARK    2  A    between atoms: C_6  and  O_22
REMARK    3  A    between atoms: C_8  and  O_24
REMARK    4  A    between atoms: C_10  and  O_26
REMARK    5  A    between atoms: C_15  and  O_18
REMARK    6  A    between atoms: C_17  and  O_20
REMARK                            x       y       z     vdW  Elec       q    Type
REMARK                         _______ _______ _______ _____ _____    ______ ____
ROOT
ATOM      1  O   UNL     1      58.932  35.960  77.619  0.00  0.00    +0.000 OA
ATOM      2  O   UNL     1      55.687  35.813  75.175  0.00  0.00    +0.000 OA
ATOM      3  C   UNL     1      57.982  36.156  75.396  0.00  0.00    +0.000 A 
ATOM      4  C   UNL     1      59.057  36.197  76.277  0.00  0.00    +0.000 A 
ATOM      5  C   UNL     1      57.681  35.647  78.130  0.00  0.00    +0.000 A 
ATOM      6  C   UNL     1      56.549  35.584  77.397  0.00  0.00    +0.000 A 
ATOM      7  C   UNL     1      56.654  35.846  75.933  0.00  0.00    +0.000 A 
ATOM      8  C   UNL     1      58.184  36.411  74.034  0.00  0.00    +0.000 A 
ATOM      9  C   UNL     1      60.336  36.491  75.807  0.00  0.00    +0.000 A 
ATOM     10  C   UNL     1      60.526  36.742  74.452  0.00  0.00    +0.000 A 
ATOM     11  C   UNL     1      59.459  36.705  73.560  0.00  0.00    +0.000 A 
ENDROOT
BRANCH   5  12
ATOM     12  C   UNL     1      57.724  35.398  79.578  0.00  0.00    +0.000 A 
ATOM     13  C   UNL     1      56.994  36.194  80.467  0.00  0.00    +0.000 A 
ATOM     14  C   UNL     1      58.456  34.311  80.074  0.00  0.00    +0.000 A 
ATOM     15  C   UNL     1      57.023  35.914  81.827  0.00  0.00    +0.000 A 
ATOM     16  C   UNL     1      58.470  34.022  81.438  0.00  0.00    +0.000 A 
ATOM     17  C   UNL     1      57.736  34.820  82.305  0.00  0.00    +0.000 A 
BRANCH  15  18
ATOM     18  O   UNL     1      56.372  36.752  82.684  0.00  0.00    +0.000 OA
ATOM     19  H   UNL     1      56.317  37.622  82.247  0.00  0.00    +0.000 HD
ENDBRANCH  15  18
BRANCH  17  20
ATOM     20  O   UNL     1      57.705  34.502  83.632  0.00  0.00    +0.000 OA
ATOM     21  H   UNL     1      57.770  33.530  83.686  0.00  0.00    +0.000 HD
ENDBRANCH  17  20
ENDBRANCH   5  12
BRANCH   6  22
ATOM     22  O   UNL     1      55.288  35.313  77.894  0.00  0.00    +0.000 OA
ATOM     23  H   UNL     1      54.726  36.101  77.831  0.00  0.00    +0.000 HD
ENDBRANCH   6  22
BRANCH   8  24
ATOM     24  O   UNL     1      57.173  36.390  73.111  0.00  0.00    +0.000 OA
ATOM     25  H   UNL     1      56.592  37.170  73.272  0.00  0.00    +0.000 HD
ENDBRANCH   8  24
BRANCH  10  26
ATOM     26  O   UNL     1      61.786  37.027  74.016  0.00  0.00    +0.000 OA
ATOM     27  H   UNL     1      62.420  36.590  74.613  0.00  0.00    +0.000 HD
ENDBRANCH  10  26
TORSDOF 6
ENDMDL
MODEL 5
REMARK VINA RESULT:      -6.6      4.588      6.753
REMARK  Name = Quercetin.pdbqt.pdb
REMARK  6 active torsions:
REMARK  status: ('A' for Active; 'I' for Inactive)
REMARK    1  A    between atoms: C_5  and  C_12
REMARK    2  A    between atoms: C_6  and  O_22
REMARK    3  A    between atoms: C_8  and  O_24
REMARK    4  A    between atoms: C_10  and  O_26
REMARK    5  A    between atoms: C_15  and  O_18
REMARK    6  A    between atoms: C_17  and  O_20
REMARK                            x       y       z     vdW  Elec       q    Type
REMARK                         _______ _______ _______ _____ _____    ______ ____
ROOT
ATOM      1  O   UNL     1      57.885  35.062  74.167  0.00  0.00    +0.000 OA
ATOM      2  O   UNL     1      60.325  38.266  74.720  0.00  0.00    +0.000 OA
ATOM      3  C   UNL     1      58.222  37.307  75.021  0.00  0.00    +0.000 A 
ATOM      4  C   UNL     1      57.430  36.186  74.802  0.00  0.00    +0.000 A 
ATOM      5  C   UNL     1      59.202  35.025  73.733  0.00  0.00    +0.000 A 
ATOM      6  C   UNL     1      60.080  36.043  73.866  0.00  0.00    +0.000 A 
ATOM      7  C   UNL     1      59.609  37.283  74.547  0.00  0.00    +0.000 A 
ATOM      8  C   UNL     1      57.689  38.423  75.677  0.00  0.00    +0.000 A 
ATOM      9  C   UNL     1      56.105  36.170  75.235  0.00  0.00    +0.000 A 
ATOM     10  C   UNL     1      55.585  37.284  75.887  0.00  0.00    +0.000 A 
ATOM     11  C   UNL     1      56.366  38.412  76.112  0.00  0.00    +0.000 A 
ENDROOT
BRANCH   5  12
ATOM     12  C   UNL     1      59.536  33.744  73.096  0.00  0.00    +0.000 A 
ATOM     13  C   UNL     1      60.203  32.739  73.805  0.00  0.00    +0.000 A 
ATOM     14  C   UNL     1      59.129  33.498  71.778  0.00  0.00    +0.000 A 
ATOM     15  C   UNL     1      60.473  31.524  73.189  0.00  0.00    +0.000 A 
ATOM     16  C   UNL     1      59.387  32.271  71.169  0.00  0.00    +0.000 A 
ATOM     17  C   UNL     1      60.045  31.283  71.888  0.00  0.00    +0.000 A 
BRANCH  15  18
ATOM     18  O   UNL     1      61.196  30.589  73.871  0.00  0.00    +0.000 OA
ATOM     19  H   UNL     1      61.551  31.027  74.667  0.00  0.00    +0.000 HD
ENDBRANCH  15  18
BRANCH  17  20
ATOM     20  O   UNL     1      60.246  30.064  71.309  0.00  0.00    +0.000 OA
ATOM     21  H   UNL     1      60.066  29.397  71.998  0.00  0.00    +0.000 HD
ENDBRANCH  17  20
ENDBRANCH   5  12
BRANCH   6  22
ATOM     22  O   UNL     1      61.383  36.040  73.405  0.00  0.00    +0.000 OA
ATOM     23  H   UNL     1      62.002  36.099  74.150  0.00  0.00    +0.000 HD
ENDBRANCH   6  22
BRANCH   8  24
ATOM     24  O   UNL     1      58.409  39.561  75.924  0.00  0.00    +0.000 OA
ATOM     25  H   UNL     1      58.887  39.809  75.098  0.00  0.00    +0.000 HD
ENDBRANCH   8  24
BRANCH  10  26
ATOM     26  O   UNL     1      54.286  37.244  76.301  0.00  0.00    +0.000 OA
ATOM     27  H   UNL     1      53.718  37.181  75.513  0.00  0.00    +0.000 HD
ENDBRANCH  10  26
TORSDOF 6
ENDMDL
MODEL 6
REMARK VINA RESULT:      -6.5      1.600      2.688
REMARK  Name = Quercetin.pdbqt.pdb
REMARK  6 active torsions:
REMARK  status: ('A' for Active; 'I' for Inactive)
REMARK    1  A    between atoms: C_5  and  C_12
REMARK    2  A    between atoms: C_6  and  O_22
REMARK    3  A    between atoms: C_8  and  O_24
REMARK    4  A    between atoms: C_10  and  O_26
REMARK    5  A    between atoms: C_15  and  O_18
REMARK    6  A    between atoms: C_17  and  O_20
REMARK                            x       y       z     vdW  Elec       q    Type
REMARK                         _______ _______ _______ _____ _____    ______ ____
ROOT
ATOM      1  O   UNL     1      57.094  37.204  77.143  0.00  0.00    +0.000 OA
ATOM      2  O   UNL     1      59.906  35.609  74.678  0.00  0.00    +0.000 OA
ATOM      3  C   UNL     1      58.116  37.079  74.947  0.00  0.00    +0.000 A 
ATOM      4  C   UNL     1      57.173  37.589  75.832  0.00  0.00    +0.000 A 
ATOM      5  C   UNL     1      58.005  36.275  77.624  0.00  0.00    +0.000 A 
ATOM      6  C   UNL     1      58.965  35.688  76.878  0.00  0.00    +0.000 A 
ATOM      7  C   UNL     1      59.069  36.081  75.444  0.00  0.00    +0.000 A 
ATOM      8  C   UNL     1      58.138  37.518  73.617  0.00  0.00    +0.000 A 
ATOM      9  C   UNL     1      56.248  38.537  75.398  0.00  0.00    +0.000 A 
ATOM     10  C   UNL     1      56.278  38.967  74.075  0.00  0.00    +0.000 A 
ATOM     11  C   UNL     1      57.216  38.464  73.180  0.00  0.00    +0.000 A 
ENDROOT
BRANCH   5  12
ATOM     12  C   UNL     1      57.799  35.990  79.052  0.00  0.00    +0.000 A 
ATOM     13  C   UNL     1      58.737  35.251  79.780  0.00  0.00    +0.000 A 
ATOM     14  C   UNL     1      56.680  36.517  79.709  0.00  0.00    +0.000 A 
ATOM     15  C   UNL     1      58.536  35.029  81.137  0.00  0.00    +0.000 A 
ATOM     16  C   UNL     1      56.490  36.307  81.074  0.00  0.00    +0.000 A 
ATOM     17  C   UNL     1      57.432  35.575  81.783  0.00  0.00    +0.000 A 
BRANCH  15  18
ATOM     18  O   UNL     1      59.419  34.237  81.810  0.00  0.00    +0.000 OA
ATOM     19  H   UNL     1      60.218  34.164  81.255  0.00  0.00    +0.000 HD
ENDBRANCH  15  18
BRANCH  17  20
ATOM     20  O   UNL     1      57.273  35.418  83.129  0.00  0.00    +0.000 OA
ATOM     21  H   UNL     1      56.446  34.918  83.255  0.00  0.00    +0.000 HD
ENDBRANCH  17  20
ENDBRANCH   5  12
BRANCH   6  22
ATOM     22  O   UNL     1      59.855  34.731  77.329  0.00  0.00    +0.000 OA
ATOM     23  H   UNL     1      60.688  34.789  76.834  0.00  0.00    +0.000 HD
ENDBRANCH   6  22
BRANCH   8  24
ATOM     24  O   UNL     1      59.035  37.058  72.692  0.00  0.00    +0.000 OA
ATOM     25  H   UNL     1      58.630  36.291  72.223  0.00  0.00    +0.000 HD
ENDBRANCH   8  24
BRANCH  10  26
ATOM     26  O   UNL     1      55.362  39.895  73.675  0.00  0.00    +0.000 OA
ATOM     27  H   UNL     1      55.542  40.117  72.743  0.00  0.00    +0.000 HD
ENDBRANCH  10  26
TORSDOF 6
ENDMDL
MODEL 7
REMARK VINA RESULT:      -6.4      3.562      5.633
REMARK  Name = Quercetin.pdbqt.pdb
REMARK  6 active torsions:
REMARK  status: ('A' for Active; 'I' for Inactive)
REMARK    1  A    between atoms: C_5  and  C_12
REMARK    2  A    between atoms: C_6  and  O_22
REMARK    3  A    between atoms: C_8  and  O_24
REMARK    4  A    between atoms: C_10  and  O_26
REMARK    5  A    between atoms: C_15  and  O_18
REMARK    6  A    between atoms: C_17  and  O_20
REMARK                            x       y       z     vdW  Elec       q    Type
REMARK                         _______ _______ _______ _____ _____    ______ ____
ROOT
ATOM      1  O   UNL     1      59.517  35.742  77.981  0.00  0.00    +0.000 OA
ATOM      2  O   UNL     1      57.044  35.880  74.758  0.00  0.00    +0.000 OA
ATOM      3  C   UNL     1      57.268  35.798  77.077  0.00  0.00    +0.000 A 
ATOM      4  C   UNL     1      58.159  35.748  78.143  0.00  0.00    +0.000 A 
ATOM      5  C   UNL     1      60.039  35.806  76.697  0.00  0.00    +0.000 A 
ATOM      6  C   UNL     1      59.295  35.846  75.570  0.00  0.00    +0.000 A 
ATOM      7  C   UNL     1      57.812  35.845  75.716  0.00  0.00    +0.000 A 
ATOM      8  C   UNL     1      55.888  35.800  77.317  0.00  0.00    +0.000 A 
ATOM      9  C   UNL     1      57.681  35.700  79.452  0.00  0.00    +0.000 A 
ATOM     10  C   UNL     1      56.309  35.703  79.680  0.00  0.00    +0.000 A 
ATOM     11  C   UNL     1      55.407  35.752  78.622  0.00  0.00    +0.000 A 
ENDROOT
BRANCH   5  12
ATOM     12  C   UNL     1      61.509  35.814  76.699  0.00  0.00    +0.000 A 
ATOM     13  C   UNL     1      62.235  34.674  77.057  0.00  0.00    +0.000 A 
ATOM     14  C   UNL     1      62.196  36.961  76.279  0.00  0.00    +0.000 A 
ATOM     15  C   UNL     1      63.623  34.698  77.014  0.00  0.00    +0.000 A 
ATOM     16  C   UNL     1      63.589  36.977  76.221  0.00  0.00    +0.000 A 
ATOM     17  C   UNL     1      64.294  35.834  76.575  0.00  0.00    +0.000 A 
BRANCH  15  18
ATOM     18  O   UNL     1      64.312  33.603  77.444  0.00  0.00    +0.000 OA
ATOM     19  H   UNL     1      64.740  33.208  76.662  0.00  0.00    +0.000 HD
ENDBRANCH  15  18
BRANCH  17  20
ATOM     20  O   UNL     1      65.653  35.834  76.463  0.00  0.00    +0.000 OA
ATOM     21  H   UNL     1      66.006  35.980  77.361  0.00  0.00    +0.000 HD
ENDBRANCH  17  20
ENDBRANCH   5  12
BRANCH   6  22
ATOM     22  O   UNL     1      59.796  35.869  74.282  0.00  0.00    +0.000 OA
ATOM     23  H   UNL     1      59.683  36.751  73.895  0.00  0.00    +0.000 HD
ENDBRANCH   6  22
BRANCH   8  24
ATOM     24  O   UNL     1      54.954  35.846  76.317  0.00  0.00    +0.000 OA
ATOM     25  H   UNL     1      55.302  36.420  75.596  0.00  0.00    +0.000 HD
ENDBRANCH   8  24
BRANCH  10  26
ATOM     26  O   UNL     1      55.866  35.655  80.970  0.00  0.00    +0.000 OA
ATOM     27  H   UNL     1      56.622  35.429  81.541  0.00  0.00    +0.000 HD
ENDBRANCH  10  26
TORSDOF 6
ENDMDL
MODEL 8
REMARK VINA RESULT:      -6.3      5.245      7.641
REMARK  Name = Quercetin.pdbqt.pdb
REMARK  6 active torsions:
REMARK  status: ('A' for Active; 'I' for Inactive)
REMARK    1  A    between atoms: C_5  and  C_12
REMARK    2  A    between atoms: C_6  and  O_22
REMARK    3  A    between atoms: C_8  and  O_24
REMARK    4  A    between atoms: C_10  and  O_26
REMARK    5  A    between atoms: C_15  and  O_18
REMARK    6  A    between atoms: C_17  and  O_20
REMARK                            x       y       z     vdW  Elec       q    Type
REMARK                         _______ _______ _______ _____ _____    ______ ____
ROOT
ATOM      1  O   UNL     1      59.178  34.172  72.930  0.00  0.00    +0.000 OA
ATOM      2  O   UNL     1      61.760  32.708  75.707  0.00  0.00    +0.000 OA
ATOM      3  C   UNL     1      60.656  32.401  73.678  0.00  0.00    +0.000 A 
ATOM      4  C   UNL     1      59.763  32.947  72.762  0.00  0.00    +0.000 A 
ATOM      5  C   UNL     1      59.497  34.918  74.056  0.00  0.00    +0.000 A 
ATOM      6  C   UNL     1      60.335  34.509  75.032  0.00  0.00    +0.000 A 
ATOM      7  C   UNL     1      60.982  33.175  74.879  0.00  0.00    +0.000 A 
ATOM      8  C   UNL     1      61.217  31.139  73.441  0.00  0.00    +0.000 A 
ATOM      9  C   UNL     1      59.426  32.241  71.609  0.00  0.00    +0.000 A 
ATOM     10  C   UNL     1      59.989  30.989  71.382  0.00  0.00    +0.000 A 
ATOM     11  C   UNL     1      60.882  30.431  72.290  0.00  0.00    +0.000 A 
ENDROOT
BRANCH   5  12
ATOM     12  C   UNL     1      58.803  36.214  74.072  0.00  0.00    +0.000 A 
ATOM     13  C   UNL     1      57.418  36.287  74.249  0.00  0.00    +0.000 A 
ATOM     14  C   UNL     1      59.545  37.398  73.972  0.00  0.00    +0.000 A 
ATOM     15  C   UNL     1      56.793  37.527  74.298  0.00  0.00    +0.000 A 
ATOM     16  C   UNL     1      58.917  38.642  74.038  0.00  0.00    +0.000 A 
ATOM     17  C   UNL     1      57.542  38.696  74.218  0.00  0.00    +0.000 A 
BRANCH  15  18
ATOM     18  O   UNL     1      55.433  37.573  74.388  0.00  0.00    +0.000 OA
ATOM     19  H   UNL     1      55.205  37.467  75.330  0.00  0.00    +0.000 HD
ENDBRANCH  15  18
BRANCH  17  20
ATOM     20  O   UNL     1      56.937  39.913  74.340  0.00  0.00    +0.000 OA
ATOM     21  H   UNL     1      57.626  40.583  74.173  0.00  0.00    +0.000 HD
ENDBRANCH  17  20
ENDBRANCH   5  12
BRANCH   6  22
ATOM     22  O   UNL     1      60.635  35.220  76.179  0.00  0.00    +0.000 OA
ATOM     23  H   UNL     1      61.271  35.925  75.980  0.00  0.00    +0.000 HD
ENDBRANCH   6  22
BRANCH   8  24
ATOM     24  O   UNL     1      62.099  30.540  74.299  0.00  0.00    +0.000 OA
ATOM     25  H   UNL     1      62.000  29.563  74.212  0.00  0.00    +0.000 HD
ENDBRANCH   8  24
BRANCH  10  26
ATOM     26  O   UNL     1      59.642  30.319  70.246  0.00  0.00    +0.000 OA
ATOM     27  H   UNL     1      59.169  29.508  70.505  0.00  0.00    +0.000 HD
ENDBRANCH  10  26
TORSDOF 6
ENDMDL
MODEL 9
REMARK VINA RESULT:      -6.1      3.797      6.113
REMARK  Name = Quercetin.pdbqt.pdb
REMARK  6 active torsions:
REMARK  status: ('A' for Active; 'I' for Inactive)
REMARK    1  A    between atoms: C_5  and  C_12
REMARK    2  A    between atoms: C_6  and  O_22
REMARK    3  A    between atoms: C_8  and  O_24
REMARK    4  A    between atoms: C_10  and  O_26
REMARK    5  A    between atoms: C_15  and  O_18
REMARK    6  A    between atoms: C_17  and  O_20
REMARK                            x       y       z     vdW  Elec       q    Type
REMARK                         _______ _______ _______ _____ _____    ______ ____
ROOT
ATOM      1  O   UNL     1      58.859  35.518  74.710  0.00  0.00    +0.000 OA
ATOM      2  O   UNL     1      61.899  34.806  77.313  0.00  0.00    +0.000 OA
ATOM      3  C   UNL     1      60.970  34.434  75.208  0.00  0.00    +0.000 A 
ATOM      4  C   UNL     1      59.904  34.707  74.359  0.00  0.00    +0.000 A 
ATOM      5  C   UNL     1      58.864  36.112  75.964  0.00  0.00    +0.000 A 
ATOM      6  C   UNL     1      59.825  35.927  76.894  0.00  0.00    +0.000 A 
ATOM      7  C   UNL     1      60.972  35.041  76.542  0.00  0.00    +0.000 A 
ATOM      8  C   UNL     1      62.006  33.592  74.782  0.00  0.00    +0.000 A 
ATOM      9  C   UNL     1      59.863  34.146  73.084  0.00  0.00    +0.000 A 
ATOM     10  C   UNL     1      60.898  33.313  72.669  0.00  0.00    +0.000 A 
ATOM     11  C   UNL     1      61.970  33.030  73.509  0.00  0.00    +0.000 A 
ENDROOT
BRANCH   5  12
ATOM     12  C   UNL     1      57.687  36.968  76.173  0.00  0.00    +0.000 A 
ATOM     13  C   UNL     1      56.395  36.479  75.957  0.00  0.00    +0.000 A 
ATOM     14  C   UNL     1      57.856  38.273  76.654  0.00  0.00    +0.000 A 
ATOM     15  C   UNL     1      55.299  37.298  76.199  0.00  0.00    +0.000 A 
ATOM     16  C   UNL     1      56.753  39.086  76.912  0.00  0.00    +0.000 A 
ATOM     17  C   UNL     1      55.477  38.584  76.697  0.00  0.00    +0.000 A 
BRANCH  15  18
ATOM     18  O   UNL     1      54.052  36.829  75.904  0.00  0.00    +0.000 OA
ATOM     19  H   UNL     1      53.453  37.600  75.889  0.00  0.00    +0.000 HD
ENDBRANCH  15  18
BRANCH  17  20
ATOM     20  O   UNL     1      54.399  39.361  77.003  0.00  0.00    +0.000 OA
ATOM     21  H   UNL     1      54.684  40.288  76.894  0.00  0.00    +0.000 HD
ENDBRANCH  17  20
ENDBRANCH   5  12
BRANCH   6  22
ATOM     22  O   UNL     1      59.828  36.477  78.162  0.00  0.00    +0.000 OA
ATOM     23  H   UNL     1      60.735  36.527  78.503  0.00  0.00    +0.000 HD
ENDBRANCH   6  22
BRANCH   8  24
ATOM     24  O   UNL     1      63.084  33.278  75.564  0.00  0.00    +0.000 OA
ATOM     25  H   UNL     1      63.134  33.933  76.299  0.00  0.00    +0.000 HD
ENDBRANCH   8  24
BRANCH  10  26
ATOM     26  O   UNL     1      60.835  32.776  71.417  0.00  0.00    +0.000 OA
ATOM     27  H   UNL     1      61.220  31.882  71.451  0.00  0.00    +0.000 HD
ENDBRANCH  10  26
TORSDOF 6
ENDMDL
