MODEL 1
REMARK VINA RESULT:      -5.9      0.000      0.000
REMARK  Name = 
REMARK  14 active torsions:
REMARK  status: ('A' for Active; 'I' for Inactive)
REMARK    1  A    between atoms: O_1  and  C_24
REMARK    2  A    between atoms: O_1  and  C_36
REMARK    3  A    between atoms: O_4  and  C_30
REMARK    4  A    between atoms: O_4  and  C_37
REMARK    5  A    between atoms: O_7  and  C_33
REMARK    6  A    between atoms: O_7  and  C_38
REMARK    7  A    between atoms: N_10  and  C_23
REMARK    8  A    between atoms: C_15  and  C_26
REMARK    9  A    between atoms: C_16  and  C_24
REMARK   10  A    between atoms: C_31  and  C_34
REMARK   11  A    between atoms: C_32  and  C_35
REMARK   12  A    between atoms: C_36  and  C_39
REMARK   13  A    between atoms: C_39  and  C_40
REMARK   14  A    between atoms: C_41  and  C_42
REMARK                            x       y       z     vdW  Elec       q    Type
REMARK                         _______ _______ _______ _____ _____    ______ ____
ROOT
ATOM      1  O   UNL     1      17.015  19.467  92.017  0.00  0.00    +0.000 OA
ATOM      2  O   UNL     1      19.685  21.057  87.703  0.00  0.00    +0.000 OA
ATOM      3  O   UNL     1      19.306  19.614  96.076  0.00  0.00    +0.000 OA
ATOM      4  O   UNL     1      24.400  18.874  94.745  0.00  0.00    +0.000 OA
ATOM      5  N   UNL     1      21.495  18.358  91.672  0.00  0.00    +0.000 NA
ATOM      6  N   UNL     1      19.545  16.718  90.211  0.00  0.00    +0.000 NA
ATOM      7  C   UNL     1      20.216  17.908  92.280  0.00  0.00    +0.000 C 
ATOM      8  C   UNL     1      19.073  17.739  91.189  0.00  0.00    +0.000 C 
ATOM      9  C   UNL     1      20.738  17.248  89.504  0.00  0.00    +0.000 C 
ATOM     10  C   UNL     1      21.908  17.475  90.534  0.00  0.00    +0.000 C 
ATOM     11  C   UNL     1      22.602  18.666  92.619  0.00  0.00    +0.000 C 
ATOM     12  C   UNL     1      19.777  18.865  93.409  0.00  0.00    +0.000 C 
ATOM     13  C   UNL     1      20.425  18.556  88.725  0.00  0.00    +0.000 C 
ATOM     14  C   UNL     1      18.759  19.062  90.503  0.00  0.00    +0.000 C 
ATOM     15  C   UNL     1      19.398  19.440  89.386  0.00  0.00    +0.000 C 
ATOM     16  C   UNL     1      22.161  18.984  94.039  0.00  0.00    +0.000 C 
ATOM     17  C   UNL     1      20.877  19.099  94.399  0.00  0.00    +0.000 C 
ATOM     18  C   UNL     1      18.494  16.230  89.323  0.00  0.00    +0.000 C 
ATOM     19  C   UNL     1      17.677  19.894  91.076  0.00  0.00    +0.000 C 
ATOM     20  C   UNL     1      19.099  20.729  88.729  0.00  0.00    +0.000 C 
ATOM     21  C   UNL     1      20.485  19.461  95.779  0.00  0.00    +0.000 C 
ATOM     22  C   UNL     1      23.237  19.113  95.056  0.00  0.00    +0.000 C 
ATOM     23  C   UNL     1      17.432  21.244  90.471  0.00  0.00    +0.000 C 
ATOM     24  C   UNL     1      18.086  21.616  89.358  0.00  0.00    +0.000 C 
ATOM     25  C   UNL     1      21.561  19.666  96.780  0.00  0.00    +0.000 C 
ATOM     26  C   UNL     1      22.854  19.526  96.446  0.00  0.00    +0.000 C 
ATOM     27  C   UNL     1      17.867  22.923  88.653  0.00  0.00    +0.000 C 
ATOM     28  C   UNL     1      21.084  20.037  98.155  0.00  0.00    +0.000 C 
ENDROOT
BRANCH  23  29
ATOM     29  O   UNL     1      16.483  22.105  91.010  0.00  0.00    +0.000 OA
ATOM     30  C   UNL     1      15.132  21.839  90.638  0.00  0.00    +0.000 C 
ENDBRANCH  23  29
BRANCH  26  31
ATOM     31  O   UNL     1      23.826  19.706  97.425  0.00  0.00    +0.000 OA
ATOM     32  C   UNL     1      24.282  18.507  98.049  0.00  0.00    +0.000 C 
ENDBRANCH  26  31
BRANCH  10  34
ATOM     33  N   UNL     1      22.825  15.102  91.284  0.00  0.00    +0.000 NA
ATOM     34  C   UNL     1      22.443  16.144  90.946  0.00  0.00    +0.000 C 
ENDBRANCH  10  34
BRANCH  11  35
ATOM     35  C   UNL     1      23.400  19.867  92.029  0.00  0.00    +0.000 C 
BRANCH  35  36
ATOM     36  O   UNL     1      22.479  20.791  91.411  0.00  0.00    +0.000 OA
BRANCH  36  38
ATOM     37  O   UNL     1      23.118  22.428  92.880  0.00  0.00    +0.000 OA
ATOM     38  C   UNL     1      22.344  21.975  92.053  0.00  0.00    +0.000 C 
BRANCH  38  39
ATOM     39  C   UNL     1      21.180  22.734  91.514  0.00  0.00    +0.000 C 
ATOM     40  C   UNL     1      21.416  23.285  90.136  0.00  0.00    +0.000 C 
ATOM     41  C   UNL     1      20.022  22.941  92.173  0.00  0.00    +0.000 C 
ATOM     42  C   UNL     1      19.669  22.552  93.574  0.00  0.00    +0.000 C 
ENDBRANCH  38  39
ENDBRANCH  36  38
ENDBRANCH  35  36
ENDBRANCH  11  35
TORSDOF 7
ENDMDL
MODEL 2
REMARK VINA RESULT:      -5.8     20.334     23.456
REMARK  Name = 
REMARK  14 active torsions:
REMARK  status: ('A' for Active; 'I' for Inactive)
REMARK    1  A    between atoms: O_1  and  C_24
REMARK    2  A    between atoms: O_1  and  C_36
REMARK    3  A    between atoms: O_4  and  C_30
REMARK    4  A    between atoms: O_4  and  C_37
REMARK    5  A    between atoms: O_7  and  C_33
REMARK    6  A    between atoms: O_7  and  C_38
REMARK    7  A    between atoms: N_10  and  C_23
REMARK    8  A    between atoms: C_15  and  C_26
REMARK    9  A    between atoms: C_16  and  C_24
REMARK   10  A    between atoms: C_31  and  C_34
REMARK   11  A    between atoms: C_32  and  C_35
REMARK   12  A    between atoms: C_36  and  C_39
REMARK   13  A    between atoms: C_39  and  C_40
REMARK   14  A    between atoms: C_41  and  C_42
REMARK                            x       y       z     vdW  Elec       q    Type
REMARK                         _______ _______ _______ _____ _____    ______ ____
ROOT
ATOM      1  O   UNL     1      43.422  26.405  82.613  0.00  0.00    +0.000 OA
ATOM      2  O   UNL     1      42.048  24.981  87.548  0.00  0.00    +0.000 OA
ATOM      3  O   UNL     1      40.549  25.108  79.177  0.00  0.00    +0.000 OA
ATOM      4  O   UNL     1      38.324  20.613  80.942  0.00  0.00    +0.000 OA
ATOM      5  N   UNL     1      41.519  22.235  83.248  0.00  0.00    +0.000 NA
ATOM      6  N   UNL     1      44.380  22.555  83.830  0.00  0.00    +0.000 NA
ATOM      7  C   UNL     1      42.437  22.984  82.351  0.00  0.00    +0.000 C 
ATOM      8  C   UNL     1      43.629  23.654  83.158  0.00  0.00    +0.000 C 
ATOM      9  C   UNL     1      43.490  21.914  84.832  0.00  0.00    +0.000 C 
ATOM     10  C   UNL     1      42.259  21.254  84.105  0.00  0.00    +0.000 C 
ATOM     11  C   UNL     1      40.296  21.668  82.614  0.00  0.00    +0.000 C 
ATOM     12  C   UNL     1      41.662  24.030  81.522  0.00  0.00    +0.000 C 
ATOM     13  C   UNL     1      43.018  22.915  85.923  0.00  0.00    +0.000 C 
ATOM     14  C   UNL     1      43.116  24.674  84.165  0.00  0.00    +0.000 C 
ATOM     15  C   UNL     1      42.817  24.324  85.425  0.00  0.00    +0.000 C 
ATOM     16  C   UNL     1      39.880  22.335  81.313  0.00  0.00    +0.000 C 
ATOM     17  C   UNL     1      40.483  23.426  80.823  0.00  0.00    +0.000 C 
ATOM     18  C   UNL     1      45.675  22.970  84.362  0.00  0.00    +0.000 C 
ATOM     19  C   UNL     1      43.016  26.084  83.726  0.00  0.00    +0.000 C 
ATOM     20  C   UNL     1      42.309  25.314  86.397  0.00  0.00    +0.000 C 
ATOM     21  C   UNL     1      40.018  24.080  79.580  0.00  0.00    +0.000 C 
ATOM     22  C   UNL     1      38.780  21.684  80.554  0.00  0.00    +0.000 C 
ATOM     23  C   UNL     1      42.414  27.076  84.676  0.00  0.00    +0.000 C 
ATOM     24  C   UNL     1      42.107  26.711  85.932  0.00  0.00    +0.000 C 
ATOM     25  C   UNL     1      38.870  23.476  78.860  0.00  0.00    +0.000 C 
ATOM     26  C   UNL     1      38.270  22.365  79.319  0.00  0.00    +0.000 C 
ATOM     27  C   UNL     1      41.552  27.647  86.966  0.00  0.00    +0.000 C 
ATOM     28  C   UNL     1      38.453  24.201  77.613  0.00  0.00    +0.000 C 
ENDROOT
BRANCH  23  29
ATOM     29  O   UNL     1      42.221  28.400  84.297  0.00  0.00    +0.000 OA
ATOM     30  C   UNL     1      43.360  29.050  83.739  0.00  0.00    +0.000 C 
ENDBRANCH  23  29
BRANCH  26  31
ATOM     31  O   UNL     1      37.213  21.823  78.596  0.00  0.00    +0.000 OA
ATOM     32  C   UNL     1      35.918  22.090  79.130  0.00  0.00    +0.000 C 
ENDBRANCH  26  31
BRANCH  10  34
ATOM     33  N   UNL     1      43.068  19.091  82.799  0.00  0.00    +0.000 NA
ATOM     34  C   UNL     1      42.730  20.035  83.384  0.00  0.00    +0.000 C 
ENDBRANCH  10  34
BRANCH  11  35
ATOM     35  C   UNL     1      39.141  21.766  83.655  0.00  0.00    +0.000 C 
BRANCH  35  36
ATOM     36  O   UNL     1      38.530  23.070  83.562  0.00  0.00    +0.000 OA
BRANCH  36  38
ATOM     37  O   UNL     1      38.818  24.324  85.457  0.00  0.00    +0.000 OA
ATOM     38  C   UNL     1      38.141  23.602  84.744  0.00  0.00    +0.000 C 
BRANCH  38  39
ATOM     39  C   UNL     1      36.705  23.299  85.009  0.00  0.00    +0.000 C 
ATOM     40  C   UNL     1      35.768  23.975  84.048  0.00  0.00    +0.000 C 
ATOM     41  C   UNL     1      36.254  22.515  86.009  0.00  0.00    +0.000 C 
ATOM     42  C   UNL     1      37.039  21.857  87.099  0.00  0.00    +0.000 C 
ENDBRANCH  38  39
ENDBRANCH  36  38
ENDBRANCH  35  36
ENDBRANCH  11  35
TORSDOF 7
ENDMDL
MODEL 3
REMARK VINA RESULT:      -5.4      2.839      6.408
REMARK  Name = 
REMARK  14 active torsions:
REMARK  status: ('A' for Active; 'I' for Inactive)
REMARK    1  A    between atoms: O_1  and  C_24
REMARK    2  A    between atoms: O_1  and  C_36
REMARK    3  A    between atoms: O_4  and  C_30
REMARK    4  A    between atoms: O_4  and  C_37
REMARK    5  A    between atoms: O_7  and  C_33
REMARK    6  A    between atoms: O_7  and  C_38
REMARK    7  A    between atoms: N_10  and  C_23
REMARK    8  A    between atoms: C_15  and  C_26
REMARK    9  A    between atoms: C_16  and  C_24
REMARK   10  A    between atoms: C_31  and  C_34
REMARK   11  A    between atoms: C_32  and  C_35
REMARK   12  A    between atoms: C_36  and  C_39
REMARK   13  A    between atoms: C_39  and  C_40
REMARK   14  A    between atoms: C_41  and  C_42
REMARK                            x       y       z     vdW  Elec       q    Type
REMARK                         _______ _______ _______ _____ _____    ______ ____
ROOT
ATOM      1  O   UNL     1      20.187  22.986  89.448  0.00  0.00    +0.000 OA
ATOM      2  O   UNL     1      16.599  20.339  92.344  0.00  0.00    +0.000 OA
ATOM      3  O   UNL     1      23.079  20.425  86.836  0.00  0.00    +0.000 OA
ATOM      4  O   UNL     1      23.539  15.838  89.486  0.00  0.00    +0.000 OA
ATOM      5  N   UNL     1      21.470  19.010  91.439  0.00  0.00    +0.000 NA
ATOM      6  N   UNL     1      21.434  21.438  93.090  0.00  0.00    +0.000 NA
ATOM      7  C   UNL     1      22.005  20.310  90.957  0.00  0.00    +0.000 C 
ATOM      8  C   UNL     1      21.243  21.539  91.615  0.00  0.00    +0.000 C 
ATOM      9  C   UNL     1      20.762  20.206  93.576  0.00  0.00    +0.000 C 
ATOM     10  C   UNL     1      21.445  18.940  92.935  0.00  0.00    +0.000 C 
ATOM     11  C   UNL     1      22.029  17.789  90.794  0.00  0.00    +0.000 C 
ATOM     12  C   UNL     1      21.965  20.385  89.416  0.00  0.00    +0.000 C 
ATOM     13  C   UNL     1      19.236  20.218  93.286  0.00  0.00    +0.000 C 
ATOM     14  C   UNL     1      19.766  21.540  91.246  0.00  0.00    +0.000 C 
ATOM     15  C   UNL     1      18.854  20.915  92.004  0.00  0.00    +0.000 C 
ATOM     16  C   UNL     1      22.654  18.014  89.426  0.00  0.00    +0.000 C 
ATOM     17  C   UNL     1      22.606  19.187  88.784  0.00  0.00    +0.000 C 
ATOM     18  C   UNL     1      21.056  22.649  93.813  0.00  0.00    +0.000 C 
ATOM     19  C   UNL     1      19.357  22.311  90.049  0.00  0.00    +0.000 C 
ATOM     20  C   UNL     1      17.422  20.908  91.636  0.00  0.00    +0.000 C 
ATOM     21  C   UNL     1      23.179  19.357  87.430  0.00  0.00    +0.000 C 
ATOM     22  C   UNL     1      23.386  16.865  88.833  0.00  0.00    +0.000 C 
ATOM     23  C   UNL     1      17.923  22.232  89.618  0.00  0.00    +0.000 C 
ATOM     24  C   UNL     1      17.021  21.593  90.380  0.00  0.00    +0.000 C 
ATOM     25  C   UNL     1      23.845  18.189  86.802  0.00  0.00    +0.000 C 
ATOM     26  C   UNL     1      23.929  17.012  87.443  0.00  0.00    +0.000 C 
ATOM     27  C   UNL     1      15.557  21.509  90.057  0.00  0.00    +0.000 C 
ATOM     28  C   UNL     1      24.395  18.438  85.427  0.00  0.00    +0.000 C 
ENDROOT
BRANCH  23  29
ATOM     29  O   UNL     1      17.491  22.870  88.460  0.00  0.00    +0.000 OA
ATOM     30  C   UNL     1      17.850  22.232  87.238  0.00  0.00    +0.000 C 
ENDBRANCH  23  29
BRANCH  26  31
ATOM     31  O   UNL     1      24.583  15.953  86.822  0.00  0.00    +0.000 OA
ATOM     32  C   UNL     1      25.953  15.793  87.187  0.00  0.00    +0.000 C 
ENDBRANCH  26  31
BRANCH  10  34
ATOM     33  N   UNL     1      23.814  18.569  94.070  0.00  0.00    +0.000 NA
ATOM     34  C   UNL     1      22.783  18.751  93.567  0.00  0.00    +0.000 C 
ENDBRANCH  10  34
BRANCH  11  35
ATOM     35  C   UNL     1      20.875  16.747  90.687  0.00  0.00    +0.000 C 
BRANCH  35  36
ATOM     36  O   UNL     1      19.707  17.390  90.134  0.00  0.00    +0.000 OA
BRANCH  36  38
ATOM     37  O   UNL     1      18.770  15.619  89.024  0.00  0.00    +0.000 OA
ATOM     38  C   UNL     1      19.174  16.770  89.056  0.00  0.00    +0.000 C 
BRANCH  38  39
ATOM     39  C   UNL     1      19.015  17.729  87.925  0.00  0.00    +0.000 C 
ATOM     40  C   UNL     1      18.029  18.827  88.211  0.00  0.00    +0.000 C 
ATOM     41  C   UNL     1      19.660  17.643  86.745  0.00  0.00    +0.000 C 
ATOM     42  C   UNL     1      20.585  16.568  86.268  0.00  0.00    +0.000 C 
ENDBRANCH  38  39
ENDBRANCH  36  38
ENDBRANCH  35  36
ENDBRANCH  11  35
TORSDOF 7
ENDMDL
MODEL 4
REMARK VINA RESULT:      -4.9     22.779     25.534
REMARK  Name = 
REMARK  14 active torsions:
REMARK  status: ('A' for Active; 'I' for Inactive)
REMARK    1  A    between atoms: O_1  and  C_24
REMARK    2  A    between atoms: O_1  and  C_36
REMARK    3  A    between atoms: O_4  and  C_30
REMARK    4  A    between atoms: O_4  and  C_37
REMARK    5  A    between atoms: O_7  and  C_33
REMARK    6  A    between atoms: O_7  and  C_38
REMARK    7  A    between atoms: N_10  and  C_23
REMARK    8  A    between atoms: C_15  and  C_26
REMARK    9  A    between atoms: C_16  and  C_24
REMARK   10  A    between atoms: C_31  and  C_34
REMARK   11  A    between atoms: C_32  and  C_35
REMARK   12  A    between atoms: C_36  and  C_39
REMARK   13  A    between atoms: C_39  and  C_40
REMARK   14  A    between atoms: C_41  and  C_42
REMARK                            x       y       z     vdW  Elec       q    Type
REMARK                         _______ _______ _______ _____ _____    ______ ____
ROOT
ATOM      1  O   UNL     1      43.849  21.275  83.378  0.00  0.00    +0.000 OA
ATOM      2  O   UNL     1      39.879  22.674  86.627  0.00  0.00    +0.000 OA
ATOM      3  O   UNL     1      48.103  22.847  84.463  0.00  0.00    +0.000 OA
ATOM      4  O   UNL     1      47.209  27.443  86.983  0.00  0.00    +0.000 OA
ATOM      5  N   UNL     1      43.861  25.551  85.149  0.00  0.00    +0.000 NA
ATOM      6  N   UNL     1      42.150  25.020  82.821  0.00  0.00    +0.000 NA
ATOM      7  C   UNL     1      44.327  24.762  83.979  0.00  0.00    +0.000 C 
ATOM      8  C   UNL     1      43.130  23.992  83.275  0.00  0.00    +0.000 C 
ATOM      9  C   UNL     1      41.582  25.698  84.014  0.00  0.00    +0.000 C 
ATOM     10  C   UNL     1      42.724  26.457  84.788  0.00  0.00    +0.000 C 
ATOM     11  C   UNL     1      44.919  26.216  85.959  0.00  0.00    +0.000 C 
ATOM     12  C   UNL     1      45.456  23.791  84.386  0.00  0.00    +0.000 C 
ATOM     13  C   UNL     1      40.842  24.706  84.955  0.00  0.00    +0.000 C 
ATOM     14  C   UNL     1      42.483  22.986  84.217  0.00  0.00    +0.000 C 
ATOM     15  C   UNL     1      41.448  23.326  85.001  0.00  0.00    +0.000 C 
ATOM     16  C   UNL     1      46.307  25.609  85.822  0.00  0.00    +0.000 C 
ATOM     17  C   UNL     1      46.553  24.491  85.128  0.00  0.00    +0.000 C 
ATOM     18  C   UNL     1      41.147  24.504  81.894  0.00  0.00    +0.000 C 
ATOM     19  C   UNL     1      42.994  21.597  84.197  0.00  0.00    +0.000 C 
ATOM     20  C   UNL     1      40.830  22.351  85.923  0.00  0.00    +0.000 C 
ATOM     21  C   UNL     1      47.908  23.900  85.059  0.00  0.00    +0.000 C 
ATOM     22  C   UNL     1      47.423  26.352  86.464  0.00  0.00    +0.000 C 
ATOM     23  C   UNL     1      42.435  20.627  85.196  0.00  0.00    +0.000 C 
ATOM     24  C   UNL     1      41.406  20.983  85.983  0.00  0.00    +0.000 C 
ATOM     25  C   UNL     1      49.012  24.599  85.763  0.00  0.00    +0.000 C 
ATOM     26  C   UNL     1      48.790  25.737  86.441  0.00  0.00    +0.000 C 
ATOM     27  C   UNL     1      40.748  20.064  86.971  0.00  0.00    +0.000 C 
ATOM     28  C   UNL     1      50.353  23.934  85.653  0.00  0.00    +0.000 C 
ENDROOT
BRANCH  23  29
ATOM     29  O   UNL     1      42.926  19.329  85.280  0.00  0.00    +0.000 OA
ATOM     30  C   UNL     1      44.120  19.173  86.042  0.00  0.00    +0.000 C 
ENDBRANCH  23  29
BRANCH  26  31
ATOM     31  O   UNL     1      49.861  26.368  87.065  0.00  0.00    +0.000 OA
ATOM     32  C   UNL     1      49.889  26.245  88.485  0.00  0.00    +0.000 C 
ENDBRANCH  26  31
BRANCH  10  34
ATOM     33  N   UNL     1      43.450  28.569  83.356  0.00  0.00    +0.000 NA
ATOM     34  C   UNL     1      43.118  27.657  83.993  0.00  0.00    +0.000 C 
ENDBRANCH  10  34
BRANCH  11  35
ATOM     35  C   UNL     1      44.464  26.172  87.448  0.00  0.00    +0.000 C 
BRANCH  35  36
ATOM     36  O   UNL     1      44.016  27.486  87.845  0.00  0.00    +0.000 OA
BRANCH  36  38
ATOM     37  O   UNL     1      41.853  26.853  88.252  0.00  0.00    +0.000 OA
ATOM     38  C   UNL     1      42.847  27.506  88.525  0.00  0.00    +0.000 C 
BRANCH  38  39
ATOM     39  C   UNL     1      42.969  28.341  89.754  0.00  0.00    +0.000 C 
ATOM     40  C   UNL     1      43.316  29.775  89.466  0.00  0.00    +0.000 C 
ATOM     41  C   UNL     1      42.806  27.889  91.014  0.00  0.00    +0.000 C 
ATOM     42  C   UNL     1      42.562  26.487  91.472  0.00  0.00    +0.000 C 
ENDBRANCH  38  39
ENDBRANCH  36  38
ENDBRANCH  35  36
ENDBRANCH  11  35
TORSDOF 7
ENDMDL
MODEL 5
REMARK VINA RESULT:      -4.8     23.648     26.132
REMARK  Name = 
REMARK  14 active torsions:
REMARK  status: ('A' for Active; 'I' for Inactive)
REMARK    1  A    between atoms: O_1  and  C_24
REMARK    2  A    between atoms: O_1  and  C_36
REMARK    3  A    between atoms: O_4  and  C_30
REMARK    4  A    between atoms: O_4  and  C_37
REMARK    5  A    between atoms: O_7  and  C_33
REMARK    6  A    between atoms: O_7  and  C_38
REMARK    7  A    between atoms: N_10  and  C_23
REMARK    8  A    between atoms: C_15  and  C_26
REMARK    9  A    between atoms: C_16  and  C_24
REMARK   10  A    between atoms: C_31  and  C_34
REMARK   11  A    between atoms: C_32  and  C_35
REMARK   12  A    between atoms: C_36  and  C_39
REMARK   13  A    between atoms: C_39  and  C_40
REMARK   14  A    between atoms: C_41  and  C_42
REMARK                            x       y       z     vdW  Elec       q    Type
REMARK                         _______ _______ _______ _____ _____    ______ ____
ROOT
ATOM      1  O   UNL     1      43.714  21.824  86.314  0.00  0.00    +0.000 OA
ATOM      2  O   UNL     1      43.496  25.734  82.718  0.00  0.00    +0.000 OA
ATOM      3  O   UNL     1      45.007  23.014  90.633  0.00  0.00    +0.000 OA
ATOM      4  O   UNL     1      48.205  27.207  89.946  0.00  0.00    +0.000 OA
ATOM      5  N   UNL     1      46.963  25.116  86.447  0.00  0.00    +0.000 NA
ATOM      6  N   UNL     1      47.268  22.947  84.491  0.00  0.00    +0.000 NA
ATOM      7  C   UNL     1      46.719  23.692  86.791  0.00  0.00    +0.000 C 
ATOM      8  C   UNL     1      46.208  22.863  85.536  0.00  0.00    +0.000 C 
ATOM      9  C   UNL     1      47.394  24.360  84.050  0.00  0.00    +0.000 C 
ATOM     10  C   UNL     1      47.866  25.253  85.259  0.00  0.00    +0.000 C 
ATOM     11  C   UNL     1      47.328  26.014  87.578  0.00  0.00    +0.000 C 
ATOM     12  C   UNL     1      45.739  23.573  87.978  0.00  0.00    +0.000 C 
ATOM     13  C   UNL     1      46.072  24.905  83.443  0.00  0.00    +0.000 C 
ATOM     14  C   UNL     1      44.878  23.396  85.021  0.00  0.00    +0.000 C 
ATOM     15  C   UNL     1      44.823  24.347  84.077  0.00  0.00    +0.000 C 
ATOM     16  C   UNL     1      46.910  25.515  88.953  0.00  0.00    +0.000 C 
ATOM     17  C   UNL     1      46.166  24.418  89.139  0.00  0.00    +0.000 C 
ATOM     18  C   UNL     1      47.089  21.996  83.398  0.00  0.00    +0.000 C 
ATOM     19  C   UNL     1      43.639  22.784  85.553  0.00  0.00    +0.000 C 
ATOM     20  C   UNL     1      43.530  24.870  83.587  0.00  0.00    +0.000 C 
ATOM     21  C   UNL     1      45.733  23.991  90.488  0.00  0.00    +0.000 C 
ATOM     22  C   UNL     1      47.415  26.284  90.120  0.00  0.00    +0.000 C 
ATOM     23  C   UNL     1      42.326  23.373  85.131  0.00  0.00    +0.000 C 
ATOM     24  C   UNL     1      42.284  24.333  84.194  0.00  0.00    +0.000 C 
ATOM     25  C   UNL     1      46.173  24.800  91.652  0.00  0.00    +0.000 C 
ATOM     26  C   UNL     1      46.944  25.888  91.488  0.00  0.00    +0.000 C 
ATOM     27  C   UNL     1      41.015  24.941  83.671  0.00  0.00    +0.000 C 
ATOM     28  C   UNL     1      45.688  24.308  92.984  0.00  0.00    +0.000 C 
ENDROOT
BRANCH  23  29
ATOM     29  O   UNL     1      41.130  22.894  85.654  0.00  0.00    +0.000 OA
ATOM     30  C   UNL     1      40.626  21.707  85.045  0.00  0.00    +0.000 C 
ENDBRANCH  23  29
BRANCH  26  31
ATOM     31  O   UNL     1      47.350  26.600  92.611  0.00  0.00    +0.000 OA
ATOM     32  C   UNL     1      46.602  27.785  92.877  0.00  0.00    +0.000 C 
ENDBRANCH  26  31
BRANCH  10  34
ATOM     33  N   UNL     1      50.416  24.694  85.730  0.00  0.00    +0.000 NA
ATOM     34  C   UNL     1      49.302  24.956  85.536  0.00  0.00    +0.000 C 
ENDBRANCH  10  34
BRANCH  11  35
ATOM     35  C   UNL     1      46.684  27.404  87.298  0.00  0.00    +0.000 C 
BRANCH  35  36
ATOM     36  O   UNL     1      45.276  27.229  87.035  0.00  0.00    +0.000 OA
BRANCH  36  38
ATOM     37  O   UNL     1      45.563  28.137  84.952  0.00  0.00    +0.000 OA
ATOM     38  C   UNL     1      44.848  27.748  85.861  0.00  0.00    +0.000 C 
BRANCH  38  39
ATOM     39  C   UNL     1      43.363  27.659  85.757  0.00  0.00    +0.000 C 
ATOM     40  C   UNL     1      42.745  26.785  86.813  0.00  0.00    +0.000 C 
ATOM     41  C   UNL     1      42.617  28.273  84.818  0.00  0.00    +0.000 C 
ATOM     42  C   UNL     1      43.079  29.085  83.650  0.00  0.00    +0.000 C 
ENDBRANCH  38  39
ENDBRANCH  36  38
ENDBRANCH  35  36
ENDBRANCH  11  35
TORSDOF 7
ENDMDL
MODEL 6
REMARK VINA RESULT:      -4.8      2.350      6.826
REMARK  Name = 
REMARK  14 active torsions:
REMARK  status: ('A' for Active; 'I' for Inactive)
REMARK    1  A    between atoms: O_1  and  C_24
REMARK    2  A    between atoms: O_1  and  C_36
REMARK    3  A    between atoms: O_4  and  C_30
REMARK    4  A    between atoms: O_4  and  C_37
REMARK    5  A    between atoms: O_7  and  C_33
REMARK    6  A    between atoms: O_7  and  C_38
REMARK    7  A    between atoms: N_10  and  C_23
REMARK    8  A    between atoms: C_15  and  C_26
REMARK    9  A    between atoms: C_16  and  C_24
REMARK   10  A    between atoms: C_31  and  C_34
REMARK   11  A    between atoms: C_32  and  C_35
REMARK   12  A    between atoms: C_36  and  C_39
REMARK   13  A    between atoms: C_39  and  C_40
REMARK   14  A    between atoms: C_41  and  C_42
REMARK                            x       y       z     vdW  Elec       q    Type
REMARK                         _______ _______ _______ _____ _____    ______ ____
ROOT
ATOM      1  O   UNL     1      22.651  22.443  91.665  0.00  0.00    +0.000 OA
ATOM      2  O   UNL     1      18.512  20.370  94.280  0.00  0.00    +0.000 OA
ATOM      3  O   UNL     1      22.962  21.468  87.115  0.00  0.00    +0.000 OA
ATOM      4  O   UNL     1      20.647  16.706  86.624  0.00  0.00    +0.000 OA
ATOM      5  N   UNL     1      21.289  18.155  90.579  0.00  0.00    +0.000 NA
ATOM      6  N   UNL     1      22.977  18.512  92.956  0.00  0.00    +0.000 NA
ATOM      7  C   UNL     1      22.480  19.044  90.586  0.00  0.00    +0.000 C 
ATOM      8  C   UNL     1      22.749  19.656  92.027  0.00  0.00    +0.000 C 
ATOM      9  C   UNL     1      21.726  17.719  93.053  0.00  0.00    +0.000 C 
ATOM     10  C   UNL     1      21.374  17.106  91.646  0.00  0.00    +0.000 C 
ATOM     11  C   UNL     1      20.872  17.623  89.252  0.00  0.00    +0.000 C 
ATOM     12  C   UNL     1      22.344  20.153  89.522  0.00  0.00    +0.000 C 
ATOM     13  C   UNL     1      20.540  18.559  93.603  0.00  0.00    +0.000 C 
ATOM     14  C   UNL     1      21.586  20.523  92.489  0.00  0.00    +0.000 C 
ATOM     15  C   UNL     1      20.566  20.010  93.192  0.00  0.00    +0.000 C 
ATOM     16  C   UNL     1      21.356  18.429  88.057  0.00  0.00    +0.000 C 
ATOM     17  C   UNL     1      22.005  19.594  88.173  0.00  0.00    +0.000 C 
ATOM     18  C   UNL     1      23.533  18.909  94.246  0.00  0.00    +0.000 C 
ATOM     19  C   UNL     1      21.648  21.972  92.190  0.00  0.00    +0.000 C 
ATOM     20  C   UNL     1      19.433  20.852  93.630  0.00  0.00    +0.000 C 
ATOM     21  C   UNL     1      22.416  20.377  86.988  0.00  0.00    +0.000 C 
ATOM     22  C   UNL     1      21.122  17.834  86.716  0.00  0.00    +0.000 C 
ATOM     23  C   UNL     1      20.460  22.815  92.548  0.00  0.00    +0.000 C 
ATOM     24  C   UNL     1      19.439  22.287  93.242  0.00  0.00    +0.000 C 
ATOM     25  C   UNL     1      22.116  19.822  85.645  0.00  0.00    +0.000 C 
ATOM     26  C   UNL     1      21.492  18.641  85.507  0.00  0.00    +0.000 C 
ATOM     27  C   UNL     1      18.237  23.066  93.691  0.00  0.00    +0.000 C 
ATOM     28  C   UNL     1      22.558  20.679  84.493  0.00  0.00    +0.000 C 
ENDROOT
BRANCH  23  29
ATOM     29  O   UNL     1      20.422  24.167  92.225  0.00  0.00    +0.000 OA
ATOM     30  C   UNL     1      20.193  24.463  90.850  0.00  0.00    +0.000 C 
ENDBRANCH  23  29
BRANCH  26  31
ATOM     31  O   UNL     1      21.253  18.151  84.227  0.00  0.00    +0.000 OA
ATOM     32  C   UNL     1      19.922  18.338  83.749  0.00  0.00    +0.000 C 
ENDBRANCH  26  31
BRANCH  10  34
ATOM     33  N   UNL     1      23.066  15.124  91.148  0.00  0.00    +0.000 NA
ATOM     34  C   UNL     1      22.338  16.004  91.353  0.00  0.00    +0.000 C 
ENDBRANCH  10  34
BRANCH  11  35
ATOM     35  C   UNL     1      19.316  17.548  89.247  0.00  0.00    +0.000 C 
BRANCH  35  36
ATOM     36  O   UNL     1      18.784  18.701  89.933  0.00  0.00    +0.000 OA
BRANCH  36  38
ATOM     37  O   UNL     1      17.286  19.075  88.241  0.00  0.00    +0.000 OA
ATOM     38  C   UNL     1      17.937  19.460  89.198  0.00  0.00    +0.000 C 
BRANCH  38  39
ATOM     39  C   UNL     1      17.794  20.818  89.797  0.00  0.00    +0.000 C 
ATOM     40  C   UNL     1      16.872  20.849  90.984  0.00  0.00    +0.000 C 
ATOM     41  C   UNL     1      18.401  21.931  89.340  0.00  0.00    +0.000 C 
ATOM     42  C   UNL     1      19.258  22.088  88.124  0.00  0.00    +0.000 C 
ENDBRANCH  38  39
ENDBRANCH  36  38
ENDBRANCH  35  36
ENDBRANCH  11  35
TORSDOF 7
ENDMDL
MODEL 7
REMARK VINA RESULT:      -4.8     27.968     31.373
REMARK  Name = 
REMARK  14 active torsions:
REMARK  status: ('A' for Active; 'I' for Inactive)
REMARK    1  A    between atoms: O_1  and  C_24
REMARK    2  A    between atoms: O_1  and  C_36
REMARK    3  A    between atoms: O_4  and  C_30
REMARK    4  A    between atoms: O_4  and  C_37
REMARK    5  A    between atoms: O_7  and  C_33
REMARK    6  A    between atoms: O_7  and  C_38
REMARK    7  A    between atoms: N_10  and  C_23
REMARK    8  A    between atoms: C_15  and  C_26
REMARK    9  A    between atoms: C_16  and  C_24
REMARK   10  A    between atoms: C_31  and  C_34
REMARK   11  A    between atoms: C_32  and  C_35
REMARK   12  A    between atoms: C_36  and  C_39
REMARK   13  A    between atoms: C_39  and  C_40
REMARK   14  A    between atoms: C_41  and  C_42
REMARK                            x       y       z     vdW  Elec       q    Type
REMARK                         _______ _______ _______ _____ _____    ______ ____
ROOT
ATOM      1  O   UNL     1      45.932  35.855  82.218  0.00  0.00    +0.000 OA
ATOM      2  O   UNL     1      47.848  40.175  84.652  0.00  0.00    +0.000 OA
ATOM      3  O   UNL     1      41.384  35.868  81.188  0.00  0.00    +0.000 OA
ATOM      4  O   UNL     1      39.190  38.932  84.939  0.00  0.00    +0.000 OA
ATOM      5  N   UNL     1      43.302  37.924  85.415  0.00  0.00    +0.000 NA
ATOM      6  N   UNL     1      45.429  36.116  86.329  0.00  0.00    +0.000 NA
ATOM      7  C   UNL     1      43.558  36.606  84.777  0.00  0.00    +0.000 C 
ATOM      8  C   UNL     1      45.088  36.192  84.879  0.00  0.00    +0.000 C 
ATOM      9  C   UNL     1      45.312  37.474  86.918  0.00  0.00    +0.000 C 
ATOM     10  C   UNL     1      43.820  37.969  86.820  0.00  0.00    +0.000 C 
ATOM     11  C   UNL     1      41.924  38.469  85.270  0.00  0.00    +0.000 C 
ATOM     12  C   UNL     1      43.073  36.602  83.312  0.00  0.00    +0.000 C 
ATOM     13  C   UNL     1      46.277  38.490  86.247  0.00  0.00    +0.000 C 
ATOM     14  C   UNL     1      45.984  37.183  84.150  0.00  0.00    +0.000 C 
ATOM     15  C   UNL     1      46.509  38.246  84.777  0.00  0.00    +0.000 C 
ATOM     16  C   UNL     1      41.131  37.905  84.101  0.00  0.00    +0.000 C 
ATOM     17  C   UNL     1      41.656  37.074  83.193  0.00  0.00    +0.000 C 
ATOM     18  C   UNL     1      46.704  35.457  86.597  0.00  0.00    +0.000 C 
ATOM     19  C   UNL     1      46.311  36.901  82.733  0.00  0.00    +0.000 C 
ATOM     20  C   UNL     1      47.369  39.213  84.063  0.00  0.00    +0.000 C 
ATOM     21  C   UNL     1      40.870  36.586  82.038  0.00  0.00    +0.000 C 
ATOM     22  C   UNL     1      39.694  38.280  84.030  0.00  0.00    +0.000 C 
ATOM     23  C   UNL     1      47.105  37.925  81.978  0.00  0.00    +0.000 C 
ATOM     24  C   UNL     1      47.615  38.992  82.615  0.00  0.00    +0.000 C 
ATOM     25  C   UNL     1      39.455  37.019  81.923  0.00  0.00    +0.000 C 
ATOM     26  C   UNL     1      38.902  37.829  82.840  0.00  0.00    +0.000 C 
ATOM     27  C   UNL     1      48.466  40.037  81.953  0.00  0.00    +0.000 C 
ATOM     28  C   UNL     1      38.727  36.488  80.722  0.00  0.00    +0.000 C 
ENDROOT
BRANCH  23  29
ATOM     29  O   UNL     1      47.380  37.757  80.625  0.00  0.00    +0.000 OA
ATOM     30  C   UNL     1      46.403  38.282  79.730  0.00  0.00    +0.000 C 
ENDBRANCH  23  29
BRANCH  26  31
ATOM     31  O   UNL     1      37.565  38.189  82.701  0.00  0.00    +0.000 OA
ATOM     32  C   UNL     1      36.644  37.378  83.427  0.00  0.00    +0.000 C 
ENDBRANCH  26  31
BRANCH  10  34
ATOM     33  N   UNL     1      42.385  36.582  88.568  0.00  0.00    +0.000 NA
ATOM     34  C   UNL     1      43.000  37.206  87.806  0.00  0.00    +0.000 C 
ENDBRANCH  10  34
BRANCH  11  35
ATOM     35  C   UNL     1      42.044  40.016  85.133  0.00  0.00    +0.000 C 
BRANCH  35  36
ATOM     36  O   UNL     1      43.140  40.329  84.248  0.00  0.00    +0.000 OA
BRANCH  36  38
ATOM     37  O   UNL     1      41.884  41.800  83.021  0.00  0.00    +0.000 OA
ATOM     38  C   UNL     1      42.789  40.987  83.118  0.00  0.00    +0.000 C 
BRANCH  38  39
ATOM     39  C   UNL     1      43.749  40.689  82.017  0.00  0.00    +0.000 C 
ATOM     40  C   UNL     1      43.273  39.604  81.092  0.00  0.00    +0.000 C 
ATOM     41  C   UNL     1      44.938  41.300  81.844  0.00  0.00    +0.000 C 
ATOM     42  C   UNL     1      45.596  42.316  82.722  0.00  0.00    +0.000 C 
ENDBRANCH  38  39
ENDBRANCH  36  38
ENDBRANCH  35  36
ENDBRANCH  11  35
TORSDOF 7
ENDMDL
MODEL 8
REMARK VINA RESULT:      -4.7     10.064     12.715
REMARK  Name = 
REMARK  14 active torsions:
REMARK  status: ('A' for Active; 'I' for Inactive)
REMARK    1  A    between atoms: O_1  and  C_24
REMARK    2  A    between atoms: O_1  and  C_36
REMARK    3  A    between atoms: O_4  and  C_30
REMARK    4  A    between atoms: O_4  and  C_37
REMARK    5  A    between atoms: O_7  and  C_33
REMARK    6  A    between atoms: O_7  and  C_38
REMARK    7  A    between atoms: N_10  and  C_23
REMARK    8  A    between atoms: C_15  and  C_26
REMARK    9  A    between atoms: C_16  and  C_24
REMARK   10  A    between atoms: C_31  and  C_34
REMARK   11  A    between atoms: C_32  and  C_35
REMARK   12  A    between atoms: C_36  and  C_39
REMARK   13  A    between atoms: C_39  and  C_40
REMARK   14  A    between atoms: C_41  and  C_42
REMARK                            x       y       z     vdW  Elec       q    Type
REMARK                         _______ _______ _______ _____ _____    ______ ____
ROOT
ATOM      1  O   UNL     1      21.616  11.661  86.337  0.00  0.00    +0.000 OA
ATOM      2  O   UNL     1      23.075   9.660  81.632  0.00  0.00    +0.000 OA
ATOM      3  O   UNL     1      24.718  11.351  89.804  0.00  0.00    +0.000 OA
ATOM      4  O   UNL     1      27.529   6.982  88.673  0.00  0.00    +0.000 OA
ATOM      5  N   UNL     1      24.086   7.748  86.284  0.00  0.00    +0.000 NA
ATOM      6  N   UNL     1      21.197   7.569  85.785  0.00  0.00    +0.000 NA
ATOM      7  C   UNL     1      23.089   8.498  87.091  0.00  0.00    +0.000 C 
ATOM      8  C   UNL     1      21.795   8.856  86.243  0.00  0.00    +0.000 C 
ATOM      9  C   UNL     1      22.148   6.903  84.859  0.00  0.00    +0.000 C 
ATOM     10  C   UNL     1      23.477   6.548  85.626  0.00  0.00    +0.000 C 
ATOM     11  C   UNL     1      25.391   7.467  86.944  0.00  0.00    +0.000 C 
ATOM     12  C   UNL     1      23.722   9.762  87.710  0.00  0.00    +0.000 C 
ATOM     13  C   UNL     1      22.448   7.770  83.604  0.00  0.00    +0.000 C 
ATOM     14  C   UNL     1      22.134   9.760  85.065  0.00  0.00    +0.000 C 
ATOM     15  C   UNL     1      22.454   9.256  83.864  0.00  0.00    +0.000 C 
ATOM     16  C   UNL     1      25.734   8.388  88.105  0.00  0.00    +0.000 C 
ATOM     17  C   UNL     1      24.991   9.449  88.442  0.00  0.00    +0.000 C 
ATOM     18  C   UNL     1      19.845   7.709  85.253  0.00  0.00    +0.000 C 
ATOM     19  C   UNL     1      22.039  11.223  85.272  0.00  0.00    +0.000 C 
ATOM     20  C   UNL     1      22.793  10.135  82.727  0.00  0.00    +0.000 C 
ATOM     21  C   UNL     1      25.383  10.354  89.545  0.00  0.00    +0.000 C 
ATOM     22  C   UNL     1      26.933   8.028  88.907  0.00  0.00    +0.000 C 
ATOM     23  C   UNL     1      22.472  12.121  84.151  0.00  0.00    +0.000 C 
ATOM     24  C   UNL     1      22.801  11.603  82.957  0.00  0.00    +0.000 C 
ATOM     25  C   UNL     1      26.622  10.040  90.300  0.00  0.00    +0.000 C 
ATOM     26  C   UNL     1      27.365   8.964  89.995  0.00  0.00    +0.000 C 
ATOM     27  C   UNL     1      23.193  12.427  81.764  0.00  0.00    +0.000 C 
ATOM     28  C   UNL     1      26.956  11.009  91.397  0.00  0.00    +0.000 C 
ENDROOT
BRANCH  23  29
ATOM     29  O   UNL     1      22.480  13.503  84.308  0.00  0.00    +0.000 OA
ATOM     30  C   UNL     1      21.211  14.141  84.188  0.00  0.00    +0.000 C 
ENDBRANCH  23  29
BRANCH  26  31
ATOM     31  O   UNL     1      28.505   8.699  90.747  0.00  0.00    +0.000 OA
ATOM     32  C   UNL     1      28.336   7.721  91.772  0.00  0.00    +0.000 C 
ENDBRANCH  26  31
BRANCH  10  34
ATOM     33  N   UNL     1      22.999   4.545  87.298  0.00  0.00    +0.000 NA
ATOM     34  C   UNL     1      23.202   5.409  86.549  0.00  0.00    +0.000 C 
ENDBRANCH  10  34
BRANCH  11  35
ATOM     35  C   UNL     1      26.497   7.555  85.851  0.00  0.00    +0.000 C 
BRANCH  35  36
ATOM     36  O   UNL     1      26.277   8.734  85.049  0.00  0.00    +0.000 OA
BRANCH  36  38
ATOM     37  O   UNL     1      28.344   9.410  84.329  0.00  0.00    +0.000 OA
ATOM     38  C   UNL     1      27.330   9.583  84.985  0.00  0.00    +0.000 C 
BRANCH  38  39
ATOM     39  C   UNL     1      27.034  10.843  85.725  0.00  0.00    +0.000 C 
ATOM     40  C   UNL     1      25.837  11.578  85.190  0.00  0.00    +0.000 C 
ATOM     41  C   UNL     1      27.753  11.316  86.762  0.00  0.00    +0.000 C 
ATOM     42  C   UNL     1      29.016  10.765  87.344  0.00  0.00    +0.000 C 
ENDBRANCH  38  39
ENDBRANCH  36  38
ENDBRANCH  35  36
ENDBRANCH  11  35
TORSDOF 7
ENDMDL
MODEL 9
REMARK VINA RESULT:      -4.7     28.952     32.376
REMARK  Name = 
REMARK  14 active torsions:
REMARK  status: ('A' for Active; 'I' for Inactive)
REMARK    1  A    between atoms: O_1  and  C_24
REMARK    2  A    between atoms: O_1  and  C_36
REMARK    3  A    between atoms: O_4  and  C_30
REMARK    4  A    between atoms: O_4  and  C_37
REMARK    5  A    between atoms: O_7  and  C_33
REMARK    6  A    between atoms: O_7  and  C_38
REMARK    7  A    between atoms: N_10  and  C_23
REMARK    8  A    between atoms: C_15  and  C_26
REMARK    9  A    between atoms: C_16  and  C_24
REMARK   10  A    between atoms: C_31  and  C_34
REMARK   11  A    between atoms: C_32  and  C_35
REMARK   12  A    between atoms: C_36  and  C_39
REMARK   13  A    between atoms: C_39  and  C_40
REMARK   14  A    between atoms: C_41  and  C_42
REMARK                            x       y       z     vdW  Elec       q    Type
REMARK                         _______ _______ _______ _____ _____    ______ ____
ROOT
ATOM      1  O   UNL     1      44.668  41.940  84.816  0.00  0.00    +0.000 OA
ATOM      2  O   UNL     1      48.520  38.409  85.796  0.00  0.00    +0.000 OA
ATOM      3  O   UNL     1      40.628  40.249  83.214  0.00  0.00    +0.000 OA
ATOM      4  O   UNL     1      42.000  35.860  80.544  0.00  0.00    +0.000 OA
ATOM      5  N   UNL     1      45.161  38.365  81.920  0.00  0.00    +0.000 NA
ATOM      6  N   UNL     1      46.958  40.665  81.599  0.00  0.00    +0.000 NA
ATOM      7  C   UNL     1      44.678  39.769  81.982  0.00  0.00    +0.000 C 
ATOM      8  C   UNL     1      45.799  40.751  82.533  0.00  0.00    +0.000 C 
ATOM      9  C   UNL     1      47.522  39.293  81.662  0.00  0.00    +0.000 C 
ATOM     10  C   UNL     1      46.449  38.254  81.162  0.00  0.00    +0.000 C 
ATOM     11  C   UNL     1      44.153  37.339  81.534  0.00  0.00    +0.000 C 
ATOM     12  C   UNL     1      43.385  39.868  82.818  0.00  0.00    +0.000 C 
ATOM     13  C   UNL     1      48.021  38.929  83.088  0.00  0.00    +0.000 C 
ATOM     14  C   UNL     1      46.204  40.392  83.955  0.00  0.00    +0.000 C 
ATOM     15  C   UNL     1      47.210  39.539  84.203  0.00  0.00    +0.000 C 
ATOM     16  C   UNL     1      42.705  37.747  81.756  0.00  0.00    +0.000 C 
ATOM     17  C   UNL     1      42.350  38.886  82.363  0.00  0.00    +0.000 C 
ATOM     18  C   UNL     1      47.944  41.724  81.792  0.00  0.00    +0.000 C 
ATOM     19  C   UNL     1      45.491  41.065  85.065  0.00  0.00    +0.000 C 
ATOM     20  C   UNL     1      47.593  39.184  85.585  0.00  0.00    +0.000 C 
ATOM     21  C   UNL     1      40.931  39.226  82.609  0.00  0.00    +0.000 C 
ATOM     22  C   UNL     1      41.666  36.832  81.214  0.00  0.00    +0.000 C 
ATOM     23  C   UNL     1      45.810  40.639  86.467  0.00  0.00    +0.000 C 
ATOM     24  C   UNL     1      46.812  39.776  86.701  0.00  0.00    +0.000 C 
ATOM     25  C   UNL     1      39.892  38.278  82.137  0.00  0.00    +0.000 C 
ATOM     26  C   UNL     1      40.227  37.144  81.501  0.00  0.00    +0.000 C 
ATOM     27  C   UNL     1      47.238  39.337  88.072  0.00  0.00    +0.000 C 
ATOM     28  C   UNL     1      38.479  38.691  82.431  0.00  0.00    +0.000 C 
ENDROOT
BRANCH  23  29
ATOM     29  O   UNL     1      45.122  41.177  87.549  0.00  0.00    +0.000 OA
ATOM     30  C   UNL     1      45.574  42.455  87.990  0.00  0.00    +0.000 C 
ENDBRANCH  23  29
BRANCH  26  31
ATOM     31  O   UNL     1      39.217  36.298  81.056  0.00  0.00    +0.000 OA
ATOM     32  C   UNL     1      38.873  36.441  79.679  0.00  0.00    +0.000 C 
ENDBRANCH  26  31
BRANCH  10  34
ATOM     33  N   UNL     1      46.225  38.467  78.527  0.00  0.00    +0.000 NA
ATOM     34  C   UNL     1      46.309  38.391  79.683  0.00  0.00    +0.000 C 
ENDBRANCH  10  34
BRANCH  11  35
ATOM     35  C   UNL     1      44.470  36.044  82.341  0.00  0.00    +0.000 C 
BRANCH  35  36
ATOM     36  O   UNL     1      44.931  36.409  83.659  0.00  0.00    +0.000 OA
BRANCH  36  38
ATOM     37  O   UNL     1      43.308  35.102  84.610  0.00  0.00    +0.000 OA
ATOM     38  C   UNL     1      44.136  35.996  84.673  0.00  0.00    +0.000 C 
BRANCH  38  39
ATOM     39  C   UNL     1      44.497  36.693  85.941  0.00  0.00    +0.000 C 
ATOM     40  C   UNL     1      45.758  36.168  86.569  0.00  0.00    +0.000 C 
ATOM     41  C   UNL     1      43.783  37.687  86.506  0.00  0.00    +0.000 C 
ATOM     42  C   UNL     1      42.468  38.250  86.068  0.00  0.00    +0.000 C 
ENDBRANCH  38  39
ENDBRANCH  36  38
ENDBRANCH  35  36
ENDBRANCH  11  35
TORSDOF 7
ENDMDL
