MODEL 1
REMARK VINA RESULT:      -6.1      0.000      0.000
REMARK  Name = Resveratrol.pdbqt.pdb
REMARK  5 active torsions:
REMARK  status: ('A' for Active; 'I' for Inactive)
REMARK    1  A    between atoms: C_1  and  C_11
REMARK    2  A    between atoms: C_4  and  O_7
REMARK    3  A    between atoms: C_5  and  O_9
REMARK    4  A    between atoms: C_12  and  C_13
REMARK    5  A    between atoms: C_18  and  O_19
REMARK                            x       y       z     vdW  Elec       q    Type
REMARK                         _______ _______ _______ _____ _____    ______ ____
ROOT
ATOM      1  C   UNL     1      57.494  35.568  78.582  0.00  0.00    +0.000 A 
ATOM      2  C   UNL     1      58.399  34.598  79.008  0.00  0.00    +0.000 A 
ATOM      3  C   UNL     1      56.587  36.127  79.482  0.00  0.00    +0.000 A 
ATOM      4  C   UNL     1      56.596  35.709  80.810  0.00  0.00    +0.000 A 
ATOM      5  C   UNL     1      58.390  34.193  80.339  0.00  0.00    +0.000 A 
ATOM      6  C   UNL     1      57.493  34.742  81.250  0.00  0.00    +0.000 A 
ENDROOT
BRANCH   4   7
ATOM      7  O   UNL     1      55.721  36.239  81.714  0.00  0.00    +0.000 OA
ATOM      8  H   UNL     1      56.197  36.377  82.552  0.00  0.00    +0.000 HD
ENDBRANCH   4   7
BRANCH   5   9
ATOM      9  O   UNL     1      59.286  33.242  80.735  0.00  0.00    +0.000 OA
ATOM     10  H   UNL     1      59.475  32.670  79.969  0.00  0.00    +0.000 HD
ENDBRANCH   5   9
BRANCH   1  11
ATOM     11  C   UNL     1      57.492  35.991  77.220  0.00  0.00    +0.000 C 
ATOM     12  C   UNL     1      57.489  36.347  76.072  0.00  0.00    +0.000 C 
BRANCH  12  13
ATOM     13  C   UNL     1      57.487  36.771  74.710  0.00  0.00    +0.000 A 
ATOM     14  C   UNL     1      58.331  36.152  73.789  0.00  0.00    +0.000 A 
ATOM     15  C   UNL     1      56.640  37.802  74.304  0.00  0.00    +0.000 A 
ATOM     16  C   UNL     1      58.330  36.563  72.459  0.00  0.00    +0.000 A 
ATOM     17  C   UNL     1      56.637  38.216  72.975  0.00  0.00    +0.000 A 
ATOM     18  C   UNL     1      57.483  37.594  72.063  0.00  0.00    +0.000 A 
BRANCH  18  19
ATOM     19  O   UNL     1      57.461  38.017  70.766  0.00  0.00    +0.000 OA
ATOM     20  H   UNL     1      57.508  38.989  70.761  0.00  0.00    +0.000 HD
ENDBRANCH  18  19
ENDBRANCH  12  13
ENDBRANCH   1  11
TORSDOF 5
ENDMDL
MODEL 2
REMARK VINA RESULT:      -6.1      0.068      2.326
REMARK  Name = Resveratrol.pdbqt.pdb
REMARK  5 active torsions:
REMARK  status: ('A' for Active; 'I' for Inactive)
REMARK    1  A    between atoms: C_1  and  C_11
REMARK    2  A    between atoms: C_4  and  O_7
REMARK    3  A    between atoms: C_5  and  O_9
REMARK    4  A    between atoms: C_12  and  C_13
REMARK    5  A    between atoms: C_18  and  O_19
REMARK                            x       y       z     vdW  Elec       q    Type
REMARK                         _______ _______ _______ _____ _____    ______ ____
ROOT
ATOM      1  C   UNL     1      57.505  35.542  78.521  0.00  0.00    +0.000 A 
ATOM      2  C   UNL     1      56.597  36.085  79.429  0.00  0.00    +0.000 A 
ATOM      3  C   UNL     1      58.425  34.580  78.940  0.00  0.00    +0.000 A 
ATOM      4  C   UNL     1      58.428  34.169  80.270  0.00  0.00    +0.000 A 
ATOM      5  C   UNL     1      56.617  35.661  80.753  0.00  0.00    +0.000 A 
ATOM      6  C   UNL     1      57.528  34.702  81.186  0.00  0.00    +0.000 A 
ENDROOT
BRANCH   4   7
ATOM      7  O   UNL     1      59.316  33.229  80.707  0.00  0.00    +0.000 OA
ATOM      8  H   UNL     1      59.574  33.456  81.618  0.00  0.00    +0.000 HD
ENDBRANCH   4   7
BRANCH   5   9
ATOM      9  O   UNL     1      55.718  36.207  81.624  0.00  0.00    +0.000 OA
ATOM     10  H   UNL     1      55.954  35.914  82.522  0.00  0.00    +0.000 HD
ENDBRANCH   5   9
BRANCH   1  11
ATOM     11  C   UNL     1      57.496  35.969  77.161  0.00  0.00    +0.000 C 
ATOM     12  C   UNL     1      57.489  36.330  76.015  0.00  0.00    +0.000 C 
BRANCH  12  13
ATOM     13  C   UNL     1      57.480  36.757  74.654  0.00  0.00    +0.000 A 
ATOM     14  C   UNL     1      56.634  37.792  74.256  0.00  0.00    +0.000 A 
ATOM     15  C   UNL     1      58.317  36.139  73.726  0.00  0.00    +0.000 A 
ATOM     16  C   UNL     1      56.624  38.211  72.929  0.00  0.00    +0.000 A 
ATOM     17  C   UNL     1      58.310  36.555  72.397  0.00  0.00    +0.000 A 
ATOM     18  C   UNL     1      57.463  37.588  72.009  0.00  0.00    +0.000 A 
BRANCH  18  19
ATOM     19  O   UNL     1      57.473  37.978  70.702  0.00  0.00    +0.000 OA
ATOM     20  H   UNL     1      58.235  38.569  70.566  0.00  0.00    +0.000 HD
ENDBRANCH  18  19
ENDBRANCH  12  13
ENDBRANCH   1  11
TORSDOF 5
ENDMDL
MODEL 3
REMARK VINA RESULT:      -5.9      1.977      3.263
REMARK  Name = Resveratrol.pdbqt.pdb
REMARK  5 active torsions:
REMARK  status: ('A' for Active; 'I' for Inactive)
REMARK    1  A    between atoms: C_1  and  C_11
REMARK    2  A    between atoms: C_4  and  O_7
REMARK    3  A    between atoms: C_5  and  O_9
REMARK    4  A    between atoms: C_12  and  C_13
REMARK    5  A    between atoms: C_18  and  O_19
REMARK                            x       y       z     vdW  Elec       q    Type
REMARK                         _______ _______ _______ _____ _____    ______ ____
ROOT
ATOM      1  C   UNL     1      57.441  35.455  80.297  0.00  0.00    +0.000 A 
ATOM      2  C   UNL     1      57.278  36.028  81.557  0.00  0.00    +0.000 A 
ATOM      3  C   UNL     1      57.925  34.152  80.176  0.00  0.00    +0.000 A 
ATOM      4  C   UNL     1      58.242  33.430  81.323  0.00  0.00    +0.000 A 
ATOM      5  C   UNL     1      57.602  35.290  82.691  0.00  0.00    +0.000 A 
ATOM      6  C   UNL     1      58.084  33.989  82.587  0.00  0.00    +0.000 A 
ENDROOT
BRANCH   4   7
ATOM      7  O   UNL     1      58.717  32.154  81.235  0.00  0.00    +0.000 OA
ATOM      8  H   UNL     1      58.391  31.654  82.005  0.00  0.00    +0.000 HD
ENDBRANCH   4   7
BRANCH   5   9
ATOM      9  O   UNL     1      57.434  35.872  83.915  0.00  0.00    +0.000 OA
ATOM     10  H   UNL     1      58.264  36.325  84.149  0.00  0.00    +0.000 HD
ENDBRANCH   5   9
BRANCH   1  11
ATOM     11  C   UNL     1      57.114  36.201  79.127  0.00  0.00    +0.000 C 
ATOM     12  C   UNL     1      56.838  36.830  78.141  0.00  0.00    +0.000 C 
BRANCH  12  13
ATOM     13  C   UNL     1      56.510  37.576  76.971  0.00  0.00    +0.000 A 
ATOM     14  C   UNL     1      56.294  38.951  77.062  0.00  0.00    +0.000 A 
ATOM     15  C   UNL     1      56.405  36.930  75.739  0.00  0.00    +0.000 A 
ATOM     16  C   UNL     1      55.974  39.682  75.922  0.00  0.00    +0.000 A 
ATOM     17  C   UNL     1      56.085  37.658  74.597  0.00  0.00    +0.000 A 
ATOM     18  C   UNL     1      55.872  39.029  74.697  0.00  0.00    +0.000 A 
BRANCH  18  19
ATOM     19  O   UNL     1      55.559  39.721  73.563  0.00  0.00    +0.000 OA
ATOM     20  H   UNL     1      54.859  40.361  73.780  0.00  0.00    +0.000 HD
ENDBRANCH  18  19
ENDBRANCH  12  13
ENDBRANCH   1  11
TORSDOF 5
ENDMDL
MODEL 4
REMARK VINA RESULT:      -5.7      3.514      5.526
REMARK  Name = Resveratrol.pdbqt.pdb
REMARK  5 active torsions:
REMARK  status: ('A' for Active; 'I' for Inactive)
REMARK    1  A    between atoms: C_1  and  C_11
REMARK    2  A    between atoms: C_4  and  O_7
REMARK    3  A    between atoms: C_5  and  O_9
REMARK    4  A    between atoms: C_12  and  C_13
REMARK    5  A    between atoms: C_18  and  O_19
REMARK                            x       y       z     vdW  Elec       q    Type
REMARK                         _______ _______ _______ _____ _____    ______ ____
ROOT
ATOM      1  C   UNL     1      57.403  36.248  83.442  0.00  0.00    +0.000 A 
ATOM      2  C   UNL     1      57.187  37.480  84.057  0.00  0.00    +0.000 A 
ATOM      3  C   UNL     1      57.880  35.168  84.183  0.00  0.00    +0.000 A 
ATOM      4  C   UNL     1      58.138  35.330  85.542  0.00  0.00    +0.000 A 
ATOM      5  C   UNL     1      57.451  37.622  85.415  0.00  0.00    +0.000 A 
ATOM      6  C   UNL     1      57.927  36.554  86.169  0.00  0.00    +0.000 A 
ENDROOT
BRANCH   4   7
ATOM      7  O   UNL     1      58.605  34.290  86.292  0.00  0.00    +0.000 OA
ATOM      8  H   UNL     1      58.012  33.529  86.159  0.00  0.00    +0.000 HD
ENDBRANCH   4   7
BRANCH   5   9
ATOM      9  O   UNL     1      57.232  38.838  85.996  0.00  0.00    +0.000 OA
ATOM     10  H   UNL     1      57.447  39.527  85.342  0.00  0.00    +0.000 HD
ENDBRANCH   5   9
BRANCH   1  11
ATOM     11  C   UNL     1      57.137  36.090  82.050  0.00  0.00    +0.000 C 
ATOM     12  C   UNL     1      56.912  35.958  80.877  0.00  0.00    +0.000 C 
BRANCH  12  13
ATOM     13  C   UNL     1      56.646  35.801  79.485  0.00  0.00    +0.000 A 
ATOM     14  C   UNL     1      55.721  34.848  79.057  0.00  0.00    +0.000 A 
ATOM     15  C   UNL     1      57.311  36.599  78.555  0.00  0.00    +0.000 A 
ATOM     16  C   UNL     1      55.459  34.694  77.699  0.00  0.00    +0.000 A 
ATOM     17  C   UNL     1      57.052  36.447  77.196  0.00  0.00    +0.000 A 
ATOM     18  C   UNL     1      56.128  35.495  76.778  0.00  0.00    +0.000 A 
BRANCH  18  19
ATOM     19  O   UNL     1      55.891  35.364  75.441  0.00  0.00    +0.000 OA
ATOM     20  H   UNL     1      56.027  34.433  75.196  0.00  0.00    +0.000 HD
ENDBRANCH  18  19
ENDBRANCH  12  13
ENDBRANCH   1  11
TORSDOF 5
ENDMDL
MODEL 5
REMARK VINA RESULT:      -5.5      4.174      5.720
REMARK  Name = Resveratrol.pdbqt.pdb
REMARK  5 active torsions:
REMARK  status: ('A' for Active; 'I' for Inactive)
REMARK    1  A    between atoms: C_1  and  C_11
REMARK    2  A    between atoms: C_4  and  O_7
REMARK    3  A    between atoms: C_5  and  O_9
REMARK    4  A    between atoms: C_12  and  C_13
REMARK    5  A    between atoms: C_18  and  O_19
REMARK                            x       y       z     vdW  Elec       q    Type
REMARK                         _______ _______ _______ _____ _____    ______ ____
ROOT
ATOM      1  C   UNL     1      57.556  36.265  74.653  0.00  0.00    +0.000 A 
ATOM      2  C   UNL     1      56.215  36.249  75.032  0.00  0.00    +0.000 A 
ATOM      3  C   UNL     1      58.418  37.237  75.160  0.00  0.00    +0.000 A 
ATOM      4  C   UNL     1      57.928  38.190  76.048  0.00  0.00    +0.000 A 
ATOM      5  C   UNL     1      55.745  37.212  75.920  0.00  0.00    +0.000 A 
ATOM      6  C   UNL     1      56.592  38.187  76.435  0.00  0.00    +0.000 A 
ENDROOT
BRANCH   4   7
ATOM      7  O   UNL     1      58.748  39.153  76.560  0.00  0.00    +0.000 OA
ATOM      8  H   UNL     1      59.647  38.998  76.220  0.00  0.00    +0.000 HD
ENDBRANCH   4   7
BRANCH   5   9
ATOM      9  O   UNL     1      54.427  37.177  76.278  0.00  0.00    +0.000 OA
ATOM     10  H   UNL     1      54.197  38.043  76.659  0.00  0.00    +0.000 HD
ENDBRANCH   5   9
BRANCH   1  11
ATOM     11  C   UNL     1      58.050  35.284  73.742  0.00  0.00    +0.000 C 
ATOM     12  C   UNL     1      58.466  34.459  72.975  0.00  0.00    +0.000 C 
BRANCH  12  13
ATOM     13  C   UNL     1      58.960  33.479  72.064  0.00  0.00    +0.000 A 
ATOM     14  C   UNL     1      59.328  32.218  72.532  0.00  0.00    +0.000 A 
ATOM     15  C   UNL     1      59.073  33.784  70.708  0.00  0.00    +0.000 A 
ATOM     16  C   UNL     1      59.810  31.260  71.644  0.00  0.00    +0.000 A 
ATOM     17  C   UNL     1      59.555  32.829  69.817  0.00  0.00    +0.000 A 
ATOM     18  C   UNL     1      59.920  31.574  70.293  0.00  0.00    +0.000 A 
BRANCH  18  19
ATOM     19  O   UNL     1      60.390  30.654  69.401  0.00  0.00    +0.000 OA
ATOM     20  H   UNL     1      60.209  29.766  69.755  0.00  0.00    +0.000 HD
ENDBRANCH  18  19
ENDBRANCH  12  13
ENDBRANCH   1  11
TORSDOF 5
ENDMDL
MODEL 6
REMARK VINA RESULT:      -5.4      1.295      7.714
REMARK  Name = Resveratrol.pdbqt.pdb
REMARK  5 active torsions:
REMARK  status: ('A' for Active; 'I' for Inactive)
REMARK    1  A    between atoms: C_1  and  C_11
REMARK    2  A    between atoms: C_4  and  O_7
REMARK    3  A    between atoms: C_5  and  O_9
REMARK    4  A    between atoms: C_12  and  C_13
REMARK    5  A    between atoms: C_18  and  O_19
REMARK                            x       y       z     vdW  Elec       q    Type
REMARK                         _______ _______ _______ _____ _____    ______ ____
ROOT
ATOM      1  C   UNL     1      57.298  36.860  75.106  0.00  0.00    +0.000 A 
ATOM      2  C   UNL     1      56.326  37.792  74.746  0.00  0.00    +0.000 A 
ATOM      3  C   UNL     1      58.207  36.391  74.158  0.00  0.00    +0.000 A 
ATOM      4  C   UNL     1      58.135  36.862  72.850  0.00  0.00    +0.000 A 
ATOM      5  C   UNL     1      56.271  38.249  73.433  0.00  0.00    +0.000 A 
ATOM      6  C   UNL     1      57.171  37.792  72.476  0.00  0.00    +0.000 A 
ENDROOT
BRANCH   4   7
ATOM      7  O   UNL     1      59.012  36.421  71.901  0.00  0.00    +0.000 OA
ATOM      8  H   UNL     1      58.635  36.618  71.025  0.00  0.00    +0.000 HD
ENDBRANCH   4   7
BRANCH   5   9
ATOM      9  O   UNL     1      55.311  39.162  73.103  0.00  0.00    +0.000 OA
ATOM     10  H   UNL     1      54.485  38.904  73.549  0.00  0.00    +0.000 HD
ENDBRANCH   5   9
BRANCH   1  11
ATOM     11  C   UNL     1      57.364  36.382  76.448  0.00  0.00    +0.000 C 
ATOM     12  C   UNL     1      57.420  35.980  77.579  0.00  0.00    +0.000 C 
BRANCH  12  13
ATOM     13  C   UNL     1      57.485  35.503  78.922  0.00  0.00    +0.000 A 
ATOM     14  C   UNL     1      58.183  34.330  79.209  0.00  0.00    +0.000 A 
ATOM     15  C   UNL     1      56.851  36.210  79.943  0.00  0.00    +0.000 A 
ATOM     16  C   UNL     1      58.248  33.863  80.518  0.00  0.00    +0.000 A 
ATOM     17  C   UNL     1      56.914  35.746  81.254  0.00  0.00    +0.000 A 
ATOM     18  C   UNL     1      57.612  34.575  81.531  0.00  0.00    +0.000 A 
BRANCH  18  19
ATOM     19  O   UNL     1      57.660  34.140  82.824  0.00  0.00    +0.000 OA
ATOM     20  H   UNL     1      58.591  33.976  83.056  0.00  0.00    +0.000 HD
ENDBRANCH  18  19
ENDBRANCH  12  13
ENDBRANCH   1  11
TORSDOF 5
ENDMDL
MODEL 7
REMARK VINA RESULT:      -5.4      3.228      4.442
REMARK  Name = Resveratrol.pdbqt.pdb
REMARK  5 active torsions:
REMARK  status: ('A' for Active; 'I' for Inactive)
REMARK    1  A    between atoms: C_1  and  C_11
REMARK    2  A    between atoms: C_4  and  O_7
REMARK    3  A    between atoms: C_5  and  O_9
REMARK    4  A    between atoms: C_12  and  C_13
REMARK    5  A    between atoms: C_18  and  O_19
REMARK                            x       y       z     vdW  Elec       q    Type
REMARK                         _______ _______ _______ _____ _____    ______ ____
ROOT
ATOM      1  C   UNL     1      56.274  37.706  76.458  0.00  0.00    +0.000 A 
ATOM      2  C   UNL     1      56.946  37.867  77.669  0.00  0.00    +0.000 A 
ATOM      3  C   UNL     1      55.578  36.527  76.192  0.00  0.00    +0.000 A 
ATOM      4  C   UNL     1      55.560  35.513  77.146  0.00  0.00    +0.000 A 
ATOM      5  C   UNL     1      56.916  36.841  78.609  0.00  0.00    +0.000 A 
ATOM      6  C   UNL     1      56.225  35.659  78.358  0.00  0.00    +0.000 A 
ENDROOT
BRANCH   4   7
ATOM      7  O   UNL     1      54.887  34.349  76.913  0.00  0.00    +0.000 OA
ATOM      8  H   UNL     1      54.076  34.561  76.418  0.00  0.00    +0.000 HD
ENDBRANCH   4   7
BRANCH   5   9
ATOM      9  O   UNL     1      57.580  37.020  79.788  0.00  0.00    +0.000 OA
ATOM     10  H   UNL     1      58.428  37.457  79.591  0.00  0.00    +0.000 HD
ENDBRANCH   5   9
BRANCH   1  11
ATOM     11  C   UNL     1      56.298  38.750  75.486  0.00  0.00    +0.000 C 
ATOM     12  C   UNL     1      56.319  39.629  74.668  0.00  0.00    +0.000 C 
BRANCH  12  13
ATOM     13  C   UNL     1      56.344  40.673  73.696  0.00  0.00    +0.000 A 
ATOM     14  C   UNL     1      55.456  41.743  73.803  0.00  0.00    +0.000 A 
ATOM     15  C   UNL     1      57.255  40.620  72.642  0.00  0.00    +0.000 A 
ATOM     16  C   UNL     1      55.479  42.763  72.856  0.00  0.00    +0.000 A 
ATOM     17  C   UNL     1      57.281  41.638  71.693  0.00  0.00    +0.000 A 
ATOM     18  C   UNL     1      56.392  42.701  71.807  0.00  0.00    +0.000 A 
BRANCH  18  19
ATOM     19  O   UNL     1      56.436  43.687  70.864  0.00  0.00    +0.000 OA
ATOM     20  H   UNL     1      55.814  43.456  70.152  0.00  0.00    +0.000 HD
ENDBRANCH  18  19
ENDBRANCH  12  13
ENDBRANCH   1  11
TORSDOF 5
ENDMDL
MODEL 8
REMARK VINA RESULT:      -5.4      8.299     10.364
REMARK  Name = Resveratrol.pdbqt.pdb
REMARK  5 active torsions:
REMARK  status: ('A' for Active; 'I' for Inactive)
REMARK    1  A    between atoms: C_1  and  C_11
REMARK    2  A    between atoms: C_4  and  O_7
REMARK    3  A    between atoms: C_5  and  O_9
REMARK    4  A    between atoms: C_12  and  C_13
REMARK    5  A    between atoms: C_18  and  O_19
REMARK                            x       y       z     vdW  Elec       q    Type
REMARK                         _______ _______ _______ _____ _____    ______ ____
ROOT
ATOM      1  C   UNL     1      60.735  30.473  70.448  0.00  0.00    +0.000 A 
ATOM      2  C   UNL     1      62.117  30.307  70.371  0.00  0.00    +0.000 A 
ATOM      3  C   UNL     1      60.120  30.677  71.682  0.00  0.00    +0.000 A 
ATOM      4  C   UNL     1      60.898  30.715  72.837  0.00  0.00    +0.000 A 
ATOM      5  C   UNL     1      62.876  30.348  71.536  0.00  0.00    +0.000 A 
ATOM      6  C   UNL     1      62.278  30.552  72.775  0.00  0.00    +0.000 A 
ENDROOT
BRANCH   4   7
ATOM      7  O   UNL     1      60.324  30.914  74.058  0.00  0.00    +0.000 OA
ATOM      8  H   UNL     1      61.016  30.828  74.737  0.00  0.00    +0.000 HD
ENDBRANCH   4   7
BRANCH   5   9
ATOM      9  O   UNL     1      64.228  30.183  71.437  0.00  0.00    +0.000 OA
ATOM     10  H   UNL     1      64.479  30.315  70.505  0.00  0.00    +0.000 HD
ENDBRANCH   5   9
BRANCH   1  11
ATOM     11  C   UNL     1      59.946  30.432  69.261  0.00  0.00    +0.000 C 
ATOM     12  C   UNL     1      59.281  30.397  68.260  0.00  0.00    +0.000 C 
BRANCH  12  13
ATOM     13  C   UNL     1      58.492  30.356  67.074  0.00  0.00    +0.000 A 
ATOM     14  C   UNL     1      58.055  31.544  66.487  0.00  0.00    +0.000 A 
ATOM     15  C   UNL     1      58.157  29.128  66.503  0.00  0.00    +0.000 A 
ATOM     16  C   UNL     1      57.285  31.506  65.329  0.00  0.00    +0.000 A 
ATOM     17  C   UNL     1      57.387  29.086  65.344  0.00  0.00    +0.000 A 
ATOM     18  C   UNL     1      56.956  30.276  64.766  0.00  0.00    +0.000 A 
BRANCH  18  19
ATOM     19  O   UNL     1      56.202  30.209  63.631  0.00  0.00    +0.000 OA
ATOM     20  H   UNL     1      56.731  30.556  62.892  0.00  0.00    +0.000 HD
ENDBRANCH  18  19
ENDBRANCH  12  13
ENDBRANCH   1  11
TORSDOF 5
ENDMDL
MODEL 9
REMARK VINA RESULT:      -5.3      8.289     10.511
REMARK  Name = Resveratrol.pdbqt.pdb
REMARK  5 active torsions:
REMARK  status: ('A' for Active; 'I' for Inactive)
REMARK    1  A    between atoms: C_1  and  C_11
REMARK    2  A    between atoms: C_4  and  O_7
REMARK    3  A    between atoms: C_5  and  O_9
REMARK    4  A    between atoms: C_12  and  C_13
REMARK    5  A    between atoms: C_18  and  O_19
REMARK                            x       y       z     vdW  Elec       q    Type
REMARK                         _______ _______ _______ _____ _____    ______ ____
ROOT
ATOM      1  C   UNL     1      60.748  30.475  70.458  0.00  0.00    +0.000 A 
ATOM      2  C   UNL     1      60.138  30.675  71.696  0.00  0.00    +0.000 A 
ATOM      3  C   UNL     1      62.131  30.312  70.376  0.00  0.00    +0.000 A 
ATOM      4  C   UNL     1      62.895  30.350  71.539  0.00  0.00    +0.000 A 
ATOM      5  C   UNL     1      60.920  30.710  72.846  0.00  0.00    +0.000 A 
ATOM      6  C   UNL     1      62.300  30.548  72.780  0.00  0.00    +0.000 A 
ENDROOT
BRANCH   4   7
ATOM      7  O   UNL     1      64.250  30.192  71.488  0.00  0.00    +0.000 OA
ATOM      8  H   UNL     1      64.568  30.569  70.648  0.00  0.00    +0.000 HD
ENDBRANCH   4   7
BRANCH   5   9
ATOM      9  O   UNL     1      60.301  30.907  74.047  0.00  0.00    +0.000 OA
ATOM     10  H   UNL     1      60.961  30.777  74.750  0.00  0.00    +0.000 HD
ENDBRANCH   5   9
BRANCH   1  11
ATOM     11  C   UNL     1      59.958  30.438  69.272  0.00  0.00    +0.000 C 
ATOM     12  C   UNL     1      59.291  30.406  68.273  0.00  0.00    +0.000 C 
BRANCH  12  13
ATOM     13  C   UNL     1      58.500  30.370  67.087  0.00  0.00    +0.000 A 
ATOM     14  C   UNL     1      58.055  31.560  66.512  0.00  0.00    +0.000 A 
ATOM     15  C   UNL     1      58.174  29.145  66.505  0.00  0.00    +0.000 A 
ATOM     16  C   UNL     1      57.283  31.528  65.354  0.00  0.00    +0.000 A 
ATOM     17  C   UNL     1      57.403  29.109  65.347  0.00  0.00    +0.000 A 
ATOM     18  C   UNL     1      56.962  30.301  64.781  0.00  0.00    +0.000 A 
BRANCH  18  19
ATOM     19  O   UNL     1      56.207  30.239  63.646  0.00  0.00    +0.000 OA
ATOM     20  H   UNL     1      55.978  31.147  63.382  0.00  0.00    +0.000 HD
ENDBRANCH  18  19
ENDBRANCH  12  13
ENDBRANCH   1  11
TORSDOF 5
ENDMDL
