MODEL 1
REMARK VINA RESULT:      -6.1      0.000      0.000
REMARK  Name = RetinoicAcid.pdbqt.pdb
REMARK  6 active torsions:
REMARK  status: ('A' for Active; 'I' for Inactive)
REMARK    1  A    between atoms: C_1  and  C_3
REMARK    2  A    between atoms: C_1  and  C_5
REMARK    3  A    between atoms: C_3  and  C_15
REMARK    4  A    between atoms: C_4  and  C_9
REMARK    5  A    between atoms: C_16  and  C_17
REMARK    6  A    between atoms: C_21  and  O_22
REMARK                            x       y       z     vdW  Elec       q    Type
REMARK                         _______ _______ _______ _____ _____    ______ ____
ROOT
ATOM      1  C   UNL     1      57.902  36.064  73.902  0.00  0.00    +0.000 C 
ATOM      2  C   UNL     1      57.570  37.337  73.187  0.00  0.00    +0.000 C 
ENDROOT
BRANCH   1   4
ATOM      3  C   UNL     1      57.722  35.940  76.512  0.00  0.00    +0.000 C 
ATOM      4  C   UNL     1      57.799  35.994  75.313  0.00  0.00    +0.000 C 
BRANCH   3   8
ATOM      5  C   UNL     1      56.233  35.924  78.645  0.00  0.00    +0.000 C 
ATOM      6  C   UNL     1      56.437  35.839  80.110  0.00  0.00    +0.000 C 
ATOM      7  C   UNL     1      57.532  35.725  81.153  0.00  0.00    +0.000 C 
ATOM      8  C   UNL     1      57.636  35.879  77.952  0.00  0.00    +0.000 C 
ATOM      9  C   UNL     1      58.633  35.714  80.116  0.00  0.00    +0.000 C 
ATOM     10  C   UNL     1      58.762  35.776  78.699  0.00  0.00    +0.000 C 
ATOM     11  C   UNL     1      55.535  37.264  78.287  0.00  0.00    +0.000 C 
ATOM     12  C   UNL     1      55.396  34.707  78.157  0.00  0.00    +0.000 C 
ATOM     13  C   UNL     1      60.154  35.712  78.134  0.00  0.00    +0.000 C 
ENDBRANCH   3   8
ENDBRANCH   1   4
BRANCH   1  14
ATOM     14  C   UNL     1      58.329  35.039  73.233  0.00  0.00    +0.000 C 
BRANCH  14  15
ATOM     15  C   UNL     1      58.834  33.826  72.442  0.00  0.00    +0.000 C 
ATOM     16  C   UNL     1      59.230  32.877  71.822  0.00  0.00    +0.000 C 
BRANCH  16  17
ATOM     17  C   UNL     1      59.701  31.760  71.091  0.00  0.00    +0.000 C 
ATOM     18  C   UNL     1      60.262  30.577  71.818  0.00  0.00    +0.000 C 
ATOM     19  C   UNL     1      59.678  31.775  69.800  0.00  0.00    +0.000 C 
ATOM     20  O   UNL     1      58.638  31.532  67.737  0.00  0.00    +0.000 OA
ATOM     21  C   UNL     1      59.637  31.799  68.381  0.00  0.00    +0.000 C 
BRANCH  21  22
ATOM     22  O   UNL     1      60.794  32.165  67.806  0.00  0.00    +0.000 OA
ATOM     23  H   UNL     1      61.442  32.148  68.540  0.00  0.00    +0.000 HD
ENDBRANCH  21  22
ENDBRANCH  16  17
ENDBRANCH  14  15
ENDBRANCH   1  14
TORSDOF 6
ENDMDL
MODEL 2
REMARK VINA RESULT:      -6.0      5.168      7.117
REMARK  Name = RetinoicAcid.pdbqt.pdb
REMARK  6 active torsions:
REMARK  status: ('A' for Active; 'I' for Inactive)
REMARK    1  A    between atoms: C_1  and  C_3
REMARK    2  A    between atoms: C_1  and  C_5
REMARK    3  A    between atoms: C_3  and  C_15
REMARK    4  A    between atoms: C_4  and  C_9
REMARK    5  A    between atoms: C_16  and  C_17
REMARK    6  A    between atoms: C_21  and  O_22
REMARK                            x       y       z     vdW  Elec       q    Type
REMARK                         _______ _______ _______ _____ _____    ______ ____
ROOT
ATOM      1  C   UNL     1      62.426  35.644  76.835  0.00  0.00    +0.000 C 
ATOM      2  C   UNL     1      63.216  34.383  77.008  0.00  0.00    +0.000 C 
ENDROOT
BRANCH   1   4
ATOM      3  C   UNL     1      59.871  35.685  77.412  0.00  0.00    +0.000 C 
ATOM      4  C   UNL     1      61.044  35.663  77.142  0.00  0.00    +0.000 C 
BRANCH   3   8
ATOM      5  C   UNL     1      57.479  36.529  76.835  0.00  0.00    +0.000 C 
ATOM      6  C   UNL     1      56.114  36.386  77.394  0.00  0.00    +0.000 C 
ATOM      7  C   UNL     1      55.358  35.727  78.532  0.00  0.00    +0.000 C 
ATOM      8  C   UNL     1      58.466  35.718  77.740  0.00  0.00    +0.000 C 
ATOM      9  C   UNL     1      56.608  35.098  79.107  0.00  0.00    +0.000 C 
ATOM     10  C   UNL     1      58.002  35.044  78.821  0.00  0.00    +0.000 C 
ATOM     11  C   UNL     1      57.898  38.025  76.845  0.00  0.00    +0.000 C 
ATOM     12  C   UNL     1      57.525  35.942  75.396  0.00  0.00    +0.000 C 
ATOM     13  C   UNL     1      58.861  34.226  79.746  0.00  0.00    +0.000 C 
ENDBRANCH   3   8
ENDBRANCH   1   4
BRANCH   1  14
ATOM     14  C   UNL     1      62.998  36.704  76.357  0.00  0.00    +0.000 C 
BRANCH  14  15
ATOM     15  C   UNL     1      63.674  37.961  75.794  0.00  0.00    +0.000 C 
ATOM     16  C   UNL     1      64.205  38.944  75.355  0.00  0.00    +0.000 C 
BRANCH  16  17
ATOM     17  C   UNL     1      64.836  40.101  74.839  0.00  0.00    +0.000 C 
ATOM     18  C   UNL     1      66.174  40.519  75.368  0.00  0.00    +0.000 C 
ATOM     19  C   UNL     1      64.246  40.812  73.938  0.00  0.00    +0.000 C 
ATOM     20  O   UNL     1      63.617  41.295  71.754  0.00  0.00    +0.000 OA
ATOM     21  C   UNL     1      63.592  41.579  72.937  0.00  0.00    +0.000 C 
BRANCH  21  22
ATOM     22  O   UNL     1      62.920  42.640  73.414  0.00  0.00    +0.000 OA
ATOM     23  H   UNL     1      62.156  42.247  73.886  0.00  0.00    +0.000 HD
ENDBRANCH  21  22
ENDBRANCH  16  17
ENDBRANCH  14  15
ENDBRANCH   1  14
TORSDOF 6
ENDMDL
MODEL 3
REMARK VINA RESULT:      -5.8      2.359      3.462
REMARK  Name = RetinoicAcid.pdbqt.pdb
REMARK  6 active torsions:
REMARK  status: ('A' for Active; 'I' for Inactive)
REMARK    1  A    between atoms: C_1  and  C_3
REMARK    2  A    between atoms: C_1  and  C_5
REMARK    3  A    between atoms: C_3  and  C_15
REMARK    4  A    between atoms: C_4  and  C_9
REMARK    5  A    between atoms: C_16  and  C_17
REMARK    6  A    between atoms: C_21  and  O_22
REMARK                            x       y       z     vdW  Elec       q    Type
REMARK                         _______ _______ _______ _____ _____    ______ ____
ROOT
ATOM      1  C   UNL     1      62.342  34.994  76.283  0.00  0.00    +0.000 C 
ATOM      2  C   UNL     1      63.579  35.656  76.807  0.00  0.00    +0.000 C 
ENDROOT
BRANCH   1   4
ATOM      3  C   UNL     1      59.994  35.611  77.267  0.00  0.00    +0.000 C 
ATOM      4  C   UNL     1      61.075  35.332  76.818  0.00  0.00    +0.000 C 
BRANCH   3   8
ATOM      5  C   UNL     1      57.709  36.817  76.966  0.00  0.00    +0.000 C 
ATOM      6  C   UNL     1      56.462  36.989  77.748  0.00  0.00    +0.000 C 
ATOM      7  C   UNL     1      55.825  36.608  79.070  0.00  0.00    +0.000 C 
ATOM      8  C   UNL     1      58.695  35.938  77.806  0.00  0.00    +0.000 C 
ATOM      9  C   UNL     1      57.038  35.824  79.521  0.00  0.00    +0.000 C 
ATOM     10  C   UNL     1      58.329  35.482  79.029  0.00  0.00    +0.000 C 
ATOM     11  C   UNL     1      58.362  38.201  76.703  0.00  0.00    +0.000 C 
ATOM     12  C   UNL     1      57.398  36.080  75.632  0.00  0.00    +0.000 C 
ATOM     13  C   UNL     1      59.194  34.623  79.910  0.00  0.00    +0.000 C 
ENDBRANCH   3   8
ENDBRANCH   1   4
BRANCH   1  14
ATOM     14  C   UNL     1      62.436  34.075  75.373  0.00  0.00    +0.000 C 
BRANCH  14  15
ATOM     15  C   UNL     1      62.545  32.988  74.297  0.00  0.00    +0.000 C 
ATOM     16  C   UNL     1      62.632  32.139  73.453  0.00  0.00    +0.000 C 
BRANCH  16  17
ATOM     17  C   UNL     1      62.740  31.137  72.459  0.00  0.00    +0.000 C 
ATOM     18  C   UNL     1      63.953  30.258  72.416  0.00  0.00    +0.000 C 
ATOM     19  C   UNL     1      61.812  31.002  71.573  0.00  0.00    +0.000 C 
ATOM     20  O   UNL     1      59.751  30.238  70.822  0.00  0.00    +0.000 OA
ATOM     21  C   UNL     1      60.778  30.855  70.610  0.00  0.00    +0.000 C 
BRANCH  21  22
ATOM     22  O   UNL     1      61.021  31.480  69.447  0.00  0.00    +0.000 OA
ATOM     23  H   UNL     1      60.456  31.010  68.799  0.00  0.00    +0.000 HD
ENDBRANCH  21  22
ENDBRANCH  16  17
ENDBRANCH  14  15
ENDBRANCH   1  14
TORSDOF 6
ENDMDL
MODEL 4
REMARK VINA RESULT:      -5.7      4.114      9.193
REMARK  Name = RetinoicAcid.pdbqt.pdb
REMARK  6 active torsions:
REMARK  status: ('A' for Active; 'I' for Inactive)
REMARK    1  A    between atoms: C_1  and  C_3
REMARK    2  A    between atoms: C_1  and  C_5
REMARK    3  A    between atoms: C_3  and  C_15
REMARK    4  A    between atoms: C_4  and  C_9
REMARK    5  A    between atoms: C_16  and  C_17
REMARK    6  A    between atoms: C_21  and  O_22
REMARK                            x       y       z     vdW  Elec       q    Type
REMARK                         _______ _______ _______ _____ _____    ______ ____
ROOT
ATOM      1  C   UNL     1      58.799  35.365  72.528  0.00  0.00    +0.000 C 
ATOM      2  C   UNL     1      58.312  36.398  71.558  0.00  0.00    +0.000 C 
ENDROOT
BRANCH   1   4
ATOM      3  C   UNL     1      59.880  33.146  71.652  0.00  0.00    +0.000 C 
ATOM      4  C   UNL     1      59.378  34.163  72.052  0.00  0.00    +0.000 C 
BRANCH   3   8
ATOM      5  C   UNL     1      61.474  31.139  72.102  0.00  0.00    +0.000 C 
ATOM      6  C   UNL     1      61.938  29.937  71.371  0.00  0.00    +0.000 C 
ATOM      7  C   UNL     1      61.784  29.220  70.044  0.00  0.00    +0.000 C 
ATOM      8  C   UNL     1      60.488  31.926  71.175  0.00  0.00    +0.000 C 
ATOM      9  C   UNL     1      60.819  30.252  69.504  0.00  0.00    +0.000 C 
ATOM     10  C   UNL     1      60.201  31.461  69.934  0.00  0.00    +0.000 C 
ATOM     11  C   UNL     1      62.684  32.050  72.442  0.00  0.00    +0.000 C 
ATOM     12  C   UNL     1      60.713  30.713  73.390  0.00  0.00    +0.000 C 
ATOM     13  C   UNL     1      59.261  32.131  68.971  0.00  0.00    +0.000 C 
ENDBRANCH   3   8
ENDBRANCH   1   4
BRANCH   1  14
ATOM     14  C   UNL     1      58.646  35.551  73.801  0.00  0.00    +0.000 C 
BRANCH  14  15
ATOM     15  C   UNL     1      58.467  35.773  75.309  0.00  0.00    +0.000 C 
ATOM     16  C   UNL     1      58.327  35.948  76.488  0.00  0.00    +0.000 C 
BRANCH  16  17
ATOM     17  C   UNL     1      58.158  36.160  77.877  0.00  0.00    +0.000 C 
ATOM     18  C   UNL     1      59.360  36.265  78.765  0.00  0.00    +0.000 C 
ATOM     19  C   UNL     1      56.972  36.228  78.382  0.00  0.00    +0.000 C 
ATOM     20  O   UNL     1      54.996  37.333  78.902  0.00  0.00    +0.000 OA
ATOM     21  C   UNL     1      55.663  36.314  78.924  0.00  0.00    +0.000 C 
BRANCH  21  22
ATOM     22  O   UNL     1      55.209  35.162  79.445  0.00  0.00    +0.000 OA
ATOM     23  H   UNL     1      55.491  35.196  80.383  0.00  0.00    +0.000 HD
ENDBRANCH  21  22
ENDBRANCH  16  17
ENDBRANCH  14  15
ENDBRANCH   1  14
TORSDOF 6
ENDMDL
MODEL 5
REMARK VINA RESULT:      -5.6      6.238      8.466
REMARK  Name = RetinoicAcid.pdbqt.pdb
REMARK  6 active torsions:
REMARK  status: ('A' for Active; 'I' for Inactive)
REMARK    1  A    between atoms: C_1  and  C_3
REMARK    2  A    between atoms: C_1  and  C_5
REMARK    3  A    between atoms: C_3  and  C_15
REMARK    4  A    between atoms: C_4  and  C_9
REMARK    5  A    between atoms: C_16  and  C_17
REMARK    6  A    between atoms: C_21  and  O_22
REMARK                            x       y       z     vdW  Elec       q    Type
REMARK                         _______ _______ _______ _____ _____    ______ ____
ROOT
ATOM      1  C   UNL     1      62.332  35.573  76.540  0.00  0.00    +0.000 C 
ATOM      2  C   UNL     1      62.722  34.281  75.890  0.00  0.00    +0.000 C 
ENDROOT
BRANCH   1   4
ATOM      3  C   UNL     1      59.908  35.900  77.478  0.00  0.00    +0.000 C 
ATOM      4  C   UNL     1      61.021  35.744  77.048  0.00  0.00    +0.000 C 
BRANCH   3   8
ATOM      5  C   UNL     1      57.556  36.975  77.188  0.00  0.00    +0.000 C 
ATOM      6  C   UNL     1      56.275  36.997  77.932  0.00  0.00    +0.000 C 
ATOM      7  C   UNL     1      55.622  36.463  79.192  0.00  0.00    +0.000 C 
ATOM      8  C   UNL     1      58.573  36.094  77.990  0.00  0.00    +0.000 C 
ATOM      9  C   UNL     1      56.870  35.724  79.624  0.00  0.00    +0.000 C 
ATOM     10  C   UNL     1      58.198  35.512  79.156  0.00  0.00    +0.000 C 
ATOM     11  C   UNL     1      58.122  38.416  77.068  0.00  0.00    +0.000 C 
ATOM     12  C   UNL     1      57.342  36.337  75.787  0.00  0.00    +0.000 C 
ATOM     13  C   UNL     1      59.089  34.639  79.995  0.00  0.00    +0.000 C 
ENDBRANCH   3   8
ENDBRANCH   1   4
BRANCH   1  14
ATOM     14  C   UNL     1      63.180  36.551  76.593  0.00  0.00    +0.000 C 
BRANCH  14  15
ATOM     15  C   UNL     1      64.182  37.711  76.658  0.00  0.00    +0.000 C 
ATOM     16  C   UNL     1      64.967  38.617  76.707  0.00  0.00    +0.000 C 
BRANCH  16  17
ATOM     17  C   UNL     1      65.891  39.688  76.760  0.00  0.00    +0.000 C 
ATOM     18  C   UNL     1      66.782  39.962  75.587  0.00  0.00    +0.000 C 
ATOM     19  C   UNL     1      65.989  40.406  77.828  0.00  0.00    +0.000 C 
ATOM     20  O   UNL     1      65.320  42.117  79.250  0.00  0.00    +0.000 OA
ATOM     21  C   UNL     1      66.078  41.197  79.004  0.00  0.00    +0.000 C 
BRANCH  21  22
ATOM     22  O   UNL     1      67.063  40.827  79.839  0.00  0.00    +0.000 OA
ATOM     23  H   UNL     1      66.800  39.931  80.137  0.00  0.00    +0.000 HD
ENDBRANCH  21  22
ENDBRANCH  16  17
ENDBRANCH  14  15
ENDBRANCH   1  14
TORSDOF 6
ENDMDL
MODEL 6
REMARK VINA RESULT:      -5.6      2.836      3.781
REMARK  Name = RetinoicAcid.pdbqt.pdb
REMARK  6 active torsions:
REMARK  status: ('A' for Active; 'I' for Inactive)
REMARK    1  A    between atoms: C_1  and  C_3
REMARK    2  A    between atoms: C_1  and  C_5
REMARK    3  A    between atoms: C_3  and  C_15
REMARK    4  A    between atoms: C_4  and  C_9
REMARK    5  A    between atoms: C_16  and  C_17
REMARK    6  A    between atoms: C_21  and  O_22
REMARK                            x       y       z     vdW  Elec       q    Type
REMARK                         _______ _______ _______ _____ _____    ______ ____
ROOT
ATOM      1  C   UNL     1      61.789  35.203  76.344  0.00  0.00    +0.000 C 
ATOM      2  C   UNL     1      63.022  36.006  76.623  0.00  0.00    +0.000 C 
ENDROOT
BRANCH   1   4
ATOM      3  C   UNL     1      59.580  35.676  77.671  0.00  0.00    +0.000 C 
ATOM      4  C   UNL     1      60.595  35.465  77.060  0.00  0.00    +0.000 C 
BRANCH   3   8
ATOM      5  C   UNL     1      57.265  36.856  77.795  0.00  0.00    +0.000 C 
ATOM      6  C   UNL     1      56.134  36.926  78.750  0.00  0.00    +0.000 C 
ATOM      7  C   UNL     1      55.685  36.408  80.102  0.00  0.00    +0.000 C 
ATOM      8  C   UNL     1      58.363  35.923  78.407  0.00  0.00    +0.000 C 
ATOM      9  C   UNL     1      56.953  35.610  80.309  0.00  0.00    +0.000 C 
ATOM     10  C   UNL     1      58.169  35.345  79.618  0.00  0.00    +0.000 C 
ATOM     11  C   UNL     1      57.866  38.272  77.583  0.00  0.00    +0.000 C 
ATOM     12  C   UNL     1      56.784  36.243  76.450  0.00  0.00    +0.000 C 
ATOM     13  C   UNL     1      59.152  34.424  80.288  0.00  0.00    +0.000 C 
ENDBRANCH   3   8
ENDBRANCH   1   4
BRANCH   1  14
ATOM     14  C   UNL     1      61.828  34.237  75.481  0.00  0.00    +0.000 C 
BRANCH  14  15
ATOM     15  C   UNL     1      61.876  33.095  74.458  0.00  0.00    +0.000 C 
ATOM     16  C   UNL     1      61.912  32.202  73.657  0.00  0.00    +0.000 C 
BRANCH  16  17
ATOM     17  C   UNL     1      61.954  31.153  72.708  0.00  0.00    +0.000 C 
ATOM     18  C   UNL     1      60.691  30.444  72.325  0.00  0.00    +0.000 C 
ATOM     19  C   UNL     1      63.081  30.786  72.198  0.00  0.00    +0.000 C 
ATOM     20  O   UNL     1      64.846  30.983  70.700  0.00  0.00    +0.000 OA
ATOM     21  C   UNL     1      64.327  30.401  71.634  0.00  0.00    +0.000 C 
BRANCH  21  22
ATOM     22  O   UNL     1      64.897  29.346  72.239  0.00  0.00    +0.000 OA
ATOM     23  H   UNL     1      64.141  28.776  72.491  0.00  0.00    +0.000 HD
ENDBRANCH  21  22
ENDBRANCH  16  17
ENDBRANCH  14  15
ENDBRANCH   1  14
TORSDOF 6
ENDMDL
MODEL 7
REMARK VINA RESULT:      -5.4      6.197      8.509
REMARK  Name = RetinoicAcid.pdbqt.pdb
REMARK  6 active torsions:
REMARK  status: ('A' for Active; 'I' for Inactive)
REMARK    1  A    between atoms: C_1  and  C_3
REMARK    2  A    between atoms: C_1  and  C_5
REMARK    3  A    between atoms: C_3  and  C_15
REMARK    4  A    between atoms: C_4  and  C_9
REMARK    5  A    between atoms: C_16  and  C_17
REMARK    6  A    between atoms: C_21  and  O_22
REMARK                            x       y       z     vdW  Elec       q    Type
REMARK                         _______ _______ _______ _____ _____    ______ ____
ROOT
ATOM      1  C   UNL     1      62.322  35.485  76.607  0.00  0.00    +0.000 C 
ATOM      2  C   UNL     1      62.729  34.151  76.059  0.00  0.00    +0.000 C 
ENDROOT
BRANCH   1   4
ATOM      3  C   UNL     1      59.866  35.857  77.438  0.00  0.00    +0.000 C 
ATOM      4  C   UNL     1      60.995  35.692  77.056  0.00  0.00    +0.000 C 
BRANCH   3   8
ATOM      5  C   UNL     1      58.069  35.451  79.275  0.00  0.00    +0.000 C 
ATOM      6  C   UNL     1      56.646  35.800  79.496  0.00  0.00    +0.000 C 
ATOM      7  C   UNL     1      55.486  36.529  78.847  0.00  0.00    +0.000 C 
ATOM      8  C   UNL     1      58.511  36.047  77.897  0.00  0.00    +0.000 C 
ATOM      9  C   UNL     1      56.301  36.914  77.632  0.00  0.00    +0.000 C 
ATOM     10  C   UNL     1      57.627  36.745  77.141  0.00  0.00    +0.000 C 
ATOM     11  C   UNL     1      58.234  33.908  79.235  0.00  0.00    +0.000 C 
ATOM     12  C   UNL     1      58.947  36.080  80.394  0.00  0.00    +0.000 C 
ATOM     13  C   UNL     1      57.951  37.369  75.812  0.00  0.00    +0.000 C 
ENDBRANCH   3   8
ENDBRANCH   1   4
BRANCH   1  14
ATOM     14  C   UNL     1      63.172  36.464  76.624  0.00  0.00    +0.000 C 
BRANCH  14  15
ATOM     15  C   UNL     1      64.176  37.623  76.646  0.00  0.00    +0.000 C 
ATOM     16  C   UNL     1      64.962  38.530  76.661  0.00  0.00    +0.000 C 
BRANCH  16  17
ATOM     17  C   UNL     1      65.887  39.601  76.674  0.00  0.00    +0.000 C 
ATOM     18  C   UNL     1      66.755  39.850  75.478  0.00  0.00    +0.000 C 
ATOM     19  C   UNL     1      66.006  40.341  77.725  0.00  0.00    +0.000 C 
ATOM     20  O   UNL     1      65.365  42.081  79.124  0.00  0.00    +0.000 OA
ATOM     21  C   UNL     1      66.118  41.156  78.883  0.00  0.00    +0.000 C 
BRANCH  21  22
ATOM     22  O   UNL     1      67.119  40.801  79.706  0.00  0.00    +0.000 OA
ATOM     23  H   UNL     1      66.861  39.912  80.027  0.00  0.00    +0.000 HD
ENDBRANCH  21  22
ENDBRANCH  16  17
ENDBRANCH  14  15
ENDBRANCH   1  14
TORSDOF 6
ENDMDL
MODEL 8
REMARK VINA RESULT:      -5.4     21.083     24.187
REMARK  Name = RetinoicAcid.pdbqt.pdb
REMARK  6 active torsions:
REMARK  status: ('A' for Active; 'I' for Inactive)
REMARK    1  A    between atoms: C_1  and  C_3
REMARK    2  A    between atoms: C_1  and  C_5
REMARK    3  A    between atoms: C_3  and  C_15
REMARK    4  A    between atoms: C_4  and  C_9
REMARK    5  A    between atoms: C_16  and  C_17
REMARK    6  A    between atoms: C_21  and  O_22
REMARK                            x       y       z     vdW  Elec       q    Type
REMARK                         _______ _______ _______ _____ _____    ______ ____
ROOT
ATOM      1  C   UNL     1      40.365  22.616  81.171  0.00  0.00    +0.000 C 
ATOM      2  C   UNL     1      40.793  21.817  79.979  0.00  0.00    +0.000 C 
ENDROOT
BRANCH   1   4
ATOM      3  C   UNL     1      37.936  22.375  82.122  0.00  0.00    +0.000 C 
ATOM      4  C   UNL     1      39.050  22.483  81.680  0.00  0.00    +0.000 C 
BRANCH   3   8
ATOM      5  C   UNL     1      35.510  21.479  81.841  0.00  0.00    +0.000 C 
ATOM      6  C   UNL     1      34.250  21.499  82.621  0.00  0.00    +0.000 C 
ATOM      7  C   UNL     1      33.665  22.007  83.924  0.00  0.00    +0.000 C 
ATOM      8  C   UNL     1      36.601  22.249  82.657  0.00  0.00    +0.000 C 
ATOM      9  C   UNL     1      34.969  22.640  84.357  0.00  0.00    +0.000 C 
ATOM     10  C   UNL     1      36.296  22.790  83.863  0.00  0.00    +0.000 C 
ATOM     11  C   UNL     1      35.299  22.194  80.479  0.00  0.00    +0.000 C 
ATOM     12  C   UNL     1      35.982  20.012  81.639  0.00  0.00    +0.000 C 
ATOM     13  C   UNL     1      37.271  23.537  84.731  0.00  0.00    +0.000 C 
ENDBRANCH   3   8
ENDBRANCH   1   4
BRANCH   1  14
ATOM     14  C   UNL     1      41.184  23.466  81.707  0.00  0.00    +0.000 C 
BRANCH  14  15
ATOM     15  C   UNL     1      42.150  24.474  82.342  0.00  0.00    +0.000 C 
ATOM     16  C   UNL     1      42.907  25.262  82.840  0.00  0.00    +0.000 C 
BRANCH  16  17
ATOM     17  C   UNL     1      43.802  26.186  83.430  0.00  0.00    +0.000 C 
ATOM     18  C   UNL     1      45.217  25.780  83.706  0.00  0.00    +0.000 C 
ATOM     19  C   UNL     1      43.391  27.365  83.759  0.00  0.00    +0.000 C 
ATOM     20  O   UNL     1      42.845  29.577  83.305  0.00  0.00    +0.000 OA
ATOM     21  C   UNL     1      42.930  28.663  84.104  0.00  0.00    +0.000 C 
BRANCH  21  22
ATOM     22  O   UNL     1      42.572  28.791  85.392  0.00  0.00    +0.000 OA
ATOM     23  H   UNL     1      41.683  28.382  85.435  0.00  0.00    +0.000 HD
ENDBRANCH  21  22
ENDBRANCH  16  17
ENDBRANCH  14  15
ENDBRANCH   1  14
TORSDOF 6
ENDMDL
MODEL 9
REMARK VINA RESULT:      -5.3      4.401      8.822
REMARK  Name = RetinoicAcid.pdbqt.pdb
REMARK  6 active torsions:
REMARK  status: ('A' for Active; 'I' for Inactive)
REMARK    1  A    between atoms: C_1  and  C_3
REMARK    2  A    between atoms: C_1  and  C_5
REMARK    3  A    between atoms: C_3  and  C_15
REMARK    4  A    between atoms: C_4  and  C_9
REMARK    5  A    between atoms: C_16  and  C_17
REMARK    6  A    between atoms: C_21  and  O_22
REMARK                            x       y       z     vdW  Elec       q    Type
REMARK                         _______ _______ _______ _____ _____    ______ ____
ROOT
ATOM      1  C   UNL     1      60.925  35.652  74.230  0.00  0.00    +0.000 C 
ATOM      2  C   UNL     1      62.237  36.028  74.847  0.00  0.00    +0.000 C 
ENDROOT
BRANCH   1   4
ATOM      3  C   UNL     1      60.769  33.579  72.637  0.00  0.00    +0.000 C 
ATOM      4  C   UNL     1      60.841  34.535  73.364  0.00  0.00    +0.000 C 
BRANCH   3   8
ATOM      5  C   UNL     1      61.379  31.090  72.186  0.00  0.00    +0.000 C 
ATOM      6  C   UNL     1      61.122  30.085  71.127  0.00  0.00    +0.000 C 
ATOM      7  C   UNL     1      60.421  29.915  69.794  0.00  0.00    +0.000 C 
ATOM      8  C   UNL     1      60.680  32.428  71.770  0.00  0.00    +0.000 C 
ATOM      9  C   UNL     1      59.920  31.343  69.783  0.00  0.00    +0.000 C 
ATOM     10  C   UNL     1      59.988  32.502  70.606  0.00  0.00    +0.000 C 
ATOM     11  C   UNL     1      62.906  31.338  72.318  0.00  0.00    +0.000 C 
ATOM     12  C   UNL     1      60.770  30.607  73.532  0.00  0.00    +0.000 C 
ATOM     13  C   UNL     1      59.270  33.732  70.121  0.00  0.00    +0.000 C 
ENDBRANCH   3   8
ENDBRANCH   1   4
BRANCH   1  14
ATOM     14  C   UNL     1      59.875  36.380  74.451  0.00  0.00    +0.000 C 
BRANCH  14  15
ATOM     15  C   UNL     1      58.633  37.241  74.714  0.00  0.00    +0.000 C 
ATOM     16  C   UNL     1      57.661  37.914  74.923  0.00  0.00    +0.000 C 
BRANCH  16  17
ATOM     17  C   UNL     1      56.518  38.711  75.172  0.00  0.00    +0.000 C 
ATOM     18  C   UNL     1      55.760  38.543  76.453  0.00  0.00    +0.000 C 
ATOM     19  C   UNL     1      56.112  39.555  74.285  0.00  0.00    +0.000 C 
ATOM     20  O   UNL     1      56.167  41.599  73.183  0.00  0.00    +0.000 OA
ATOM     21  C   UNL     1      55.682  40.490  73.306  0.00  0.00    +0.000 C 
BRANCH  21  22
ATOM     22  O   UNL     1      54.702  40.034  72.508  0.00  0.00    +0.000 OA
ATOM     23  H   UNL     1      53.896  40.484  72.837  0.00  0.00    +0.000 HD
ENDBRANCH  21  22
ENDBRANCH  16  17
ENDBRANCH  14  15
ENDBRANCH   1  14
TORSDOF 6
ENDMDL
