MODEL 1
REMARK VINA RESULT:      -7.2      0.000      0.000
REMARK  Name = SB_202190.pdbqt.pdb
REMARK  4 active torsions:
REMARK  status: ('A' for Active; 'I' for Inactive)
REMARK    1  A    between atoms: C_4  and  C_7
REMARK    2  A    between atoms: C_5  and  C_19
REMARK    3  A    between atoms: C_6  and  C_8
REMARK    4  A    between atoms: C_15  and  O_26
REMARK                            x       y       z     vdW  Elec       q    Type
REMARK                         _______ _______ _______ _____ _____    ______ ____
ROOT
ATOM      1  N   UNL     1      59.632  36.845  76.142  0.00  0.00    +0.000 N 
ATOM      2  N   UNL     1      60.660  35.712  77.720  0.00  0.00    +0.000 NA
ATOM      3  C   UNL     1      58.629  36.452  77.006  0.00  0.00    +0.000 A 
ATOM      4  C   UNL     1      59.305  35.716  77.969  0.00  0.00    +0.000 A 
ATOM      5  C   UNL     1      60.843  36.396  76.611  0.00  0.00    +0.000 A 
ATOM      6  H   UNL     1      59.508  37.410  75.314  0.00  0.00    +0.000 HD
ENDROOT
BRANCH   4   7
ATOM      7  C   UNL     1      58.749  35.006  79.102  0.00  0.00    +0.000 A 
ATOM      8  C   UNL     1      57.804  33.992  78.931  0.00  0.00    +0.000 A 
ATOM      9  C   UNL     1      57.314  33.288  80.028  0.00  0.00    +0.000 A 
ATOM     10  C   UNL     1      57.789  33.593  81.298  0.00  0.00    +0.000 A 
ATOM     11  F   UNL     1      57.317  32.921  82.357  0.00  0.00    +0.000 F 
ATOM     12  C   UNL     1      58.743  34.586  81.489  0.00  0.00    +0.000 A 
ATOM     13  C   UNL     1      59.226  35.286  80.385  0.00  0.00    +0.000 A 
ENDBRANCH   4   7
BRANCH   3  15
ATOM     14  N   UNL     1      54.577  37.640  76.397  0.00  0.00    +0.000 NA
ATOM     15  C   UNL     1      57.238  36.850  76.814  0.00  0.00    +0.000 A 
ATOM     16  C   UNL     1      56.745  38.019  77.391  0.00  0.00    +0.000 A 
ATOM     17  C   UNL     1      56.387  36.087  76.015  0.00  0.00    +0.000 A 
ATOM     18  C   UNL     1      55.424  38.364  77.159  0.00  0.00    +0.000 A 
ATOM     19  C   UNL     1      55.081  36.516  75.846  0.00  0.00    +0.000 A 
ENDBRANCH   3  15
BRANCH   5  20
ATOM     20  C   UNL     1      62.121  36.654  75.957  0.00  0.00    +0.000 A 
ATOM     21  C   UNL     1      63.304  36.184  76.535  0.00  0.00    +0.000 A 
ATOM     22  C   UNL     1      62.192  37.365  74.755  0.00  0.00    +0.000 A 
ATOM     23  C   UNL     1      64.535  36.418  75.928  0.00  0.00    +0.000 A 
ATOM     24  C   UNL     1      63.418  37.604  74.140  0.00  0.00    +0.000 A 
ATOM     25  C   UNL     1      64.581  37.128  74.733  0.00  0.00    +0.000 A 
BRANCH  25  26
ATOM     26  O   UNL     1      65.772  37.373  74.114  0.00  0.00    +0.000 OA
ATOM     27  H   UNL     1      65.828  38.327  73.928  0.00  0.00    +0.000 HD
ENDBRANCH  25  26
ENDBRANCH   5  20
TORSDOF 4
ENDMDL
MODEL 2
REMARK VINA RESULT:      -6.9      4.218      7.181
REMARK  Name = SB_202190.pdbqt.pdb
REMARK  4 active torsions:
REMARK  status: ('A' for Active; 'I' for Inactive)
REMARK    1  A    between atoms: C_4  and  C_7
REMARK    2  A    between atoms: C_5  and  C_19
REMARK    3  A    between atoms: C_6  and  C_8
REMARK    4  A    between atoms: C_15  and  O_26
REMARK                            x       y       z     vdW  Elec       q    Type
REMARK                         _______ _______ _______ _____ _____    ______ ____
ROOT
ATOM      1  N   UNL     1      59.328  35.155  76.657  0.00  0.00    +0.000 N 
ATOM      2  N   UNL     1      60.891  35.526  78.158  0.00  0.00    +0.000 NA
ATOM      3  C   UNL     1      60.518  34.967  75.984  0.00  0.00    +0.000 A 
ATOM      4  C   UNL     1      61.480  35.238  76.947  0.00  0.00    +0.000 A 
ATOM      5  C   UNL     1      59.589  35.475  77.968  0.00  0.00    +0.000 A 
ATOM      6  H   UNL     1      58.405  35.038  76.265  0.00  0.00    +0.000 HD
ENDROOT
BRANCH   4   7
ATOM      7  C   UNL     1      62.919  35.255  76.792  0.00  0.00    +0.000 A 
ATOM      8  C   UNL     1      63.602  36.430  76.472  0.00  0.00    +0.000 A 
ATOM      9  C   UNL     1      64.991  36.439  76.371  0.00  0.00    +0.000 A 
ATOM     10  C   UNL     1      65.696  35.265  76.610  0.00  0.00    +0.000 A 
ATOM     11  F   UNL     1      67.032  35.268  76.510  0.00  0.00    +0.000 F 
ATOM     12  C   UNL     1      65.038  34.088  76.948  0.00  0.00    +0.000 A 
ATOM     13  C   UNL     1      63.648  34.090  77.045  0.00  0.00    +0.000 A 
ENDBRANCH   4   7
BRANCH   3  15
ATOM     14  N   UNL     1      60.593  33.705  71.909  0.00  0.00    +0.000 NA
ATOM     15  C   UNL     1      60.563  34.538  74.589  0.00  0.00    +0.000 A 
ATOM     16  C   UNL     1      60.897  33.227  74.257  0.00  0.00    +0.000 A 
ATOM     17  C   UNL     1      60.232  35.426  73.565  0.00  0.00    +0.000 A 
ATOM     18  C   UNL     1      60.901  32.865  72.919  0.00  0.00    +0.000 A 
ATOM     19  C   UNL     1      60.268  34.967  72.258  0.00  0.00    +0.000 A 
ENDBRANCH   3  15
BRANCH   5  20
ATOM     20  C   UNL     1      58.559  35.716  78.972  0.00  0.00    +0.000 A 
ATOM     21  C   UNL     1      58.827  35.451  80.318  0.00  0.00    +0.000 A 
ATOM     22  C   UNL     1      57.300  36.210  78.618  0.00  0.00    +0.000 A 
ATOM     23  C   UNL     1      57.859  35.674  81.295  0.00  0.00    +0.000 A 
ATOM     24  C   UNL     1      56.325  36.435  79.587  0.00  0.00    +0.000 A 
ATOM     25  C   UNL     1      56.614  36.166  80.919  0.00  0.00    +0.000 A 
BRANCH  25  26
ATOM     26  O   UNL     1      55.644  36.394  81.852  0.00  0.00    +0.000 OA
ATOM     27  H   UNL     1      54.799  36.068  81.498  0.00  0.00    +0.000 HD
ENDBRANCH  25  26
ENDBRANCH   5  20
TORSDOF 4
ENDMDL
MODEL 3
REMARK VINA RESULT:      -6.6      3.649      4.888
REMARK  Name = SB_202190.pdbqt.pdb
REMARK  4 active torsions:
REMARK  status: ('A' for Active; 'I' for Inactive)
REMARK    1  A    between atoms: C_4  and  C_7
REMARK    2  A    between atoms: C_5  and  C_19
REMARK    3  A    between atoms: C_6  and  C_8
REMARK    4  A    between atoms: C_15  and  O_26
REMARK                            x       y       z     vdW  Elec       q    Type
REMARK                         _______ _______ _______ _____ _____    ______ ____
ROOT
ATOM      1  N   UNL     1      61.155  37.087  76.267  0.00  0.00    +0.000 N 
ATOM      2  N   UNL     1      62.253  35.960  74.732  0.00  0.00    +0.000 NA
ATOM      3  C   UNL     1      60.358  35.994  75.993  0.00  0.00    +0.000 A 
ATOM      4  C   UNL     1      61.062  35.322  75.003  0.00  0.00    +0.000 A 
ATOM      5  C   UNL     1      62.295  37.027  75.502  0.00  0.00    +0.000 A 
ATOM      6  H   UNL     1      60.957  37.803  76.952  0.00  0.00    +0.000 HD
ENDROOT
BRANCH   4   7
ATOM      7  C   UNL     1      60.674  34.125  74.288  0.00  0.00    +0.000 A 
ATOM      8  C   UNL     1      59.787  34.178  73.210  0.00  0.00    +0.000 A 
ATOM      9  C   UNL     1      59.461  33.022  72.505  0.00  0.00    +0.000 A 
ATOM     10  C   UNL     1      60.041  31.814  72.874  0.00  0.00    +0.000 A 
ATOM     11  F   UNL     1      59.725  30.700  72.200  0.00  0.00    +0.000 F 
ATOM     12  C   UNL     1      60.940  31.743  73.931  0.00  0.00    +0.000 A 
ATOM     13  C   UNL     1      61.259  32.904  74.632  0.00  0.00    +0.000 A 
ENDBRANCH   4   7
BRANCH   3  15
ATOM     14  N   UNL     1      56.720  35.304  78.112  0.00  0.00    +0.000 NA
ATOM     15  C   UNL     1      59.113  35.739  76.712  0.00  0.00    +0.000 A 
ATOM     16  C   UNL     1      59.129  35.182  77.990  0.00  0.00    +0.000 A 
ATOM     17  C   UNL     1      57.887  36.087  76.147  0.00  0.00    +0.000 A 
ATOM     18  C   UNL     1      57.921  34.984  78.638  0.00  0.00    +0.000 A 
ATOM     19  C   UNL     1      56.734  35.846  76.876  0.00  0.00    +0.000 A 
ENDBRANCH   3  15
BRANCH   5  20
ATOM     20  C   UNL     1      63.370  38.012  75.556  0.00  0.00    +0.000 A 
ATOM     21  C   UNL     1      63.465  38.990  74.562  0.00  0.00    +0.000 A 
ATOM     22  C   UNL     1      64.314  38.001  76.586  0.00  0.00    +0.000 A 
ATOM     23  C   UNL     1      64.483  39.940  74.593  0.00  0.00    +0.000 A 
ATOM     24  C   UNL     1      65.336  38.946  76.626  0.00  0.00    +0.000 A 
ATOM     25  C   UNL     1      65.411  39.910  75.628  0.00  0.00    +0.000 A 
BRANCH  25  26
ATOM     26  O   UNL     1      66.420  40.827  75.687  0.00  0.00    +0.000 OA
ATOM     27  H   UNL     1      66.044  41.705  75.498  0.00  0.00    +0.000 HD
ENDBRANCH  25  26
ENDBRANCH   5  20
TORSDOF 4
ENDMDL
MODEL 4
REMARK VINA RESULT:      -6.6      4.461      7.493
REMARK  Name = SB_202190.pdbqt.pdb
REMARK  4 active torsions:
REMARK  status: ('A' for Active; 'I' for Inactive)
REMARK    1  A    between atoms: C_4  and  C_7
REMARK    2  A    between atoms: C_5  and  C_19
REMARK    3  A    between atoms: C_6  and  C_8
REMARK    4  A    between atoms: C_15  and  O_26
REMARK                            x       y       z     vdW  Elec       q    Type
REMARK                         _______ _______ _______ _____ _____    ______ ____
ROOT
ATOM      1  N   UNL     1      59.446  35.082  77.280  0.00  0.00    +0.000 N 
ATOM      2  N   UNL     1      58.322  36.971  77.305  0.00  0.00    +0.000 NA
ATOM      3  C   UNL     1      59.606  35.607  76.013  0.00  0.00    +0.000 A 
ATOM      4  C   UNL     1      58.863  36.778  76.053  0.00  0.00    +0.000 A 
ATOM      5  C   UNL     1      58.680  35.937  78.036  0.00  0.00    +0.000 A 
ATOM      6  H   UNL     1      59.857  34.224  77.618  0.00  0.00    +0.000 HD
ENDROOT
BRANCH   4   7
ATOM      7  C   UNL     1      58.619  37.718  74.979  0.00  0.00    +0.000 A 
ATOM      8  C   UNL     1      57.462  37.649  74.201  0.00  0.00    +0.000 A 
ATOM      9  C   UNL     1      57.222  38.590  73.202  0.00  0.00    +0.000 A 
ATOM     10  C   UNL     1      58.142  39.612  72.997  0.00  0.00    +0.000 A 
ATOM     11  F   UNL     1      57.917  40.516  72.034  0.00  0.00    +0.000 F 
ATOM     12  C   UNL     1      59.291  39.710  73.773  0.00  0.00    +0.000 A 
ATOM     13  C   UNL     1      59.522  38.764  74.769  0.00  0.00    +0.000 A 
ENDBRANCH   4   7
BRANCH   3  15
ATOM     14  N   UNL     1      62.057  33.772  73.042  0.00  0.00    +0.000 NA
ATOM     15  C   UNL     1      60.441  34.961  75.004  0.00  0.00    +0.000 A 
ATOM     16  C   UNL     1      59.881  34.460  73.830  0.00  0.00    +0.000 A 
ATOM     17  C   UNL     1      61.821  34.872  75.180  0.00  0.00    +0.000 A 
ATOM     18  C   UNL     1      60.720  33.878  72.894  0.00  0.00    +0.000 A 
ATOM     19  C   UNL     1      62.574  34.269  74.185  0.00  0.00    +0.000 A 
ENDBRANCH   3  15
BRANCH   5  20
ATOM     20  C   UNL     1      58.335  35.706  79.434  0.00  0.00    +0.000 A 
ATOM     21  C   UNL     1      59.015  34.727  80.164  0.00  0.00    +0.000 A 
ATOM     22  C   UNL     1      57.332  36.446  80.067  0.00  0.00    +0.000 A 
ATOM     23  C   UNL     1      58.703  34.489  81.501  0.00  0.00    +0.000 A 
ATOM     24  C   UNL     1      57.011  36.215  81.403  0.00  0.00    +0.000 A 
ATOM     25  C   UNL     1      57.701  35.238  82.109  0.00  0.00    +0.000 A 
BRANCH  25  26
ATOM     26  O   UNL     1      57.371  35.028  83.417  0.00  0.00    +0.000 OA
ATOM     27  H   UNL     1      57.045  34.116  83.506  0.00  0.00    +0.000 HD
ENDBRANCH  25  26
ENDBRANCH   5  20
TORSDOF 4
ENDMDL
MODEL 5
REMARK VINA RESULT:      -6.5      4.343      6.758
REMARK  Name = SB_202190.pdbqt.pdb
REMARK  4 active torsions:
REMARK  status: ('A' for Active; 'I' for Inactive)
REMARK    1  A    between atoms: C_4  and  C_7
REMARK    2  A    between atoms: C_5  and  C_19
REMARK    3  A    between atoms: C_6  and  C_8
REMARK    4  A    between atoms: C_15  and  O_26
REMARK                            x       y       z     vdW  Elec       q    Type
REMARK                         _______ _______ _______ _____ _____    ______ ____
ROOT
ATOM      1  N   UNL     1      58.480  36.262  76.730  0.00  0.00    +0.000 N 
ATOM      2  N   UNL     1      60.015  34.849  77.425  0.00  0.00    +0.000 NA
ATOM      3  C   UNL     1      59.217  35.956  75.603  0.00  0.00    +0.000 A 
ATOM      4  C   UNL     1      60.191  35.090  76.080  0.00  0.00    +0.000 A 
ATOM      5  C   UNL     1      58.978  35.566  77.806  0.00  0.00    +0.000 A 
ATOM      6  H   UNL     1      57.675  36.870  76.759  0.00  0.00    +0.000 HD
ENDROOT
BRANCH   4   7
ATOM      7  C   UNL     1      61.286  34.488  75.349  0.00  0.00    +0.000 A 
ATOM      8  C   UNL     1      62.533  35.111  75.265  0.00  0.00    +0.000 A 
ATOM      9  C   UNL     1      63.589  34.496  74.596  0.00  0.00    +0.000 A 
ATOM     10  C   UNL     1      63.393  33.244  74.025  0.00  0.00    +0.000 A 
ATOM     11  F   UNL     1      64.405  32.652  73.377  0.00  0.00    +0.000 F 
ATOM     12  C   UNL     1      62.166  32.599  74.112  0.00  0.00    +0.000 A 
ATOM     13  C   UNL     1      61.116  33.222  74.783  0.00  0.00    +0.000 A 
ENDBRANCH   4   7
BRANCH   3  15
ATOM     14  N   UNL     1      58.165  37.493  71.765  0.00  0.00    +0.000 NA
ATOM     15  C   UNL     1      58.876  36.482  74.285  0.00  0.00    +0.000 A 
ATOM     16  C   UNL     1      58.749  35.631  73.189  0.00  0.00    +0.000 A 
ATOM     17  C   UNL     1      58.631  37.844  74.109  0.00  0.00    +0.000 A 
ATOM     18  C   UNL     1      58.399  36.179  71.965  0.00  0.00    +0.000 A 
ATOM     19  C   UNL     1      58.289  38.294  72.843  0.00  0.00    +0.000 A 
ENDBRANCH   3  15
BRANCH   5  20
ATOM     20  C   UNL     1      58.421  35.632  79.152  0.00  0.00    +0.000 A 
ATOM     21  C   UNL     1      58.978  34.855  80.172  0.00  0.00    +0.000 A 
ATOM     22  C   UNL     1      57.335  36.461  79.449  0.00  0.00    +0.000 A 
ATOM     23  C   UNL     1      58.463  34.902  81.465  0.00  0.00    +0.000 A 
ATOM     24  C   UNL     1      56.813  36.515  80.739  0.00  0.00    +0.000 A 
ATOM     25  C   UNL     1      57.382  35.734  81.738  0.00  0.00    +0.000 A 
BRANCH  25  26
ATOM     26  O   UNL     1      56.855  35.803  82.994  0.00  0.00    +0.000 OA
ATOM     27  H   UNL     1      56.253  36.566  83.031  0.00  0.00    +0.000 HD
ENDBRANCH  25  26
ENDBRANCH   5  20
TORSDOF 4
ENDMDL
MODEL 6
REMARK VINA RESULT:      -6.5      4.709      7.554
REMARK  Name = SB_202190.pdbqt.pdb
REMARK  4 active torsions:
REMARK  status: ('A' for Active; 'I' for Inactive)
REMARK    1  A    between atoms: C_4  and  C_7
REMARK    2  A    between atoms: C_5  and  C_19
REMARK    3  A    between atoms: C_6  and  C_8
REMARK    4  A    between atoms: C_15  and  O_26
REMARK                            x       y       z     vdW  Elec       q    Type
REMARK                         _______ _______ _______ _____ _____    ______ ____
ROOT
ATOM      1  N   UNL     1      58.440  35.707  76.628  0.00  0.00    +0.000 N 
ATOM      2  N   UNL     1      57.613  37.707  77.013  0.00  0.00    +0.000 NA
ATOM      3  C   UNL     1      58.450  36.336  75.400  0.00  0.00    +0.000 A 
ATOM      4  C   UNL     1      57.896  37.579  75.670  0.00  0.00    +0.000 A 
ATOM      5  C   UNL     1      57.945  36.566  77.579  0.00  0.00    +0.000 A 
ATOM      6  H   UNL     1      58.780  34.774  76.814  0.00  0.00    +0.000 HD
ENDROOT
BRANCH   4   7
ATOM      7  C   UNL     1      57.604  38.649  74.739  0.00  0.00    +0.000 A 
ATOM      8  C   UNL     1      58.601  39.205  73.934  0.00  0.00    +0.000 A 
ATOM      9  C   UNL     1      58.293  40.201  73.011  0.00  0.00    +0.000 A 
ATOM     10  C   UNL     1      56.976  40.626  72.884  0.00  0.00    +0.000 A 
ATOM     11  F   UNL     1      56.676  41.587  72.000  0.00  0.00    +0.000 F 
ATOM     12  C   UNL     1      55.965  40.073  73.662  0.00  0.00    +0.000 A 
ATOM     13  C   UNL     1      56.283  39.078  74.583  0.00  0.00    +0.000 A 
ENDBRANCH   4   7
BRANCH   3  15
ATOM     14  N   UNL     1      60.053  34.430  71.936  0.00  0.00    +0.000 NA
ATOM     15  C   UNL     1      58.998  35.701  74.205  0.00  0.00    +0.000 A 
ATOM     16  C   UNL     1      60.362  35.763  73.926  0.00  0.00    +0.000 A 
ATOM     17  C   UNL     1      58.169  34.984  73.342  0.00  0.00    +0.000 A 
ATOM     18  C   UNL     1      60.834  35.123  72.792  0.00  0.00    +0.000 A 
ATOM     19  C   UNL     1      58.738  34.380  72.232  0.00  0.00    +0.000 A 
ENDBRANCH   3  15
BRANCH   5  20
ATOM     20  C   UNL     1      57.818  36.236  78.995  0.00  0.00    +0.000 A 
ATOM     21  C   UNL     1      56.665  36.604  79.692  0.00  0.00    +0.000 A 
ATOM     22  C   UNL     1      58.831  35.553  79.675  0.00  0.00    +0.000 A 
ATOM     23  C   UNL     1      56.521  36.299  81.044  0.00  0.00    +0.000 A 
ATOM     24  C   UNL     1      58.697  35.244  81.026  0.00  0.00    +0.000 A 
ATOM     25  C   UNL     1      57.542  35.619  81.700  0.00  0.00    +0.000 A 
BRANCH  25  26
ATOM     26  O   UNL     1      57.431  35.306  83.023  0.00  0.00    +0.000 OA
ATOM     27  H   UNL     1      58.064  34.593  83.221  0.00  0.00    +0.000 HD
ENDBRANCH  25  26
ENDBRANCH   5  20
TORSDOF 4
ENDMDL
MODEL 7
REMARK VINA RESULT:      -6.3      4.432      7.343
REMARK  Name = SB_202190.pdbqt.pdb
REMARK  4 active torsions:
REMARK  status: ('A' for Active; 'I' for Inactive)
REMARK    1  A    between atoms: C_4  and  C_7
REMARK    2  A    between atoms: C_5  and  C_19
REMARK    3  A    between atoms: C_6  and  C_8
REMARK    4  A    between atoms: C_15  and  O_26
REMARK                            x       y       z     vdW  Elec       q    Type
REMARK                         _______ _______ _______ _____ _____    ______ ____
ROOT
ATOM      1  N   UNL     1      59.401  34.791  74.646  0.00  0.00    +0.000 N 
ATOM      2  N   UNL     1      60.437  35.970  76.184  0.00  0.00    +0.000 NA
ATOM      3  C   UNL     1      60.695  34.311  74.648  0.00  0.00    +0.000 A 
ATOM      4  C   UNL     1      61.327  35.094  75.604  0.00  0.00    +0.000 A 
ATOM      5  C   UNL     1      59.276  35.778  75.594  0.00  0.00    +0.000 A 
ATOM      6  H   UNL     1      58.647  34.447  74.068  0.00  0.00    +0.000 HD
ENDROOT
BRANCH   4   7
ATOM      7  C   UNL     1      62.721  35.075  75.994  0.00  0.00    +0.000 A 
ATOM      8  C   UNL     1      63.536  36.198  75.832  0.00  0.00    +0.000 A 
ATOM      9  C   UNL     1      64.863  36.177  76.255  0.00  0.00    +0.000 A 
ATOM     10  C   UNL     1      65.366  35.029  76.856  0.00  0.00    +0.000 A 
ATOM     11  F   UNL     1      66.644  35.004  77.260  0.00  0.00    +0.000 F 
ATOM     12  C   UNL     1      64.568  33.908  77.043  0.00  0.00    +0.000 A 
ATOM     13  C   UNL     1      63.242  33.938  76.616  0.00  0.00    +0.000 A 
ENDBRANCH   4   7
BRANCH   3  15
ATOM     14  N   UNL     1      61.872  31.066  72.141  0.00  0.00    +0.000 NA
ATOM     15  C   UNL     1      61.113  33.197  73.802  0.00  0.00    +0.000 A 
ATOM     16  C   UNL     1      60.779  31.886  74.132  0.00  0.00    +0.000 A 
ATOM     17  C   UNL     1      61.822  33.432  72.623  0.00  0.00    +0.000 A 
ATOM     18  C   UNL     1      61.179  30.868  73.282  0.00  0.00    +0.000 A 
ATOM     19  C   UNL     1      62.178  32.345  71.841  0.00  0.00    +0.000 A 
ENDBRANCH   3  15
BRANCH   5  20
ATOM     20  C   UNL     1      58.034  36.487  75.878  0.00  0.00    +0.000 A 
ATOM     21  C   UNL     1      58.068  37.684  76.600  0.00  0.00    +0.000 A 
ATOM     22  C   UNL     1      56.800  35.996  75.442  0.00  0.00    +0.000 A 
ATOM     23  C   UNL     1      56.895  38.379  76.884  0.00  0.00    +0.000 A 
ATOM     24  C   UNL     1      55.621  36.682  75.721  0.00  0.00    +0.000 A 
ATOM     25  C   UNL     1      55.678  37.870  76.440  0.00  0.00    +0.000 A 
BRANCH  25  26
ATOM     26  O   UNL     1      54.512  38.527  76.701  0.00  0.00    +0.000 OA
ATOM     27  H   UNL     1      54.672  39.156  77.426  0.00  0.00    +0.000 HD
ENDBRANCH  25  26
ENDBRANCH   5  20
TORSDOF 4
ENDMDL
MODEL 8
REMARK VINA RESULT:      -6.2      5.471      8.338
REMARK  Name = SB_202190.pdbqt.pdb
REMARK  4 active torsions:
REMARK  status: ('A' for Active; 'I' for Inactive)
REMARK    1  A    between atoms: C_4  and  C_7
REMARK    2  A    between atoms: C_5  and  C_19
REMARK    3  A    between atoms: C_6  and  C_8
REMARK    4  A    between atoms: C_15  and  O_26
REMARK                            x       y       z     vdW  Elec       q    Type
REMARK                         _______ _______ _______ _____ _____    ______ ____
ROOT
ATOM      1  N   UNL     1      57.749  35.936  74.909  0.00  0.00    +0.000 N 
ATOM      2  N   UNL     1      56.672  37.834  75.171  0.00  0.00    +0.000 NA
ATOM      3  C   UNL     1      57.853  36.573  73.689  0.00  0.00    +0.000 A 
ATOM      4  C   UNL     1      57.139  37.748  73.878  0.00  0.00    +0.000 A 
ATOM      5  C   UNL     1      57.045  36.729  75.783  0.00  0.00    +0.000 A 
ATOM      6  H   UNL     1      58.159  35.042  75.143  0.00  0.00    +0.000 HD
ENDROOT
BRANCH   4   7
ATOM      7  C   UNL     1      56.860  38.789  72.911  0.00  0.00    +0.000 A 
ATOM      8  C   UNL     1      55.687  38.781  72.153  0.00  0.00    +0.000 A 
ATOM      9  C   UNL     1      55.413  39.814  71.260  0.00  0.00    +0.000 A 
ATOM     10  C   UNL     1      56.313  40.866  71.142  0.00  0.00    +0.000 A 
ATOM     11  F   UNL     1      56.055  41.859  70.281  0.00  0.00    +0.000 F 
ATOM     12  C   UNL     1      57.478  40.903  71.900  0.00  0.00    +0.000 A 
ATOM     13  C   UNL     1      57.743  39.865  72.790  0.00  0.00    +0.000 A 
ENDBRANCH   4   7
BRANCH   3  15
ATOM     14  N   UNL     1      60.051  34.880  70.448  0.00  0.00    +0.000 NA
ATOM     15  C   UNL     1      58.616  36.010  72.579  0.00  0.00    +0.000 A 
ATOM     16  C   UNL     1      59.813  35.334  72.808  0.00  0.00    +0.000 A 
ATOM     17  C   UNL     1      58.139  36.103  71.272  0.00  0.00    +0.000 A 
ATOM     18  C   UNL     1      60.487  34.797  71.723  0.00  0.00    +0.000 A 
ATOM     19  C   UNL     1      58.888  35.535  70.255  0.00  0.00    +0.000 A 
ENDBRANCH   3  15
BRANCH   5  20
ATOM     20  C   UNL     1      56.771  36.375  77.171  0.00  0.00    +0.000 A 
ATOM     21  C   UNL     1      55.853  35.361  77.459  0.00  0.00    +0.000 A 
ATOM     22  C   UNL     1      57.409  37.029  78.228  0.00  0.00    +0.000 A 
ATOM     23  C   UNL     1      55.575  35.005  78.776  0.00  0.00    +0.000 A 
ATOM     24  C   UNL     1      57.137  36.681  79.549  0.00  0.00    +0.000 A 
ATOM     25  C   UNL     1      56.222  35.670  79.812  0.00  0.00    +0.000 A 
BRANCH  25  26
ATOM     26  O   UNL     1      55.971  35.345  81.113  0.00  0.00    +0.000 OA
ATOM     27  H   UNL     1      55.057  35.015  81.174  0.00  0.00    +0.000 HD
ENDBRANCH  25  26
ENDBRANCH   5  20
TORSDOF 4
ENDMDL
MODEL 9
REMARK VINA RESULT:      -6.2      4.419      6.213
REMARK  Name = SB_202190.pdbqt.pdb
REMARK  4 active torsions:
REMARK  status: ('A' for Active; 'I' for Inactive)
REMARK    1  A    between atoms: C_4  and  C_7
REMARK    2  A    between atoms: C_5  and  C_19
REMARK    3  A    between atoms: C_6  and  C_8
REMARK    4  A    between atoms: C_15  and  O_26
REMARK                            x       y       z     vdW  Elec       q    Type
REMARK                         _______ _______ _______ _____ _____    ______ ____
ROOT
ATOM      1  N   UNL     1      62.089  34.579  73.916  0.00  0.00    +0.000 N 
ATOM      2  N   UNL     1      60.243  33.834  74.849  0.00  0.00    +0.000 NA
ATOM      3  C   UNL     1      61.809  35.484  74.920  0.00  0.00    +0.000 A 
ATOM      4  C   UNL     1      60.627  35.004  75.466  0.00  0.00    +0.000 A 
ATOM      5  C   UNL     1      61.134  33.590  73.911  0.00  0.00    +0.000 A 
ATOM      6  H   UNL     1      62.891  34.610  73.302  0.00  0.00    +0.000 HD
ENDROOT
BRANCH   4   7
ATOM      7  C   UNL     1      59.831  35.589  76.525  0.00  0.00    +0.000 A 
ATOM      8  C   UNL     1      60.248  35.544  77.857  0.00  0.00    +0.000 A 
ATOM      9  C   UNL     1      59.493  36.152  78.857  0.00  0.00    +0.000 A 
ATOM     10  C   UNL     1      58.323  36.820  78.513  0.00  0.00    +0.000 A 
ATOM     11  F   UNL     1      57.591  37.402  79.472  0.00  0.00    +0.000 F 
ATOM     12  C   UNL     1      57.900  36.892  77.191  0.00  0.00    +0.000 A 
ATOM     13  C   UNL     1      58.662  36.281  76.198  0.00  0.00    +0.000 A 
ENDBRANCH   4   7
BRANCH   3  15
ATOM     14  N   UNL     1      64.354  38.781  75.847  0.00  0.00    +0.000 NA
ATOM     15  C   UNL     1      62.693  36.606  75.224  0.00  0.00    +0.000 A 
ATOM     16  C   UNL     1      62.664  37.765  74.452  0.00  0.00    +0.000 A 
ATOM     17  C   UNL     1      63.554  36.551  76.320  0.00  0.00    +0.000 A 
ATOM     18  C   UNL     1      63.506  38.810  74.797  0.00  0.00    +0.000 A 
ATOM     19  C   UNL     1      64.358  37.649  76.581  0.00  0.00    +0.000 A 
ENDBRANCH   3  15
BRANCH   5  20
ATOM     20  C   UNL     1      61.136  32.456  72.995  0.00  0.00    +0.000 A 
ATOM     21  C   UNL     1      62.345  31.849  72.644  0.00  0.00    +0.000 A 
ATOM     22  C   UNL     1      59.947  31.956  72.455  0.00  0.00    +0.000 A 
ATOM     23  C   UNL     1      62.371  30.764  71.771  0.00  0.00    +0.000 A 
ATOM     24  C   UNL     1      59.963  30.872  71.581  0.00  0.00    +0.000 A 
ATOM     25  C   UNL     1      61.176  30.284  71.246  0.00  0.00    +0.000 A 
BRANCH  25  26
ATOM     26  O   UNL     1      61.168  29.223  70.389  0.00  0.00    +0.000 OA
ATOM     27  H   UNL     1      60.320  29.223  69.912  0.00  0.00    +0.000 HD
ENDBRANCH  25  26
ENDBRANCH   5  20
TORSDOF 4
ENDMDL
