MODEL 1
REMARK VINA RESULT:      -6.5      0.000      0.000
REMARK  Name = Simvastatin.pdbqt.pdb
REMARK  7 active torsions:
REMARK  status: ('A' for Active; 'I' for Inactive)
REMARK    1  A    between atoms: C_2  and  C_13
REMARK    2  A    between atoms: C_3  and  O_24
REMARK    3  A    between atoms: C_14  and  C_15
REMARK    4  A    between atoms: C_20  and  O_22
REMARK    5  A    between atoms: O_24  and  C_25
REMARK    6  A    between atoms: C_25  and  C_27
REMARK    7  A    between atoms: C_27  and  C_30
REMARK                            x       y       z     vdW  Elec       q    Type
REMARK                         _______ _______ _______ _____ _____    ______ ____
ROOT
ATOM      1  C   UNL     1      57.582  36.037  76.976  0.00  0.00    +0.000 A 
ATOM      2  C   UNL     1      57.321  36.588  75.591  0.00  0.00    +0.000 A 
ATOM      3  C   UNL     1      58.862  35.383  77.428  0.00  0.00    +0.000 A 
ATOM      4  C   UNL     1      56.143  37.465  75.354  0.00  0.00    +0.000 A 
ATOM      5  C   UNL     1      56.469  36.241  78.026  0.00  0.00    +0.000 A 
ATOM      6  C   UNL     1      58.831  35.066  78.830  0.00  0.00    +0.000 A 
ATOM      7  C   UNL     1      57.874  35.273  79.873  0.00  0.00    +0.000 A 
ATOM      8  C   UNL     1      56.750  35.891  79.247  0.00  0.00    +0.000 A 
ATOM      9  C   UNL     1      55.325  37.596  76.513  0.00  0.00    +0.000 A 
ATOM     10  C   UNL     1      55.440  37.110  77.603  0.00  0.00    +0.000 A 
ATOM     11  C   UNL     1      55.758  38.113  74.059  0.00  0.00    +0.000 C 
ATOM     12  C   UNL     1      58.331  35.728  81.222  0.00  0.00    +0.000 C 
ENDROOT
BRANCH   2  13
ATOM     13  C   UNL     1      58.076  36.086  74.491  0.00  0.00    +0.000 C 
ATOM     14  C   UNL     1      58.849  35.485  73.310  0.00  0.00    +0.000 C 
BRANCH  14  15
ATOM     15  C   UNL     1      59.514  34.889  72.212  0.00  0.00    +0.000 C 
ATOM     16  O   UNL     1      59.845  35.731  71.088  0.00  0.00    +0.000 OA
ATOM     17  C   UNL     1      60.454  35.189  69.952  0.00  0.00    +0.000 C 
ATOM     18  O   UNL     1      60.762  35.839  68.964  0.00  0.00    +0.000 OA
ATOM     19  C   UNL     1      60.690  33.769  70.032  0.00  0.00    +0.000 C 
ATOM     20  C   UNL     1      60.431  32.798  71.023  0.00  0.00    +0.000 C 
ATOM     21  C   UNL     1      59.828  33.510  72.083  0.00  0.00    +0.000 C 
BRANCH  20  22
ATOM     22  O   UNL     1      60.082  31.521  70.694  0.00  0.00    +0.000 OA
ATOM     23  H   UNL     1      60.510  30.856  71.267  0.00  0.00    +0.000 HD
ENDBRANCH  20  22
ENDBRANCH  14  15
ENDBRANCH   2  13
BRANCH   3  24
ATOM     24  O   UNL     1      60.030  35.942  76.902  0.00  0.00    +0.000 OA
BRANCH  24  25
ATOM     25  C   UNL     1      60.808  35.013  76.237  0.00  0.00    +0.000 C 
ATOM     26  O   UNL     1      60.531  33.813  76.174  0.00  0.00    +0.000 OA
BRANCH  25  27
ATOM     27  C   UNL     1      62.076  35.689  75.608  0.00  0.00    +0.000 C 
ATOM     28  C   UNL     1      62.602  34.807  74.415  0.00  0.00    +0.000 C 
ATOM     29  C   UNL     1      63.232  35.832  76.679  0.00  0.00    +0.000 C 
BRANCH  27  30
ATOM     30  C   UNL     1      61.666  37.042  75.136  0.00  0.00    +0.000 C 
ATOM     31  C   UNL     1      61.200  38.454  74.674  0.00  0.00    +0.000 C 
ENDBRANCH  27  30
ENDBRANCH  25  27
ENDBRANCH  24  25
ENDBRANCH   3  24
TORSDOF 7
ENDMDL
MODEL 2
REMARK VINA RESULT:      -5.9     17.495     19.665
REMARK  Name = Simvastatin.pdbqt.pdb
REMARK  7 active torsions:
REMARK  status: ('A' for Active; 'I' for Inactive)
REMARK    1  A    between atoms: C_2  and  C_13
REMARK    2  A    between atoms: C_3  and  O_24
REMARK    3  A    between atoms: C_14  and  C_15
REMARK    4  A    between atoms: C_20  and  O_22
REMARK    5  A    between atoms: O_24  and  C_25
REMARK    6  A    between atoms: C_25  and  C_27
REMARK    7  A    between atoms: C_27  and  C_30
REMARK                            x       y       z     vdW  Elec       q    Type
REMARK                         _______ _______ _______ _____ _____    ______ ____
ROOT
ATOM      1  C   UNL     1      52.204  20.453  76.814  0.00  0.00    +0.000 A 
ATOM      2  C   UNL     1      51.657  19.042  76.815  0.00  0.00    +0.000 A 
ATOM      3  C   UNL     1      52.559  21.252  78.040  0.00  0.00    +0.000 A 
ATOM      4  C   UNL     1      51.625  18.260  75.549  0.00  0.00    +0.000 A 
ATOM      5  C   UNL     1      52.495  21.085  75.435  0.00  0.00    +0.000 A 
ATOM      6  C   UNL     1      53.154  22.515  77.698  0.00  0.00    +0.000 A 
ATOM      7  C   UNL     1      53.509  23.143  76.462  0.00  0.00    +0.000 A 
ATOM      8  C   UNL     1      53.092  22.240  75.439  0.00  0.00    +0.000 A 
ATOM      9  C   UNL     1      52.055  19.028  74.429  0.00  0.00    +0.000 A 
ATOM     10  C   UNL     1      52.411  20.171  74.362  0.00  0.00    +0.000 A 
ATOM     11  C   UNL     1      51.147  16.850  75.383  0.00  0.00    +0.000 C 
ATOM     12  C   UNL     1      54.809  23.871  76.344  0.00  0.00    +0.000 C 
ENDROOT
BRANCH   2  13
ATOM     13  C   UNL     1      50.981  18.561  77.974  0.00  0.00    +0.000 C 
ATOM     14  C   UNL     1      50.199  18.088  79.206  0.00  0.00    +0.000 C 
BRANCH  14  15
ATOM     15  C   UNL     1      49.423  17.676  80.316  0.00  0.00    +0.000 C 
ATOM     16  O   UNL     1      49.308  16.260  80.567  0.00  0.00    +0.000 OA
ATOM     17  C   UNL     1      48.513  15.789  81.617  0.00  0.00    +0.000 C 
ATOM     18  O   UNL     1      48.368  14.607  81.888  0.00  0.00    +0.000 OA
ATOM     19  C   UNL     1      47.854  16.829  82.367  0.00  0.00    +0.000 C 
ATOM     20  C   UNL     1      47.837  18.236  82.264  0.00  0.00    +0.000 C 
ATOM     21  C   UNL     1      48.683  18.533  81.173  0.00  0.00    +0.000 C 
BRANCH  20  22
ATOM     22  O   UNL     1      46.715  18.957  82.551  0.00  0.00    +0.000 OA
ATOM     23  H   UNL     1      46.047  18.433  83.033  0.00  0.00    +0.000 HD
ENDBRANCH  20  22
ENDBRANCH  14  15
ENDBRANCH   2  13
BRANCH   3  24
ATOM     24  O   UNL     1      53.127  20.515  79.083  0.00  0.00    +0.000 OA
BRANCH  24  25
ATOM     25  C   UNL     1      52.379  20.580  80.245  0.00  0.00    +0.000 C 
ATOM     26  O   UNL     1      51.319  21.203  80.339  0.00  0.00    +0.000 OA
BRANCH  25  27
ATOM     27  C   UNL     1      53.072  19.781  81.403  0.00  0.00    +0.000 C 
ATOM     28  C   UNL     1      54.398  20.519  81.825  0.00  0.00    +0.000 C 
ATOM     29  C   UNL     1      53.435  18.312  80.941  0.00  0.00    +0.000 C 
BRANCH  27  30
ATOM     30  C   UNL     1      52.106  19.721  82.537  0.00  0.00    +0.000 C 
ATOM     31  C   UNL     1      51.094  19.707  83.720  0.00  0.00    +0.000 C 
ENDBRANCH  27  30
ENDBRANCH  25  27
ENDBRANCH  24  25
ENDBRANCH   3  24
TORSDOF 7
ENDMDL
MODEL 3
REMARK VINA RESULT:      -5.8      2.548      6.080
REMARK  Name = Simvastatin.pdbqt.pdb
REMARK  7 active torsions:
REMARK  status: ('A' for Active; 'I' for Inactive)
REMARK    1  A    between atoms: C_2  and  C_13
REMARK    2  A    between atoms: C_3  and  O_24
REMARK    3  A    between atoms: C_14  and  C_15
REMARK    4  A    between atoms: C_20  and  O_22
REMARK    5  A    between atoms: O_24  and  C_25
REMARK    6  A    between atoms: C_25  and  C_27
REMARK    7  A    between atoms: C_27  and  C_30
REMARK                            x       y       z     vdW  Elec       q    Type
REMARK                         _______ _______ _______ _____ _____    ______ ____
ROOT
ATOM      1  C   UNL     1      61.292  34.439  74.264  0.00  0.00    +0.000 A 
ATOM      2  C   UNL     1      60.162  34.184  73.290  0.00  0.00    +0.000 A 
ATOM      3  C   UNL     1      61.288  35.483  75.350  0.00  0.00    +0.000 A 
ATOM      4  C   UNL     1      60.163  32.946  72.465  0.00  0.00    +0.000 A 
ATOM      5  C   UNL     1      62.510  33.495  74.179  0.00  0.00    +0.000 A 
ATOM      6  C   UNL     1      62.465  35.399  76.172  0.00  0.00    +0.000 A 
ATOM      7  C   UNL     1      63.598  34.526  76.198  0.00  0.00    +0.000 A 
ATOM      8  C   UNL     1      63.415  33.628  75.103  0.00  0.00    +0.000 A 
ATOM      9  C   UNL     1      61.345  32.174  72.651  0.00  0.00    +0.000 A 
ATOM     10  C   UNL     1      62.306  32.377  73.340  0.00  0.00    +0.000 A 
ATOM     11  C   UNL     1      59.113  32.528  71.481  0.00  0.00    +0.000 C 
ATOM     12  C   UNL     1      64.123  34.025  77.505  0.00  0.00    +0.000 C 
ENDROOT
BRANCH   2  13
ATOM     13  C   UNL     1      59.231  35.229  73.018  0.00  0.00    +0.000 C 
ATOM     14  C   UNL     1      58.280  36.401  72.747  0.00  0.00    +0.000 C 
BRANCH  14  15
ATOM     15  C   UNL     1      57.453  37.521  72.495  0.00  0.00    +0.000 C 
ATOM     16  O   UNL     1      56.912  38.228  73.631  0.00  0.00    +0.000 OA
ATOM     17  C   UNL     1      56.046  39.310  73.445  0.00  0.00    +0.000 C 
ATOM     18  O   UNL     1      55.551  39.954  74.358  0.00  0.00    +0.000 OA
ATOM     19  C   UNL     1      55.769  39.611  72.063  0.00  0.00    +0.000 C 
ATOM     20  C   UNL     1      56.187  39.037  70.843  0.00  0.00    +0.000 C 
ATOM     21  C   UNL     1      57.046  37.978  71.214  0.00  0.00    +0.000 C 
BRANCH  20  22
ATOM     22  O   UNL     1      55.355  38.975  69.764  0.00  0.00    +0.000 OA
ATOM     23  H   UNL     1      55.542  39.674  69.107  0.00  0.00    +0.000 HD
ENDBRANCH  20  22
ENDBRANCH  14  15
ENDBRANCH   2  13
BRANCH   3  24
ATOM     24  O   UNL     1      60.056  35.677  75.980  0.00  0.00    +0.000 OA
BRANCH  24  25
ATOM     25  C   UNL     1      59.675  37.007  75.998  0.00  0.00    +0.000 C 
ATOM     26  O   UNL     1      60.255  37.890  75.362  0.00  0.00    +0.000 OA
BRANCH  25  27
ATOM     27  C   UNL     1      58.441  37.224  76.941  0.00  0.00    +0.000 C 
ATOM     28  C   UNL     1      58.061  38.753  76.960  0.00  0.00    +0.000 C 
ATOM     29  C   UNL     1      58.768  36.765  78.419  0.00  0.00    +0.000 C 
BRANCH  27  30
ATOM     30  C   UNL     1      57.322  36.400  76.401  0.00  0.00    +0.000 C 
ATOM     31  C   UNL     1      56.122  35.574  75.852  0.00  0.00    +0.000 C 
ENDBRANCH  27  30
ENDBRANCH  25  27
ENDBRANCH  24  25
ENDBRANCH   3  24
TORSDOF 7
ENDMDL
MODEL 4
REMARK VINA RESULT:      -5.7     43.408     46.014
REMARK  Name = Simvastatin.pdbqt.pdb
REMARK  7 active torsions:
REMARK  status: ('A' for Active; 'I' for Inactive)
REMARK    1  A    between atoms: C_2  and  C_13
REMARK    2  A    between atoms: C_3  and  O_24
REMARK    3  A    between atoms: C_14  and  C_15
REMARK    4  A    between atoms: C_20  and  O_22
REMARK    5  A    between atoms: O_24  and  C_25
REMARK    6  A    between atoms: C_25  and  C_27
REMARK    7  A    between atoms: C_27  and  C_30
REMARK                            x       y       z     vdW  Elec       q    Type
REMARK                         _______ _______ _______ _____ _____    ______ ____
ROOT
ATOM      1  C   UNL     1      18.831  18.159  90.226  0.00  0.00    +0.000 A 
ATOM      2  C   UNL     1      18.083  18.620  88.993  0.00  0.00    +0.000 A 
ATOM      3  C   UNL     1      19.797  17.005  90.279  0.00  0.00    +0.000 A 
ATOM      4  C   UNL     1      17.392  19.938  88.997  0.00  0.00    +0.000 A 
ATOM      5  C   UNL     1      18.640  18.997  91.508  0.00  0.00    +0.000 A 
ATOM      6  C   UNL     1      20.420  16.892  91.570  0.00  0.00    +0.000 A 
ATOM      7  C   UNL     1      20.345  17.655  92.778  0.00  0.00    +0.000 A 
ATOM      8  C   UNL     1      19.386  18.682  92.525  0.00  0.00    +0.000 A 
ATOM      9  C   UNL     1      17.457  20.578  90.268  0.00  0.00    +0.000 A 
ATOM     10  C   UNL     1      17.957  20.214  91.296  0.00  0.00    +0.000 A 
ATOM     11  C   UNL     1      16.638  20.554  87.858  0.00  0.00    +0.000 C 
ATOM     12  C   UNL     1      21.591  17.957  93.546  0.00  0.00    +0.000 C 
ENDROOT
BRANCH   2  13
ATOM     13  C   UNL     1      17.868  17.699  87.927  0.00  0.00    +0.000 C 
ATOM     14  C   UNL     1      17.674  16.658  86.818  0.00  0.00    +0.000 C 
BRANCH  14  15
ATOM     15  C   UNL     1      17.509  15.651  85.837  0.00  0.00    +0.000 C 
ATOM     16  O   UNL     1      16.420  14.719  86.005  0.00  0.00    +0.000 OA
ATOM     17  C   UNL     1      16.238  13.670  85.097  0.00  0.00    +0.000 C 
ATOM     18  O   UNL     1      15.341  12.845  85.176  0.00  0.00    +0.000 OA
ATOM     19  C   UNL     1      17.218  13.631  84.041  0.00  0.00    +0.000 C 
ATOM     20  C   UNL     1      18.337  14.432  83.725  0.00  0.00    +0.000 C 
ATOM     21  C   UNL     1      18.366  15.428  84.727  0.00  0.00    +0.000 C 
BRANCH  20  22
ATOM     22  O   UNL     1      19.465  13.895  83.179  0.00  0.00    +0.000 OA
ATOM     23  H   UNL     1      20.256  14.046  83.731  0.00  0.00    +0.000 HD
ENDBRANCH  20  22
ENDBRANCH  14  15
ENDBRANCH   2  13
BRANCH   3  24
ATOM     24  O   UNL     1      20.598  16.850  89.143  0.00  0.00    +0.000 OA
BRANCH  24  25
ATOM     25  C   UNL     1      21.926  17.147  89.388  0.00  0.00    +0.000 C 
ATOM     26  O   UNL     1      22.673  16.427  90.054  0.00  0.00    +0.000 OA
BRANCH  25  27
ATOM     27  C   UNL     1      22.326  18.514  88.731  0.00  0.00    +0.000 C 
ATOM     28  C   UNL     1      21.433  18.762  87.458  0.00  0.00    +0.000 C 
ATOM     29  C   UNL     1      23.845  18.508  88.290  0.00  0.00    +0.000 C 
BRANCH  27  30
ATOM     30  C   UNL     1      22.110  19.576  89.754  0.00  0.00    +0.000 C 
ATOM     31  C   UNL     1      21.916  20.663  90.852  0.00  0.00    +0.000 C 
ENDBRANCH  27  30
ENDBRANCH  25  27
ENDBRANCH  24  25
ENDBRANCH   3  24
TORSDOF 7
ENDMDL
MODEL 5
REMARK VINA RESULT:      -5.5      3.457      7.461
REMARK  Name = Simvastatin.pdbqt.pdb
REMARK  7 active torsions:
REMARK  status: ('A' for Active; 'I' for Inactive)
REMARK    1  A    between atoms: C_2  and  C_13
REMARK    2  A    between atoms: C_3  and  O_24
REMARK    3  A    between atoms: C_14  and  C_15
REMARK    4  A    between atoms: C_20  and  O_22
REMARK    5  A    between atoms: O_24  and  C_25
REMARK    6  A    between atoms: C_25  and  C_27
REMARK    7  A    between atoms: C_27  and  C_30
REMARK                            x       y       z     vdW  Elec       q    Type
REMARK                         _______ _______ _______ _____ _____    ______ ____
ROOT
ATOM      1  C   UNL     1      59.902  33.115  72.440  0.00  0.00    +0.000 A 
ATOM      2  C   UNL     1      60.053  34.290  73.382  0.00  0.00    +0.000 A 
ATOM      3  C   UNL     1      59.422  33.196  71.014  0.00  0.00    +0.000 A 
ATOM      4  C   UNL     1      60.807  34.126  74.653  0.00  0.00    +0.000 A 
ATOM      5  C   UNL     1      60.357  31.737  72.968  0.00  0.00    +0.000 A 
ATOM      6  C   UNL     1      59.494  31.919  70.356  0.00  0.00    +0.000 A 
ATOM      7  C   UNL     1      59.954  30.623  70.751  0.00  0.00    +0.000 A 
ATOM      8  C   UNL     1      60.355  30.757  72.114  0.00  0.00    +0.000 A 
ATOM      9  C   UNL     1      61.229  32.781  74.862  0.00  0.00    +0.000 A 
ATOM     10  C   UNL     1      61.057  31.801  74.193  0.00  0.00    +0.000 A 
ATOM     11  C   UNL     1      61.074  35.188  75.676  0.00  0.00    +0.000 C 
ATOM     12  C   UNL     1      60.765  29.800  69.802  0.00  0.00    +0.000 C 
ENDROOT
BRANCH   2  13
ATOM     13  C   UNL     1      59.290  35.471  73.146  0.00  0.00    +0.000 C 
ATOM     14  C   UNL     1      58.429  36.725  72.950  0.00  0.00    +0.000 C 
BRANCH  14  15
ATOM     15  C   UNL     1      57.617  37.878  72.832  0.00  0.00    +0.000 C 
ATOM     16  O   UNL     1      56.287  37.713  72.297  0.00  0.00    +0.000 OA
ATOM     17  C   UNL     1      55.457  38.822  72.107  0.00  0.00    +0.000 C 
ATOM     18  O   UNL     1      54.322  38.758  71.659  0.00  0.00    +0.000 OA
ATOM     19  C   UNL     1      56.059  40.077  72.480  0.00  0.00    +0.000 C 
ATOM     20  C   UNL     1      57.323  40.430  72.999  0.00  0.00    +0.000 C 
ATOM     21  C   UNL     1      58.018  39.207  73.130  0.00  0.00    +0.000 C 
BRANCH  20  22
ATOM     22  O   UNL     1      57.935  41.598  72.649  0.00  0.00    +0.000 OA
ATOM     23  H   UNL     1      58.895  41.585  72.827  0.00  0.00    +0.000 HD
ENDBRANCH  20  22
ENDBRANCH  14  15
ENDBRANCH   2  13
BRANCH   3  24
ATOM     24  O   UNL     1      59.844  34.327  70.310  0.00  0.00    +0.000 OA
BRANCH  24  25
ATOM     25  C   UNL     1      60.006  34.079  68.959  0.00  0.00    +0.000 C 
ATOM     26  O   UNL     1      59.071  33.829  68.196  0.00  0.00    +0.000 OA
BRANCH  25  27
ATOM     27  C   UNL     1      61.520  34.140  68.556  0.00  0.00    +0.000 C 
ATOM     28  C   UNL     1      61.802  35.483  67.783  0.00  0.00    +0.000 C 
ATOM     29  C   UNL     1      61.906  32.926  67.617  0.00  0.00    +0.000 C 
BRANCH  27  30
ATOM     30  C   UNL     1      62.316  34.066  69.813  0.00  0.00    +0.000 C 
ATOM     31  C   UNL     1      63.125  33.947  71.139  0.00  0.00    +0.000 C 
ENDBRANCH  27  30
ENDBRANCH  25  27
ENDBRANCH  24  25
ENDBRANCH   3  24
TORSDOF 7
ENDMDL
MODEL 6
REMARK VINA RESULT:      -5.5     60.145     62.965
REMARK  Name = Simvastatin.pdbqt.pdb
REMARK  7 active torsions:
REMARK  status: ('A' for Active; 'I' for Inactive)
REMARK    1  A    between atoms: C_2  and  C_13
REMARK    2  A    between atoms: C_3  and  O_24
REMARK    3  A    between atoms: C_14  and  C_15
REMARK    4  A    between atoms: C_20  and  O_22
REMARK    5  A    between atoms: O_24  and  C_25
REMARK    6  A    between atoms: C_25  and  C_27
REMARK    7  A    between atoms: C_27  and  C_30
REMARK                            x       y       z     vdW  Elec       q    Type
REMARK                         _______ _______ _______ _____ _____    ______ ____
ROOT
ATOM      1  C   UNL     1       4.477  14.532  95.837  0.00  0.00    +0.000 A 
ATOM      2  C   UNL     1       3.119  14.045  95.379  0.00  0.00    +0.000 A 
ATOM      3  C   UNL     1       4.969  15.952  95.749  0.00  0.00    +0.000 A 
ATOM      4  C   UNL     1       2.642  12.695  95.784  0.00  0.00    +0.000 A 
ATOM      5  C   UNL     1       5.393  13.494  96.520  0.00  0.00    +0.000 A 
ATOM      6  C   UNL     1       6.259  16.107  96.366  0.00  0.00    +0.000 A 
ATOM      7  C   UNL     1       7.137  15.220  97.066  0.00  0.00    +0.000 A 
ATOM      8  C   UNL     1       6.499  13.944  97.034  0.00  0.00    +0.000 A 
ATOM      9  C   UNL     1       3.629  11.970  96.512  0.00  0.00    +0.000 A 
ATOM     10  C   UNL     1       4.747  12.275  96.821  0.00  0.00    +0.000 A 
ATOM     11  C   UNL     1       1.320  12.076  95.445  0.00  0.00    +0.000 C 
ATOM     12  C   UNL     1       7.833  15.686  98.304  0.00  0.00    +0.000 C 
ENDROOT
BRANCH   2  13
ATOM     13  C   UNL     1       2.410  14.792  94.393  0.00  0.00    +0.000 C 
ATOM     14  C   UNL     1       1.705  15.641  93.328  0.00  0.00    +0.000 C 
BRANCH  14  15
ATOM     15  C   UNL     1       1.111  16.449  92.329  0.00  0.00    +0.000 C 
ATOM     16  O   UNL     1       1.208  16.006  90.959  0.00  0.00    +0.000 OA
ATOM     17  C   UNL     1       0.688  16.788  89.923  0.00  0.00    +0.000 C 
ATOM     18  O   UNL     1       0.734  16.477  88.742  0.00  0.00    +0.000 OA
ATOM     19  C   UNL     1       0.086  18.021  90.363  0.00  0.00    +0.000 C 
ATOM     20  C   UNL     1      -0.089  18.616  91.631  0.00  0.00    +0.000 C 
ATOM     21  C   UNL     1       0.482  17.703  92.545  0.00  0.00    +0.000 C 
BRANCH  20  22
ATOM     22  O   UNL     1      -0.027  19.969  91.796  0.00  0.00    +0.000 OA
ATOM     23  H   UNL     1      -0.387  20.456  91.030  0.00  0.00    +0.000 HD
ENDBRANCH  20  22
ENDBRANCH  14  15
ENDBRANCH   2  13
BRANCH   3  24
ATOM     24  O   UNL     1       4.000  16.931  95.990  0.00  0.00    +0.000 OA
BRANCH  24  25
ATOM     25  C   UNL     1       4.186  17.573  97.200  0.00  0.00    +0.000 C 
ATOM     26  O   UNL     1       5.103  18.368  97.416  0.00  0.00    +0.000 OA
BRANCH  25  27
ATOM     27  C   UNL     1       3.098  17.133  98.241  0.00  0.00    +0.000 C 
ATOM     28  C   UNL     1       1.787  16.710  97.478  0.00  0.00    +0.000 C 
ATOM     29  C   UNL     1       2.748  18.317  99.230  0.00  0.00    +0.000 C 
BRANCH  27  30
ATOM     30  C   UNL     1       3.662  15.990  99.013  0.00  0.00    +0.000 C 
ATOM     31  C   UNL     1       4.226  14.766  99.792  0.00  0.00    +0.000 C 
ENDBRANCH  27  30
ENDBRANCH  25  27
ENDBRANCH  24  25
ENDBRANCH   3  24
TORSDOF 7
ENDMDL
MODEL 7
REMARK VINA RESULT:      -5.2     44.186     46.486
REMARK  Name = Simvastatin.pdbqt.pdb
REMARK  7 active torsions:
REMARK  status: ('A' for Active; 'I' for Inactive)
REMARK    1  A    between atoms: C_2  and  C_13
REMARK    2  A    between atoms: C_3  and  O_24
REMARK    3  A    between atoms: C_14  and  C_15
REMARK    4  A    between atoms: C_20  and  O_22
REMARK    5  A    between atoms: O_24  and  C_25
REMARK    6  A    between atoms: C_25  and  C_27
REMARK    7  A    between atoms: C_27  and  C_30
REMARK                            x       y       z     vdW  Elec       q    Type
REMARK                         _______ _______ _______ _____ _____    ______ ____
ROOT
ATOM      1  C   UNL     1      24.337   6.475  86.880  0.00  0.00    +0.000 A 
ATOM      2  C   UNL     1      22.911   6.379  86.381  0.00  0.00    +0.000 A 
ATOM      3  C   UNL     1      25.061   7.753  87.211  0.00  0.00    +0.000 A 
ATOM      4  C   UNL     1      22.218   5.063  86.372  0.00  0.00    +0.000 A 
ATOM      5  C   UNL     1      25.073   5.143  87.142  0.00  0.00    +0.000 A 
ATOM      6  C   UNL     1      26.365   7.498  87.760  0.00  0.00    +0.000 A 
ATOM      7  C   UNL     1      27.089   6.308  88.088  0.00  0.00    +0.000 A 
ATOM      8  C   UNL     1      26.245   5.225  87.698  0.00  0.00    +0.000 A 
ATOM      9  C   UNL     1      23.076   3.997  86.770  0.00  0.00    +0.000 A 
ATOM     10  C   UNL     1      24.233   4.009  87.085  0.00  0.00    +0.000 A 
ATOM     11  C   UNL     1      20.807   4.800  85.942  0.00  0.00    +0.000 C 
ATOM     12  C   UNL     1      27.868   6.238  89.362  0.00  0.00    +0.000 C 
ENDROOT
BRANCH   2  13
ATOM     13  C   UNL     1      22.328   7.504  85.728  0.00  0.00    +0.000 C 
ATOM     14  C   UNL     1      21.673   8.734  85.089  0.00  0.00    +0.000 C 
BRANCH  14  15
ATOM     15  C   UNL     1      21.064   9.896  84.558  0.00  0.00    +0.000 C 
ATOM     16  O   UNL     1      21.650  11.173  84.887  0.00  0.00    +0.000 OA
ATOM     17  C   UNL     1      21.062  12.360  84.436  0.00  0.00    +0.000 C 
ATOM     18  O   UNL     1      21.501  13.474  84.676  0.00  0.00    +0.000 OA
ATOM     19  C   UNL     1      19.867  12.164  83.655  0.00  0.00    +0.000 C 
ATOM     20  C   UNL     1      19.152  11.017  83.247  0.00  0.00    +0.000 C 
ATOM     21  C   UNL     1      19.877   9.927  83.779  0.00  0.00    +0.000 C 
BRANCH  20  22
ATOM     22  O   UNL     1      17.792  11.025  83.146  0.00  0.00    +0.000 OA
ATOM     23  H   UNL     1      17.366  10.420  83.783  0.00  0.00    +0.000 HD
ENDBRANCH  20  22
ENDBRANCH  14  15
ENDBRANCH   2  13
BRANCH   3  24
ATOM     24  O   UNL     1      24.274   8.742  87.809  0.00  0.00    +0.000 OA
BRANCH  24  25
ATOM     25  C   UNL     1      24.621  10.015  87.396  0.00  0.00    +0.000 C 
ATOM     26  O   UNL     1      24.503  10.410  86.234  0.00  0.00    +0.000 OA
BRANCH  25  27
ATOM     27  C   UNL     1      25.195  10.855  88.590  0.00  0.00    +0.000 C 
ATOM     28  C   UNL     1      24.655  10.269  89.948  0.00  0.00    +0.000 C 
ATOM     29  C   UNL     1      24.754  12.370  88.481  0.00  0.00    +0.000 C 
BRANCH  27  30
ATOM     30  C   UNL     1      26.681  10.764  88.519  0.00  0.00    +0.000 C 
ATOM     31  C   UNL     1      28.233  10.707  88.414  0.00  0.00    +0.000 C 
ENDBRANCH  27  30
ENDBRANCH  25  27
ENDBRANCH  24  25
ENDBRANCH   3  24
TORSDOF 7
ENDMDL
MODEL 8
REMARK VINA RESULT:      -5.2     17.111     19.574
REMARK  Name = Simvastatin.pdbqt.pdb
REMARK  7 active torsions:
REMARK  status: ('A' for Active; 'I' for Inactive)
REMARK    1  A    between atoms: C_2  and  C_13
REMARK    2  A    between atoms: C_3  and  O_24
REMARK    3  A    between atoms: C_14  and  C_15
REMARK    4  A    between atoms: C_20  and  O_22
REMARK    5  A    between atoms: O_24  and  C_25
REMARK    6  A    between atoms: C_25  and  C_27
REMARK    7  A    between atoms: C_27  and  C_30
REMARK                            x       y       z     vdW  Elec       q    Type
REMARK                         _______ _______ _______ _____ _____    ______ ____
ROOT
ATOM      1  C   UNL     1      52.618  19.061  77.000  0.00  0.00    +0.000 A 
ATOM      2  C   UNL     1      52.854  20.359  77.743  0.00  0.00    +0.000 A 
ATOM      3  C   UNL     1      52.245  17.748  77.635  0.00  0.00    +0.000 A 
ATOM      4  C   UNL     1      52.925  21.639  76.989  0.00  0.00    +0.000 A 
ATOM      5  C   UNL     1      52.691  19.119  75.459  0.00  0.00    +0.000 A 
ATOM      6  C   UNL     1      51.988  16.734  76.649  0.00  0.00    +0.000 A 
ATOM      7  C   UNL     1      51.975  16.721  75.218  0.00  0.00    +0.000 A 
ATOM      8  C   UNL     1      52.354  18.039  74.819  0.00  0.00    +0.000 A 
ATOM      9  C   UNL     1      52.850  21.442  75.580  0.00  0.00    +0.000 A 
ATOM     10  C   UNL     1      52.755  20.432  74.942  0.00  0.00    +0.000 A 
ATOM     11  C   UNL     1      53.121  23.007  77.570  0.00  0.00    +0.000 C 
ATOM     12  C   UNL     1      50.889  15.995  74.490  0.00  0.00    +0.000 C 
ENDROOT
BRANCH   2  13
ATOM     13  C   UNL     1      53.219  20.313  79.120  0.00  0.00    +0.000 C 
ATOM     14  C   UNL     1      53.640  20.332  80.595  0.00  0.00    +0.000 C 
BRANCH  14  15
ATOM     15  C   UNL     1      54.031  20.413  81.952  0.00  0.00    +0.000 C 
ATOM     16  O   UNL     1      55.273  21.082  82.256  0.00  0.00    +0.000 OA
ATOM     17  C   UNL     1      55.739  21.148  83.573  0.00  0.00    +0.000 C 
ATOM     18  O   UNL     1      56.779  21.697  83.904  0.00  0.00    +0.000 OA
ATOM     19  C   UNL     1      54.882  20.497  84.533  0.00  0.00    +0.000 C 
ATOM     20  C   UNL     1      53.661  19.797  84.424  0.00  0.00    +0.000 C 
ATOM     21  C   UNL     1      53.342  19.831  83.049  0.00  0.00    +0.000 C 
BRANCH  20  22
ATOM     22  O   UNL     1      53.381  18.729  85.225  0.00  0.00    +0.000 OA
ATOM     23  H   UNL     1      53.309  17.894  84.724  0.00  0.00    +0.000 HD
ENDBRANCH  20  22
ENDBRANCH  14  15
ENDBRANCH   2  13
BRANCH   3  24
ATOM     24  O   UNL     1      51.376  17.843  78.726  0.00  0.00    +0.000 OA
BRANCH  24  25
ATOM     25  C   UNL     1      51.860  17.192  79.846  0.00  0.00    +0.000 C 
ATOM     26  O   UNL     1      52.965  16.648  79.893  0.00  0.00    +0.000 OA
BRANCH  25  27
ATOM     27  C   UNL     1      50.812  17.228  81.012  0.00  0.00    +0.000 C 
ATOM     28  C   UNL     1      51.499  16.752  82.347  0.00  0.00    +0.000 C 
ATOM     29  C   UNL     1      49.589  16.272  80.705  0.00  0.00    +0.000 C 
BRANCH  27  30
ATOM     30  C   UNL     1      50.327  18.632  81.128  0.00  0.00    +0.000 C 
ATOM     31  C   UNL     1      49.777  20.082  81.261  0.00  0.00    +0.000 C 
ENDBRANCH  27  30
ENDBRANCH  25  27
ENDBRANCH  24  25
ENDBRANCH   3  24
TORSDOF 7
ENDMDL
MODEL 9
REMARK VINA RESULT:      -5.2     45.017     47.486
REMARK  Name = Simvastatin.pdbqt.pdb
REMARK  7 active torsions:
REMARK  status: ('A' for Active; 'I' for Inactive)
REMARK    1  A    between atoms: C_2  and  C_13
REMARK    2  A    between atoms: C_3  and  O_24
REMARK    3  A    between atoms: C_14  and  C_15
REMARK    4  A    between atoms: C_20  and  O_22
REMARK    5  A    between atoms: O_24  and  C_25
REMARK    6  A    between atoms: C_25  and  C_27
REMARK    7  A    between atoms: C_27  and  C_30
REMARK                            x       y       z     vdW  Elec       q    Type
REMARK                         _______ _______ _______ _____ _____    ______ ____
ROOT
ATOM      1  C   UNL     1      22.553   5.570  85.311  0.00  0.00    +0.000 A 
ATOM      2  C   UNL     1      23.892   5.923  85.922  0.00  0.00    +0.000 A 
ATOM      3  C   UNL     1      21.471   6.554  84.954  0.00  0.00    +0.000 A 
ATOM      4  C   UNL     1      24.980   4.909  85.956  0.00  0.00    +0.000 A 
ATOM      5  C   UNL     1      22.320   4.085  84.957  0.00  0.00    +0.000 A 
ATOM      6  C   UNL     1      20.366   5.913  84.294  0.00  0.00    +0.000 A 
ATOM      7  C   UNL     1      20.102   4.569  83.879  0.00  0.00    +0.000 A 
ATOM      8  C   UNL     1      21.229   3.806  84.309  0.00  0.00    +0.000 A 
ATOM      9  C   UNL     1      24.553   3.643  85.463  0.00  0.00    +0.000 A 
ATOM     10  C   UNL     1      23.483   3.289  85.054  0.00  0.00    +0.000 A 
ATOM     11  C   UNL     1      26.365   5.103  86.493  0.00  0.00    +0.000 C 
ATOM     12  C   UNL     1      19.480   4.311  82.543  0.00  0.00    +0.000 C 
ENDROOT
BRANCH   2  13
ATOM     13  C   UNL     1      24.023   7.143  86.649  0.00  0.00    +0.000 C 
ATOM     14  C   UNL     1      24.163   8.491  87.367  0.00  0.00    +0.000 C 
BRANCH  14  15
ATOM     15  C   UNL     1      24.269   9.763  87.977  0.00  0.00    +0.000 C 
ATOM     16  O   UNL     1      24.149  10.927  87.132  0.00  0.00    +0.000 OA
ATOM     17  C   UNL     1      24.298  12.210  87.668  0.00  0.00    +0.000 C 
ATOM     18  O   UNL     1      24.210  13.239  87.015  0.00  0.00    +0.000 OA
ATOM     19  C   UNL     1      24.579  12.227  89.082  0.00  0.00    +0.000 C 
ATOM     20  C   UNL     1      24.740  11.214  90.051  0.00  0.00    +0.000 C 
ATOM     21  C   UNL     1      24.556  10.003  89.347  0.00  0.00    +0.000 C 
BRANCH  20  22
ATOM     22  O   UNL     1      25.628  11.347  91.079  0.00  0.00    +0.000 OA
ATOM     23  H   UNL     1      25.350  10.860  91.878  0.00  0.00    +0.000 HD
ENDBRANCH  20  22
ENDBRANCH  14  15
ENDBRANCH   2  13
BRANCH   3  24
ATOM     24  O   UNL     1      21.924   7.775  84.447  0.00  0.00    +0.000 OA
BRANCH  24  25
ATOM     25  C   UNL     1      21.166   8.845  84.886  0.00  0.00    +0.000 C 
ATOM     26  O   UNL     1      20.997   9.117  86.076  0.00  0.00    +0.000 OA
BRANCH  25  27
ATOM     27  C   UNL     1      20.547   9.628  83.676  0.00  0.00    +0.000 C 
ATOM     28  C   UNL     1      19.016   9.278  83.555  0.00  0.00    +0.000 C 
ATOM     29  C   UNL     1      21.264   9.236  82.321  0.00  0.00    +0.000 C 
BRANCH  27  30
ATOM     30  C   UNL     1      20.747  11.080  83.941  0.00  0.00    +0.000 C 
ATOM     31  C   UNL     1      21.003  12.590  84.223  0.00  0.00    +0.000 C 
ENDBRANCH  27  30
ENDBRANCH  25  27
ENDBRANCH  24  25
ENDBRANCH   3  24
TORSDOF 7
ENDMDL
