MODEL 1
REMARK VINA RESULT:      -7.0      0.000      0.000
REMARK  Name = Staurosporine.pdbqt.pdb
REMARK  2 active torsions:
REMARK  status: ('A' for Active; 'I' for Inactive)
REMARK    1  A    between atoms: C_3  and  O_11
REMARK    2  A    between atoms: C_5  and  N_8
REMARK                            x       y       z     vdW  Elec       q    Type
REMARK                         _______ _______ _______ _____ _____    ______ ____
ROOT
ATOM      1  O   UNL     1      42.906  27.180  83.920  0.00  0.00    +0.000 OA
ATOM      2  C   UNL     1      44.106  27.139  84.740  0.00  0.00    +0.000 C 
ATOM      3  C   UNL     1      43.899  27.531  86.216  0.00  0.00    +0.000 C 
ATOM      4  C   UNL     1      41.830  26.519  84.490  0.00  0.00    +0.000 C 
ATOM      5  C   UNL     1      42.562  27.411  86.791  0.00  0.00    +0.000 C 
ATOM      6  C   UNL     1      41.654  26.939  85.825  0.00  0.00    +0.000 C 
ATOM      7  C   UNL     1      45.014  28.242  84.099  0.00  0.00    +0.000 C 
ATOM      8  N   UNL     1      44.696  25.789  84.590  0.00  0.00    +0.000 N 
ATOM      9  C   UNL     1      44.136  24.584  84.247  0.00  0.00    +0.000 A 
ATOM     10  C   UNL     1      42.782  24.290  84.061  0.00  0.00    +0.000 A 
ATOM     11  C   UNL     1      44.968  23.463  84.123  0.00  0.00    +0.000 A 
ATOM     12  N   UNL     1      41.753  25.165  84.235  0.00  0.00    +0.000 N 
ATOM     13  C   UNL     1      42.493  22.939  83.823  0.00  0.00    +0.000 A 
ATOM     14  C   UNL     1      40.658  24.280  84.190  0.00  0.00    +0.000 A 
ATOM     15  C   UNL     1      41.083  22.931  83.901  0.00  0.00    +0.000 A 
ATOM     16  C   UNL     1      39.297  24.583  84.356  0.00  0.00    +0.000 A 
ATOM     17  C   UNL     1      40.092  21.933  83.806  0.00  0.00    +0.000 A 
ATOM     18  C   UNL     1      38.746  22.254  83.974  0.00  0.00    +0.000 A 
ATOM     19  C   UNL     1      38.359  23.558  84.246  0.00  0.00    +0.000 A 
ATOM     20  C   UNL     1      43.321  21.808  83.686  0.00  0.00    +0.000 A 
ATOM     21  C   UNL     1      44.701  22.115  83.847  0.00  0.00    +0.000 A 
ATOM     22  C   UNL     1      43.142  20.392  83.463  0.00  0.00    +0.000 C 
ATOM     23  C   UNL     1      45.444  20.833  83.719  0.00  0.00    +0.000 C 
ATOM     24  N   UNL     1      44.464  19.928  83.504  0.00  0.00    +0.000 N 
ATOM     25  H   UNL     1      44.657  18.946  83.371  0.00  0.00    +0.000 HD
ATOM     26  O   UNL     1      42.167  19.678  83.276  0.00  0.00    +0.000 OA
ATOM     27  C   UNL     1      46.229  23.987  84.451  0.00  0.00    +0.000 A 
ATOM     28  C   UNL     1      46.051  25.388  84.748  0.00  0.00    +0.000 A 
ATOM     29  C   UNL     1      47.522  23.435  84.559  0.00  0.00    +0.000 A 
ATOM     30  C   UNL     1      47.160  26.164  85.129  0.00  0.00    +0.000 A 
ATOM     31  C   UNL     1      48.421  25.573  85.219  0.00  0.00    +0.000 A 
ATOM     32  C   UNL     1      48.602  24.229  84.937  0.00  0.00    +0.000 A 
ENDROOT
BRANCH   5  33
ATOM     33  N   UNL     1      42.275  27.539  88.178  0.00  0.00    +0.000 N 
ATOM     34  C   UNL     1      41.828  28.850  88.594  0.00  0.00    +0.000 C 
ATOM     35  H   UNL     1      42.943  27.078  88.800  0.00  0.00    +0.000 HD
ENDBRANCH   5  33
BRANCH   3  36
ATOM     36  O   UNL     1      45.016  27.447  87.020  0.00  0.00    +0.000 OA
ATOM     37  C   UNL     1      45.430  28.708  87.473  0.00  0.00    +0.000 C 
ENDBRANCH   3  36
TORSDOF 2
ENDMDL
MODEL 2
REMARK VINA RESULT:      -6.6     23.161     27.335
REMARK  Name = Staurosporine.pdbqt.pdb
REMARK  2 active torsions:
REMARK  status: ('A' for Active; 'I' for Inactive)
REMARK    1  A    between atoms: C_3  and  O_11
REMARK    2  A    between atoms: C_5  and  N_8
REMARK                            x       y       z     vdW  Elec       q    Type
REMARK                         _______ _______ _______ _____ _____    ______ ____
ROOT
ATOM      1  O   UNL     1      20.746   6.144  86.115  0.00  0.00    +0.000 OA
ATOM      2  C   UNL     1      22.087   5.584  86.078  0.00  0.00    +0.000 C 
ATOM      3  C   UNL     1      22.460   4.877  84.760  0.00  0.00    +0.000 C 
ATOM      4  C   UNL     1      20.444   6.916  85.005  0.00  0.00    +0.000 C 
ATOM      5  C   UNL     1      21.734   5.235  83.544  0.00  0.00    +0.000 C 
ATOM      6  C   UNL     1      20.762   6.214  83.824  0.00  0.00    +0.000 C 
ATOM      7  C   UNL     1      22.045   4.481  87.190  0.00  0.00    +0.000 C 
ATOM      8  N   UNL     1      23.029   6.673  86.423  0.00  0.00    +0.000 N 
ATOM      9  C   UNL     1      22.923   8.037  86.316  0.00  0.00    +0.000 A 
ATOM     10  C   UNL     1      21.896   8.772  85.715  0.00  0.00    +0.000 A 
ATOM     11  C   UNL     1      23.973   8.836  86.787  0.00  0.00    +0.000 A 
ATOM     12  N   UNL     1      20.816   8.242  85.076  0.00  0.00    +0.000 N 
ATOM     13  C   UNL     1      22.110  10.157  85.656  0.00  0.00    +0.000 A 
ATOM     14  C   UNL     1      20.301   9.397  84.453  0.00  0.00    +0.000 A 
ATOM     15  C   UNL     1      21.048  10.574  84.825  0.00  0.00    +0.000 A 
ATOM     16  C   UNL     1      19.190   9.492  83.599  0.00  0.00    +0.000 A 
ATOM     17  C   UNL     1      20.636  11.812  84.292  0.00  0.00    +0.000 A 
ATOM     18  C   UNL     1      19.532  11.886  83.445  0.00  0.00    +0.000 A 
ATOM     19  C   UNL     1      18.825  10.743  83.104  0.00  0.00    +0.000 A 
ATOM     20  C   UNL     1      23.156  10.969  86.136  0.00  0.00    +0.000 A 
ATOM     21  C   UNL     1      24.185  10.221  86.773  0.00  0.00    +0.000 A 
ATOM     22  C   UNL     1      23.489  12.375  86.120  0.00  0.00    +0.000 C 
ATOM     23  C   UNL     1      25.229  11.196  87.188  0.00  0.00    +0.000 C 
ATOM     24  N   UNL     1      24.732  12.380  86.768  0.00  0.00    +0.000 N 
ATOM     25  H   UNL     1      25.222  13.251  86.911  0.00  0.00    +0.000 HD
ATOM     26  O   UNL     1      22.931  13.375  85.694  0.00  0.00    +0.000 OA
ATOM     27  C   UNL     1      24.899   7.881  87.236  0.00  0.00    +0.000 A 
ATOM     28  C   UNL     1      24.327   6.577  86.996  0.00  0.00    +0.000 A 
ATOM     29  C   UNL     1      26.186   7.956  87.807  0.00  0.00    +0.000 A 
ATOM     30  C   UNL     1      25.057   5.425  87.337  0.00  0.00    +0.000 A 
ATOM     31  C   UNL     1      26.326   5.550  87.902  0.00  0.00    +0.000 A 
ATOM     32  C   UNL     1      26.884   6.796  88.136  0.00  0.00    +0.000 A 
ENDROOT
BRANCH   5  33
ATOM     33  N   UNL     1      22.111   4.819  82.238  0.00  0.00    +0.000 N 
ATOM     34  C   UNL     1      21.434   3.636  81.752  0.00  0.00    +0.000 C 
ATOM     35  H   UNL     1      23.113   4.871  82.041  0.00  0.00    +0.000 HD
ENDBRANCH   5  33
BRANCH   3  36
ATOM     36  O   UNL     1      23.746   4.386  84.688  0.00  0.00    +0.000 OA
ATOM     37  C   UNL     1      23.769   2.984  84.645  0.00  0.00    +0.000 C 
ENDBRANCH   3  36
TORSDOF 2
ENDMDL
MODEL 3
REMARK VINA RESULT:      -6.6     21.450     24.025
REMARK  Name = Staurosporine.pdbqt.pdb
REMARK  2 active torsions:
REMARK  status: ('A' for Active; 'I' for Inactive)
REMARK    1  A    between atoms: C_3  and  O_11
REMARK    2  A    between atoms: C_5  and  N_8
REMARK                            x       y       z     vdW  Elec       q    Type
REMARK                         _______ _______ _______ _____ _____    ______ ____
ROOT
ATOM      1  O   UNL     1      59.418  31.623  71.902  0.00  0.00    +0.000 OA
ATOM      2  C   UNL     1      60.553  31.511  71.000  0.00  0.00    +0.000 C 
ATOM      3  C   UNL     1      60.406  32.278  69.671  0.00  0.00    +0.000 C 
ATOM      4  C   UNL     1      59.000  32.930  72.096  0.00  0.00    +0.000 C 
ATOM      5  C   UNL     1      59.474  33.401  69.610  0.00  0.00    +0.000 C 
ATOM      6  C   UNL     1      58.839  33.578  70.854  0.00  0.00    +0.000 C 
ATOM      7  C   UNL     1      60.578  29.986  70.645  0.00  0.00    +0.000 C 
ATOM      8  N   UNL     1      61.759  31.917  71.757  0.00  0.00    +0.000 N 
ATOM      9  C   UNL     1      61.916  32.725  72.855  0.00  0.00    +0.000 A 
ATOM     10  C   UNL     1      60.944  33.502  73.493  0.00  0.00    +0.000 A 
ATOM     11  C   UNL     1      63.197  32.882  73.401  0.00  0.00    +0.000 A 
ATOM     12  N   UNL     1      59.647  33.625  73.096  0.00  0.00    +0.000 N 
ATOM     13  C   UNL     1      61.419  34.318  74.529  0.00  0.00    +0.000 A 
ATOM     14  C   UNL     1      59.238  34.704  73.905  0.00  0.00    +0.000 A 
ATOM     15  C   UNL     1      60.286  35.112  74.810  0.00  0.00    +0.000 A 
ATOM     16  C   UNL     1      57.985  35.340  73.925  0.00  0.00    +0.000 A 
ATOM     17  C   UNL     1      60.016  36.173  75.697  0.00  0.00    +0.000 A 
ATOM     18  C   UNL     1      58.767  36.792  75.701  0.00  0.00    +0.000 A 
ATOM     19  C   UNL     1      57.771  36.381  74.827  0.00  0.00    +0.000 A 
ATOM     20  C   UNL     1      62.701  34.475  75.092  0.00  0.00    +0.000 A 
ATOM     21  C   UNL     1      63.682  33.662  74.460  0.00  0.00    +0.000 A 
ATOM     22  C   UNL     1      63.304  35.282  76.128  0.00  0.00    +0.000 C 
ATOM     23  C   UNL     1      64.979  33.960  75.124  0.00  0.00    +0.000 C 
ATOM     24  N   UNL     1      64.647  34.888  76.049  0.00  0.00    +0.000 N 
ATOM     25  H   UNL     1      65.329  35.293  76.675  0.00  0.00    +0.000 HD
ATOM     26  O   UNL     1      62.875  36.108  76.919  0.00  0.00    +0.000 OA
ATOM     27  C   UNL     1      63.988  32.103  72.541  0.00  0.00    +0.000 A 
ATOM     28  C   UNL     1      63.113  31.539  71.542  0.00  0.00    +0.000 A 
ATOM     29  C   UNL     1      65.367  31.818  72.468  0.00  0.00    +0.000 A 
ATOM     30  C   UNL     1      63.649  30.721  70.531  0.00  0.00    +0.000 A 
ATOM     31  C   UNL     1      65.020  30.465  70.502  0.00  0.00    +0.000 A 
ATOM     32  C   UNL     1      65.868  31.002  71.456  0.00  0.00    +0.000 A 
ENDROOT
BRANCH   5  33
ATOM     33  N   UNL     1      59.394  34.314  68.523  0.00  0.00    +0.000 N 
ATOM     34  C   UNL     1      58.540  35.460  68.746  0.00  0.00    +0.000 C 
ATOM     35  H   UNL     1      59.324  33.880  67.600  0.00  0.00    +0.000 HD
ENDBRANCH   5  33
BRANCH   3  36
ATOM     36  O   UNL     1      61.494  32.226  68.826  0.00  0.00    +0.000 OA
ATOM     37  C   UNL     1      61.201  31.538  67.639  0.00  0.00    +0.000 C 
ENDBRANCH   3  36
TORSDOF 2
ENDMDL
MODEL 4
REMARK VINA RESULT:      -6.5     26.673     29.591
REMARK  Name = Staurosporine.pdbqt.pdb
REMARK  2 active torsions:
REMARK  status: ('A' for Active; 'I' for Inactive)
REMARK    1  A    between atoms: C_3  and  O_11
REMARK    2  A    between atoms: C_5  and  N_8
REMARK                            x       y       z     vdW  Elec       q    Type
REMARK                         _______ _______ _______ _____ _____    ______ ____
ROOT
ATOM      1  O   UNL     1      19.818   8.305  79.809  0.00  0.00    +0.000 OA
ATOM      2  C   UNL     1      19.237   9.573  80.220  0.00  0.00    +0.000 C 
ATOM      3  C   UNL     1      17.709   9.676  80.045  0.00  0.00    +0.000 C 
ATOM      4  C   UNL     1      19.158   7.205  80.332  0.00  0.00    +0.000 C 
ATOM      5  C   UNL     1      16.926   8.443  79.994  0.00  0.00    +0.000 C 
ATOM      6  C   UNL     1      17.769   7.322  80.112  0.00  0.00    +0.000 C 
ATOM      7  C   UNL     1      19.879  10.599  79.225  0.00  0.00    +0.000 C 
ATOM      8  N   UNL     1      19.665   9.823  81.615  0.00  0.00    +0.000 N 
ATOM      9  C   UNL     1      20.059   8.967  82.613  0.00  0.00    +0.000 A 
ATOM     10  C   UNL     1      20.038   7.568  82.601  0.00  0.00    +0.000 A 
ATOM     11  C   UNL     1      20.475   9.504  83.839  0.00  0.00    +0.000 A 
ATOM     12  N   UNL     1      19.571   6.795  81.583  0.00  0.00    +0.000 N 
ATOM     13  C   UNL     1      20.397   6.957  83.811  0.00  0.00    +0.000 A 
ATOM     14  C   UNL     1      19.537   5.537  82.217  0.00  0.00    +0.000 A 
ATOM     15  C   UNL     1      20.071   5.607  83.556  0.00  0.00    +0.000 A 
ATOM     16  C   UNL     1      19.093   4.315  81.684  0.00  0.00    +0.000 A 
ATOM     17  C   UNL     1      20.119   4.418  84.310  0.00  0.00    +0.000 A 
ATOM     18  C   UNL     1      19.674   3.215  83.764  0.00  0.00    +0.000 A 
ATOM     19  C   UNL     1      19.168   3.169  82.473  0.00  0.00    +0.000 A 
ATOM     20  C   UNL     1      20.826   7.487  85.044  0.00  0.00    +0.000 A 
ATOM     21  C   UNL     1      20.874   8.909  85.043  0.00  0.00    +0.000 A 
ATOM     22  C   UNL     1      21.198   6.969  86.340  0.00  0.00    +0.000 C 
ATOM     23  C   UNL     1      21.299   9.323  86.407  0.00  0.00    +0.000 C 
ATOM     24  N   UNL     1      21.453   8.148  87.055  0.00  0.00    +0.000 N 
ATOM     25  H   UNL     1      21.747   8.098  88.020  0.00  0.00    +0.000 HD
ATOM     26  O   UNL     1      21.300   5.844  86.808  0.00  0.00    +0.000 OA
ATOM     27  C   UNL     1      20.310  10.883  83.634  0.00  0.00    +0.000 A 
ATOM     28  C   UNL     1      19.804  11.064  82.294  0.00  0.00    +0.000 A 
ATOM     29  C   UNL     1      20.507  12.024  84.439  0.00  0.00    +0.000 A 
ATOM     30  C   UNL     1      19.528  12.360  81.825  0.00  0.00    +0.000 A 
ATOM     31  C   UNL     1      19.742  13.459  82.658  0.00  0.00    +0.000 A 
ATOM     32  C   UNL     1      20.226  13.296  83.945  0.00  0.00    +0.000 A 
ENDROOT
BRANCH   5  33
ATOM     33  N   UNL     1      15.506   8.397  80.045  0.00  0.00    +0.000 N 
ATOM     34  C   UNL     1      14.936   7.068  80.083  0.00  0.00    +0.000 C 
ATOM     35  H   UNL     1      15.031   9.068  79.437  0.00  0.00    +0.000 HD
ENDBRANCH   5  33
BRANCH   3  36
ATOM     36  O   UNL     1      17.135  10.851  80.479  0.00  0.00    +0.000 OA
ATOM     37  C   UNL     1      16.534  11.558  79.427  0.00  0.00    +0.000 C 
ENDBRANCH   3  36
TORSDOF 2
ENDMDL
MODEL 5
REMARK VINA RESULT:      -6.4     10.601     14.082
REMARK  Name = Staurosporine.pdbqt.pdb
REMARK  2 active torsions:
REMARK  status: ('A' for Active; 'I' for Inactive)
REMARK    1  A    between atoms: C_3  and  O_11
REMARK    2  A    between atoms: C_5  and  N_8
REMARK                            x       y       z     vdW  Elec       q    Type
REMARK                         _______ _______ _______ _____ _____    ______ ____
ROOT
ATOM      1  O   UNL     1      49.784  17.820  75.738  0.00  0.00    +0.000 OA
ATOM      2  C   UNL     1      49.973  16.397  75.971  0.00  0.00    +0.000 C 
ATOM      3  C   UNL     1      51.211  15.785  75.286  0.00  0.00    +0.000 C 
ATOM      4  C   UNL     1      50.928  18.568  75.964  0.00  0.00    +0.000 C 
ATOM      5  C   UNL     1      52.319  16.666  74.926  0.00  0.00    +0.000 C 
ATOM      6  C   UNL     1      52.025  17.995  75.285  0.00  0.00    +0.000 C 
ATOM      7  C   UNL     1      48.715  15.755  75.294  0.00  0.00    +0.000 C 
ATOM      8  N   UNL     1      49.974  16.185  77.436  0.00  0.00    +0.000 N 
ATOM      9  C   UNL     1      50.269  17.029  78.477  0.00  0.00    +0.000 A 
ATOM     10  C   UNL     1      50.784  18.328  78.409  0.00  0.00    +0.000 A 
ATOM     11  C   UNL     1      50.122  16.561  79.790  0.00  0.00    +0.000 A 
ATOM     12  N   UNL     1      51.131  18.979  77.264  0.00  0.00    +0.000 N 
ATOM     13  C   UNL     1      51.093  18.912  79.646  0.00  0.00    +0.000 A 
ATOM     14  C   UNL     1      51.822  20.083  77.803  0.00  0.00    +0.000 A 
ATOM     15  C   UNL     1      51.776  20.081  79.246  0.00  0.00    +0.000 A 
ATOM     16  C   UNL     1      52.470  21.117  77.107  0.00  0.00    +0.000 A 
ATOM     17  C   UNL     1      52.412  21.138  79.927  0.00  0.00    +0.000 A 
ATOM     18  C   UNL     1      53.050  22.155  79.219  0.00  0.00    +0.000 A 
ATOM     19  C   UNL     1      53.078  22.141  77.832  0.00  0.00    +0.000 A 
ATOM     20  C   UNL     1      50.939  18.454  80.969  0.00  0.00    +0.000 A 
ATOM     21  C   UNL     1      50.387  17.144  81.036  0.00  0.00    +0.000 A 
ATOM     22  C   UNL     1      51.231  18.948  82.295  0.00  0.00    +0.000 C 
ATOM     23  C   UNL     1      50.321  16.781  82.477  0.00  0.00    +0.000 C 
ATOM     24  N   UNL     1      50.823  17.872  83.095  0.00  0.00    +0.000 N 
ATOM     25  H   UNL     1      50.906  17.932  84.100  0.00  0.00    +0.000 HD
ATOM     26  O   UNL     1      51.700  19.990  82.728  0.00  0.00    +0.000 OA
ATOM     27  C   UNL     1      49.703  15.235  79.590  0.00  0.00    +0.000 A 
ATOM     28  C   UNL     1      49.633  15.013  78.166  0.00  0.00    +0.000 A 
ATOM     29  C   UNL     1      49.390  14.166  80.454  0.00  0.00    +0.000 A 
ATOM     30  C   UNL     1      49.254  13.751  77.677  0.00  0.00    +0.000 A 
ATOM     31  C   UNL     1      48.951  12.724  78.572  0.00  0.00    +0.000 A 
ATOM     32  C   UNL     1      49.015  12.927  79.940  0.00  0.00    +0.000 A 
ENDROOT
BRANCH   5  33
ATOM     33  N   UNL     1      53.591  16.210  74.485  0.00  0.00    +0.000 N 
ATOM     34  C   UNL     1      54.648  16.293  75.469  0.00  0.00    +0.000 C 
ATOM     35  H   UNL     1      53.844  16.491  73.535  0.00  0.00    +0.000 HD
ENDBRANCH   5  33
BRANCH   3  36
ATOM     36  O   UNL     1      51.435  14.448  75.538  0.00  0.00    +0.000 OA
ATOM     37  C   UNL     1      51.316  13.670  74.377  0.00  0.00    +0.000 C 
ENDBRANCH   3  36
TORSDOF 2
ENDMDL
MODEL 6
REMARK VINA RESULT:      -6.1     21.149     25.527
REMARK  Name = Staurosporine.pdbqt.pdb
REMARK  2 active torsions:
REMARK  status: ('A' for Active; 'I' for Inactive)
REMARK    1  A    between atoms: C_3  and  O_11
REMARK    2  A    between atoms: C_5  and  N_8
REMARK                            x       y       z     vdW  Elec       q    Type
REMARK                         _______ _______ _______ _____ _____    ______ ____
ROOT
ATOM      1  O   UNL     1      23.648  10.089  88.447  0.00  0.00    +0.000 OA
ATOM      2  C   UNL     1      24.423  11.120  87.776  0.00  0.00    +0.000 C 
ATOM      3  C   UNL     1      25.817  10.674  87.291  0.00  0.00    +0.000 C 
ATOM      4  C   UNL     1      23.599   8.896  87.743  0.00  0.00    +0.000 C 
ATOM      5  C   UNL     1      26.056   9.251  87.063  0.00  0.00    +0.000 C 
ATOM      6  C   UNL     1      24.899   8.507  87.357  0.00  0.00    +0.000 C 
ATOM      7  C   UNL     1      24.652  12.184  88.903  0.00  0.00    +0.000 C 
ATOM      8  N   UNL     1      23.587  11.657  86.679  0.00  0.00    +0.000 N 
ATOM      9  C   UNL     1      22.546  11.106  85.975  0.00  0.00    +0.000 A 
ATOM     10  C   UNL     1      22.069   9.793  86.038  0.00  0.00    +0.000 A 
ATOM     11  C   UNL     1      21.891  11.888  85.013  0.00  0.00    +0.000 A 
ATOM     12  N   UNL     1      22.599   8.796  86.799  0.00  0.00    +0.000 N 
ATOM     13  C   UNL     1      21.058   9.482  85.116  0.00  0.00    +0.000 A 
ATOM     14  C   UNL     1      21.921   7.683  86.264  0.00  0.00    +0.000 A 
ATOM     15  C   UNL     1      20.954   8.082  85.270  0.00  0.00    +0.000 A 
ATOM     16  C   UNL     1      22.074   6.331  86.614  0.00  0.00    +0.000 A 
ATOM     17  C   UNL     1      20.184   7.074  84.657  0.00  0.00    +0.000 A 
ATOM     18  C   UNL     1      20.350   5.738  85.017  0.00  0.00    +0.000 A 
ATOM     19  C   UNL     1      21.282   5.376  85.979  0.00  0.00    +0.000 A 
ATOM     20  C   UNL     1      20.387  10.262  84.154  0.00  0.00    +0.000 A 
ATOM     21  C   UNL     1      20.855  11.605  84.114  0.00  0.00    +0.000 A 
ATOM     22  C   UNL     1      19.364  10.052  83.156  0.00  0.00    +0.000 C 
ATOM     23  C   UNL     1      20.092  12.291  83.036  0.00  0.00    +0.000 C 
ATOM     24  N   UNL     1      19.281  11.320  82.564  0.00  0.00    +0.000 N 
ATOM     25  H   UNL     1      18.625  11.483  81.813  0.00  0.00    +0.000 HD
ATOM     26  O   UNL     1      18.687   9.091  82.823  0.00  0.00    +0.000 OA
ATOM     27  C   UNL     1      22.606  13.095  85.071  0.00  0.00    +0.000 A 
ATOM     28  C   UNL     1      23.638  12.940  86.067  0.00  0.00    +0.000 A 
ATOM     29  C   UNL     1      22.521  14.318  84.374  0.00  0.00    +0.000 A 
ATOM     30  C   UNL     1      24.524  14.002  86.322  0.00  0.00    +0.000 A 
ATOM     31  C   UNL     1      24.398  15.194  85.608  0.00  0.00    +0.000 A 
ATOM     32  C   UNL     1      23.412  15.353  84.650  0.00  0.00    +0.000 A 
ENDROOT
BRANCH   5  33
ATOM     33  N   UNL     1      27.214   8.730  86.425  0.00  0.00    +0.000 N 
ATOM     34  C   UNL     1      27.621   7.415  86.871  0.00  0.00    +0.000 C 
ATOM     35  H   UNL     1      27.969   9.404  86.282  0.00  0.00    +0.000 HD
ENDBRANCH   5  33
BRANCH   3  36
ATOM     36  O   UNL     1      26.544  11.625  86.607  0.00  0.00    +0.000 OA
ATOM     37  C   UNL     1      27.842  11.761  87.122  0.00  0.00    +0.000 C 
ENDBRANCH   3  36
TORSDOF 2
ENDMDL
MODEL 7
REMARK VINA RESULT:      -6.0     23.646     27.430
REMARK  Name = Staurosporine.pdbqt.pdb
REMARK  2 active torsions:
REMARK  status: ('A' for Active; 'I' for Inactive)
REMARK    1  A    between atoms: C_3  and  O_11
REMARK    2  A    between atoms: C_5  and  N_8
REMARK                            x       y       z     vdW  Elec       q    Type
REMARK                         _______ _______ _______ _____ _____    ______ ____
ROOT
ATOM      1  O   UNL     1      24.648   3.739  87.469  0.00  0.00    +0.000 OA
ATOM      2  C   UNL     1      25.787   4.642  87.445  0.00  0.00    +0.000 C 
ATOM      3  C   UNL     1      26.853   4.317  86.380  0.00  0.00    +0.000 C 
ATOM      4  C   UNL     1      24.089   3.528  86.219  0.00  0.00    +0.000 C 
ATOM      5  C   UNL     1      26.458   3.533  85.212  0.00  0.00    +0.000 C 
ATOM      6  C   UNL     1      25.095   3.193  85.288  0.00  0.00    +0.000 C 
ATOM      7  C   UNL     1      26.455   4.412  88.843  0.00  0.00    +0.000 C 
ATOM      8  N   UNL     1      25.256   6.018  87.312  0.00  0.00    +0.000 N 
ATOM      9  C   UNL     1      24.076   6.493  86.797  0.00  0.00    +0.000 A 
ATOM     10  C   UNL     1      23.083   5.772  86.126  0.00  0.00    +0.000 A 
ATOM     11  C   UNL     1      23.815   7.868  86.860  0.00  0.00    +0.000 A 
ATOM     12  N   UNL     1      23.138   4.446  85.824  0.00  0.00    +0.000 N 
ATOM     13  C   UNL     1      22.032   6.545  85.610  0.00  0.00    +0.000 A 
ATOM     14  C   UNL     1      22.046   4.343  84.938  0.00  0.00    +0.000 A 
ATOM     15  C   UNL     1      21.339   5.596  84.827  0.00  0.00    +0.000 A 
ATOM     16  C   UNL     1      21.607   3.207  84.240  0.00  0.00    +0.000 A 
ATOM     17  C   UNL     1      20.208   5.643  83.987  0.00  0.00    +0.000 A 
ATOM     18  C   UNL     1      19.788   4.505  83.302  0.00  0.00    +0.000 A 
ATOM     19  C   UNL     1      20.479   3.309  83.427  0.00  0.00    +0.000 A 
ATOM     20  C   UNL     1      21.755   7.925  85.678  0.00  0.00    +0.000 A 
ATOM     21  C   UNL     1      22.753   8.650  86.386  0.00  0.00    +0.000 A 
ATOM     22  C   UNL     1      20.737   8.820  85.180  0.00  0.00    +0.000 C 
ATOM     23  C   UNL     1      22.354  10.083  86.342  0.00  0.00    +0.000 C 
ATOM     24  N   UNL     1      21.202  10.061  85.636  0.00  0.00    +0.000 N 
ATOM     25  H   UNL     1      20.676  10.900  85.437  0.00  0.00    +0.000 HD
ATOM     26  O   UNL     1      19.711   8.664  84.534  0.00  0.00    +0.000 OA
ATOM     27  C   UNL     1      24.978   8.366  87.469  0.00  0.00    +0.000 A 
ATOM     28  C   UNL     1      25.849   7.244  87.722  0.00  0.00    +0.000 A 
ATOM     29  C   UNL     1      25.422   9.657  87.824  0.00  0.00    +0.000 A 
ATOM     30  C   UNL     1      27.105   7.459  88.315  0.00  0.00    +0.000 A 
ATOM     31  C   UNL     1      27.500   8.754  88.652  0.00  0.00    +0.000 A 
ATOM     32  C   UNL     1      26.672   9.838  88.413  0.00  0.00    +0.000 A 
ENDROOT
BRANCH   5  33
ATOM     33  N   UNL     1      27.278   3.340  84.067  0.00  0.00    +0.000 N 
ATOM     34  C   UNL     1      28.002   2.088  84.035  0.00  0.00    +0.000 C 
ATOM     35  H   UNL     1      27.803   4.165  83.768  0.00  0.00    +0.000 HD
ENDBRANCH   5  33
BRANCH   3  36
ATOM     36  O   UNL     1      27.914   5.193  86.308  0.00  0.00    +0.000 OA
ATOM     37  C   UNL     1      29.124   4.580  86.666  0.00  0.00    +0.000 C 
ENDBRANCH   3  36
TORSDOF 2
ENDMDL
MODEL 8
REMARK VINA RESULT:      -6.0     12.099     13.807
REMARK  Name = Staurosporine.pdbqt.pdb
REMARK  2 active torsions:
REMARK  status: ('A' for Active; 'I' for Inactive)
REMARK    1  A    between atoms: C_3  and  O_11
REMARK    2  A    between atoms: C_5  and  N_8
REMARK                            x       y       z     vdW  Elec       q    Type
REMARK                         _______ _______ _______ _____ _____    ______ ____
ROOT
ATOM      1  O   UNL     1      44.244  35.586  81.736  0.00  0.00    +0.000 OA
ATOM      2  C   UNL     1      44.834  36.596  82.600  0.00  0.00    +0.000 C 
ATOM      3  C   UNL     1      45.480  37.785  81.862  0.00  0.00    +0.000 C 
ATOM      4  C   UNL     1      43.408  36.115  80.766  0.00  0.00    +0.000 C 
ATOM      5  C   UNL     1      45.042  38.086  80.501  0.00  0.00    +0.000 C 
ATOM      6  C   UNL     1      44.055  37.170  80.090  0.00  0.00    +0.000 C 
ATOM      7  C   UNL     1      45.991  35.821  83.316  0.00  0.00    +0.000 C 
ATOM      8  N   UNL     1      43.788  37.024  83.556  0.00  0.00    +0.000 N 
ATOM      9  C   UNL     1      42.418  36.996  83.480  0.00  0.00    +0.000 A 
ATOM     10  C   UNL     1      41.628  36.650  82.379  0.00  0.00    +0.000 A 
ATOM     11  C   UNL     1      41.670  37.421  84.586  0.00  0.00    +0.000 A 
ATOM     12  N   UNL     1      42.097  36.313  81.146  0.00  0.00    +0.000 N 
ATOM     13  C   UNL     1      40.247  36.821  82.560  0.00  0.00    +0.000 A 
ATOM     14  C   UNL     1      40.899  36.346  80.404  0.00  0.00    +0.000 A 
ATOM     15  C   UNL     1      39.761  36.612  81.251  0.00  0.00    +0.000 A 
ATOM     16  C   UNL     1      40.732  36.124  79.027  0.00  0.00    +0.000 A 
ATOM     17  C   UNL     1      38.487  36.657  80.649  0.00  0.00    +0.000 A 
ATOM     18  C   UNL     1      38.342  36.435  79.281  0.00  0.00    +0.000 A 
ATOM     19  C   UNL     1      39.449  36.176  78.486  0.00  0.00    +0.000 A 
ATOM     20  C   UNL     1      39.487  37.237  83.670  0.00  0.00    +0.000 A 
ATOM     21  C   UNL     1      40.292  37.559  84.797  0.00  0.00    +0.000 A 
ATOM     22  C   UNL     1      38.091  37.465  83.964  0.00  0.00    +0.000 C 
ATOM     23  C   UNL     1      39.366  38.017  85.868  0.00  0.00    +0.000 C 
ATOM     24  N   UNL     1      38.150  37.923  85.287  0.00  0.00    +0.000 N 
ATOM     25  H   UNL     1      37.300  38.165  85.775  0.00  0.00    +0.000 HD
ATOM     26  O   UNL     1      37.056  37.334  83.326  0.00  0.00    +0.000 OA
ATOM     27  C   UNL     1      42.670  37.802  85.496  0.00  0.00    +0.000 A 
ATOM     28  C   UNL     1      43.945  37.575  84.858  0.00  0.00    +0.000 A 
ATOM     29  C   UNL     1      42.656  38.344  86.797  0.00  0.00    +0.000 A 
ATOM     30  C   UNL     1      45.131  37.892  85.543  0.00  0.00    +0.000 A 
ATOM     31  C   UNL     1      45.066  38.424  86.831  0.00  0.00    +0.000 A 
ATOM     32  C   UNL     1      43.849  38.646  87.452  0.00  0.00    +0.000 A 
ENDROOT
BRANCH   5  33
ATOM     33  N   UNL     1      45.399  39.264  79.790  0.00  0.00    +0.000 N 
ATOM     34  C   UNL     1      44.617  39.524  78.601  0.00  0.00    +0.000 C 
ATOM     35  H   UNL     1      46.404  39.429  79.707  0.00  0.00    +0.000 HD
ENDBRANCH   5  33
BRANCH   3  36
ATOM     36  O   UNL     1      45.998  38.777  82.665  0.00  0.00    +0.000 OA
ATOM     37  C   UNL     1      47.393  38.868  82.551  0.00  0.00    +0.000 C 
ENDBRANCH   3  36
TORSDOF 2
ENDMDL
MODEL 9
REMARK VINA RESULT:      -5.9     41.419     46.006
REMARK  Name = Staurosporine.pdbqt.pdb
REMARK  2 active torsions:
REMARK  status: ('A' for Active; 'I' for Inactive)
REMARK    1  A    between atoms: C_3  and  O_11
REMARK    2  A    between atoms: C_5  and  N_8
REMARK                            x       y       z     vdW  Elec       q    Type
REMARK                         _______ _______ _______ _____ _____    ______ ____
ROOT
ATOM      1  O   UNL     1       2.219   9.584  95.725  0.00  0.00    +0.000 OA
ATOM      2  C   UNL     1       0.947   9.583  96.429  0.00  0.00    +0.000 C 
ATOM      3  C   UNL     1       1.041   9.299  97.942  0.00  0.00    +0.000 C 
ATOM      4  C   UNL     1       3.186  10.361  96.343  0.00  0.00    +0.000 C 
ATOM      5  C   UNL     1       2.306   9.557  98.624  0.00  0.00    +0.000 C 
ATOM      6  C   UNL     1       3.265  10.038  97.714  0.00  0.00    +0.000 C 
ATOM      7  C   UNL     1       0.184   8.375  95.786  0.00  0.00    +0.000 C 
ATOM      8  N   UNL     1       0.278  10.871  96.136  0.00  0.00    +0.000 N 
ATOM      9  C   UNL     1       0.780  12.092  95.762  0.00  0.00    +0.000 A 
ATOM     10  C   UNL     1       2.122  12.478  95.679  0.00  0.00    +0.000 A 
ATOM     11  C   UNL     1      -0.114  13.136  95.489  0.00  0.00    +0.000 A 
ATOM     12  N   UNL     1       3.189  11.698  96.003  0.00  0.00    +0.000 N 
ATOM     13  C   UNL     1       2.335  13.831  95.376  0.00  0.00    +0.000 A 
ATOM     14  C   UNL     1       4.218  12.661  95.996  0.00  0.00    +0.000 A 
ATOM     15  C   UNL     1       3.727  13.953  95.579  0.00  0.00    +0.000 A 
ATOM     16  C   UNL     1       5.575  12.475  96.303  0.00  0.00    +0.000 A 
ATOM     17  C   UNL     1       4.648  15.016  95.505  0.00  0.00    +0.000 A 
ATOM     18  C   UNL     1       5.992  14.812  95.814  0.00  0.00    +0.000 A 
ATOM     19  C   UNL     1       6.444  13.561  96.208  0.00  0.00    +0.000 A 
ATOM     20  C   UNL     1       1.444  14.884  95.088  0.00  0.00    +0.000 A 
ATOM     21  C   UNL     1       0.081  14.480  95.146  0.00  0.00    +0.000 A 
ATOM     22  C   UNL     1       1.542  16.293  94.786  0.00  0.00    +0.000 C 
ATOM     23  C   UNL     1      -0.736  15.691  94.865  0.00  0.00    +0.000 C 
ATOM     24  N   UNL     1       0.192  16.655  94.677  0.00  0.00    +0.000 N 
ATOM     25  H   UNL     1      -0.058  17.609  94.461  0.00  0.00    +0.000 HD
ATOM     26  O   UNL     1       2.476  17.067  94.639  0.00  0.00    +0.000 OA
ATOM     27  C   UNL     1      -1.359  12.537  95.738  0.00  0.00    +0.000 A 
ATOM     28  C   UNL     1      -1.111  11.174  96.144  0.00  0.00    +0.000 A 
ATOM     29  C   UNL     1      -2.693  12.993  95.691  0.00  0.00    +0.000 A 
ATOM     30  C   UNL     1      -2.192  10.340  96.477  0.00  0.00    +0.000 A 
ATOM     31  C   UNL     1      -3.495  10.836  96.413  0.00  0.00    +0.000 A 
ATOM     32  C   UNL     1      -3.744  12.141  96.025  0.00  0.00    +0.000 A 
ENDROOT
BRANCH   5  33
ATOM     33  N   UNL     1       2.469   9.538 100.036  0.00  0.00    +0.000 N 
ATOM     34  C   UNL     1       2.563  10.839 100.661  0.00  0.00    +0.000 C 
ATOM     35  H   UNL     1       3.117   8.829 100.386  0.00  0.00    +0.000 HD
ENDBRANCH   5  33
BRANCH   3  36
ATOM     36  O   UNL     1      -0.150   9.346  98.634  0.00  0.00    +0.000 OA
ATOM     37  C   UNL     1      -0.486   8.098  99.180  0.00  0.00    +0.000 C 
ENDBRANCH   3  36
TORSDOF 2
ENDMDL
