MODEL 1
REMARK VINA RESULT:      -5.8      0.000      0.000
REMARK  Name = Testosterone.pdbqt.pdb
REMARK  1 active torsions:
REMARK  status: ('A' for Active; 'I' for Inactive)
REMARK    1  A    between atoms: C_9  and  O_21
REMARK                            x       y       z     vdW  Elec       q    Type
REMARK                         _______ _______ _______ _____ _____    ______ ____
ROOT
ATOM      1  O   UNL     1      60.825  31.073  68.441  0.00  0.00    +0.000 OA
ATOM      2  C   UNL     1      61.569  34.060  75.450  0.00  0.00    +0.000 C 
ATOM      3  C   UNL     1      61.379  35.626  75.730  0.00  0.00    +0.000 C 
ATOM      4  C   UNL     1      60.889  33.387  74.326  0.00  0.00    +0.000 C 
ATOM      5  C   UNL     1      60.225  34.066  73.159  0.00  0.00    +0.000 C 
ATOM      6  C   UNL     1      59.448  33.318  72.054  0.00  0.00    +0.000 C 
ATOM      7  C   UNL     1      60.877  36.197  74.479  0.00  0.00    +0.000 C 
ATOM      8  C   UNL     1      60.310  35.481  73.277  0.00  0.00    +0.000 C 
ATOM      9  C   UNL     1      62.809  36.113  76.065  0.00  0.00    +0.000 C 
ATOM     10  C   UNL     1      62.943  33.759  75.728  0.00  0.00    +0.000 C 
ATOM     11  C   UNL     1      60.940  31.982  74.177  0.00  0.00    +0.000 C 
ATOM     12  C   UNL     1      63.713  35.016  76.049  0.00  0.00    +0.000 C 
ATOM     13  C   UNL     1      59.803  31.707  71.909  0.00  0.00    +0.000 C 
ATOM     14  C   UNL     1      60.435  31.142  73.044  0.00  0.00    +0.000 C 
ATOM     15  C   UNL     1      60.428  35.845  76.933  0.00  0.00    +0.000 C 
ATOM     16  C   UNL     1      59.810  33.861  70.703  0.00  0.00    +0.000 C 
ATOM     17  C   UNL     1      57.922  33.422  72.324  0.00  0.00    +0.000 C 
ATOM     18  C   UNL     1      60.271  33.185  69.391  0.00  0.00    +0.000 C 
ATOM     19  C   UNL     1      60.156  31.263  70.721  0.00  0.00    +0.000 C 
ATOM     20  C   UNL     1      60.451  31.747  69.381  0.00  0.00    +0.000 C 
ENDROOT
BRANCH   9  21
ATOM     21  O   UNL     1      63.044  37.196  76.891  0.00  0.00    +0.000 OA
ATOM     22  H   UNL     1      63.457  37.934  76.402  0.00  0.00    +0.000 HD
ENDBRANCH   9  21
TORSDOF 1
ENDMDL
MODEL 2
REMARK VINA RESULT:      -5.6     20.213     21.613
REMARK  Name = Testosterone.pdbqt.pdb
REMARK  1 active torsions:
REMARK  status: ('A' for Active; 'I' for Inactive)
REMARK    1  A    between atoms: C_9  and  O_21
REMARK                            x       y       z     vdW  Elec       q    Type
REMARK                         _______ _______ _______ _____ _____    ______ ____
ROOT
ATOM      1  O   UNL     1      50.568  22.820  86.249  0.00  0.00    +0.000 OA
ATOM      2  C   UNL     1      43.557  25.893  86.141  0.00  0.00    +0.000 C 
ATOM      3  C   UNL     1      43.323  27.466  85.946  0.00  0.00    +0.000 C 
ATOM      4  C   UNL     1      44.752  25.217  85.598  0.00  0.00    +0.000 C 
ATOM      5  C   UNL     1      46.002  25.890  85.104  0.00  0.00    +0.000 C 
ATOM      6  C   UNL     1      47.190  25.139  84.461  0.00  0.00    +0.000 C 
ATOM      7  C   UNL     1      44.635  28.028  85.621  0.00  0.00    +0.000 C 
ATOM      8  C   UNL     1      45.892  27.305  85.200  0.00  0.00    +0.000 C 
ATOM      9  C   UNL     1      42.812  27.933  87.331  0.00  0.00    +0.000 C 
ATOM     10  C   UNL     1      43.101  25.573  87.462  0.00  0.00    +0.000 C 
ATOM     11  C   UNL     1      44.875  23.809  85.642  0.00  0.00    +0.000 C 
ATOM     12  C   UNL     1      42.698  26.820  88.208  0.00  0.00    +0.000 C 
ATOM     13  C   UNL     1      47.268  23.521  84.801  0.00  0.00    +0.000 C 
ATOM     14  C   UNL     1      46.054  22.961  85.271  0.00  0.00    +0.000 C 
ATOM     15  C   UNL     1      42.255  27.720  84.853  0.00  0.00    +0.000 C 
ATOM     16  C   UNL     1      48.489  25.657  85.005  0.00  0.00    +0.000 C 
ATOM     17  C   UNL     1      47.120  25.275  82.915  0.00  0.00    +0.000 C 
ATOM     18  C   UNL     1      49.722  24.955  85.618  0.00  0.00    +0.000 C 
ATOM     19  C   UNL     1      48.395  23.053  85.295  0.00  0.00    +0.000 C 
ATOM     20  C   UNL     1      49.692  23.514  85.771  0.00  0.00    +0.000 C 
ENDROOT
BRANCH   9  21
ATOM     21  O   UNL     1      41.975  29.024  87.478  0.00  0.00    +0.000 OA
ATOM     22  H   UNL     1      41.216  28.814  88.056  0.00  0.00    +0.000 HD
ENDBRANCH   9  21
TORSDOF 1
ENDMDL
MODEL 3
REMARK VINA RESULT:      -5.5      3.652      6.299
REMARK  Name = Testosterone.pdbqt.pdb
REMARK  1 active torsions:
REMARK  status: ('A' for Active; 'I' for Inactive)
REMARK    1  A    between atoms: C_9  and  O_21
REMARK                            x       y       z     vdW  Elec       q    Type
REMARK                         _______ _______ _______ _____ _____    ______ ____
ROOT
ATOM      1  O   UNL     1      57.971  34.610  71.981  0.00  0.00    +0.000 OA
ATOM      2  C   UNL     1      63.653  29.872  70.011  0.00  0.00    +0.000 C 
ATOM      3  C   UNL     1      65.103  29.957  70.689  0.00  0.00    +0.000 C 
ATOM      4  C   UNL     1      62.439  30.314  70.726  0.00  0.00    +0.000 C 
ATOM      5  C   UNL     1      62.402  31.153  71.974  0.00  0.00    +0.000 C 
ATOM      6  C   UNL     1      61.106  31.511  72.733  0.00  0.00    +0.000 C 
ATOM      7  C   UNL     1      64.974  30.917  71.787  0.00  0.00    +0.000 C 
ATOM      8  C   UNL     1      63.717  31.466  72.417  0.00  0.00    +0.000 C 
ATOM      9  C   UNL     1      66.007  30.488  69.551  0.00  0.00    +0.000 C 
ATOM     10  C   UNL     1      63.827  30.217  68.631  0.00  0.00    +0.000 C 
ATOM     11  C   UNL     1      61.152  30.094  70.182  0.00  0.00    +0.000 C 
ATOM     12  C   UNL     1      65.247  30.645  68.359  0.00  0.00    +0.000 C 
ATOM     13  C   UNL     1      59.711  31.380  71.850  0.00  0.00    +0.000 C 
ATOM     14  C   UNL     1      59.828  30.582  70.685  0.00  0.00    +0.000 C 
ATOM     15  C   UNL     1      65.565  28.552  71.149  0.00  0.00    +0.000 C 
ATOM     16  C   UNL     1      61.116  32.960  73.126  0.00  0.00    +0.000 C 
ATOM     17  C   UNL     1      60.948  30.583  73.969  0.00  0.00    +0.000 C 
ATOM     18  C   UNL     1      60.091  34.103  72.940  0.00  0.00    +0.000 C 
ATOM     19  C   UNL     1      58.915  32.428  71.803  0.00  0.00    +0.000 C 
ATOM     20  C   UNL     1      58.863  33.820  72.225  0.00  0.00    +0.000 C 
ENDROOT
BRANCH   9  21
ATOM     21  O   UNL     1      67.356  30.191  69.482  0.00  0.00    +0.000 OA
ATOM     22  H   UNL     1      67.571  29.701  68.665  0.00  0.00    +0.000 HD
ENDBRANCH   9  21
TORSDOF 1
ENDMDL
MODEL 4
REMARK VINA RESULT:      -5.5     20.056     21.584
REMARK  Name = Testosterone.pdbqt.pdb
REMARK  1 active torsions:
REMARK  status: ('A' for Active; 'I' for Inactive)
REMARK    1  A    between atoms: C_9  and  O_21
REMARK                            x       y       z     vdW  Elec       q    Type
REMARK                         _______ _______ _______ _____ _____    ______ ____
ROOT
ATOM      1  O   UNL     1      48.450  20.095  86.626  0.00  0.00    +0.000 OA
ATOM      2  C   UNL     1      44.399  25.912  83.733  0.00  0.00    +0.000 C 
ATOM      3  C   UNL     1      44.047  27.214  84.598  0.00  0.00    +0.000 C 
ATOM      4  C   UNL     1      45.600  25.100  84.013  0.00  0.00    +0.000 C 
ATOM      5  C   UNL     1      46.440  25.163  85.259  0.00  0.00    +0.000 C 
ATOM      6  C   UNL     1      47.740  24.354  85.464  0.00  0.00    +0.000 C 
ATOM      7  C   UNL     1      44.803  27.081  85.845  0.00  0.00    +0.000 C 
ATOM      8  C   UNL     1      45.943  26.144  86.161  0.00  0.00    +0.000 C 
ATOM      9  C   UNL     1      42.520  27.099  84.824  0.00  0.00    +0.000 C 
ATOM     10  C   UNL     1      43.155  25.260  83.450  0.00  0.00    +0.000 C 
ATOM     11  C   UNL     1      45.985  24.046  83.152  0.00  0.00    +0.000 C 
ATOM     12  C   UNL     1      42.015  25.950  84.158  0.00  0.00    +0.000 C 
ATOM     13  C   UNL     1      47.908  23.029  84.486  0.00  0.00    +0.000 C 
ATOM     14  C   UNL     1      47.077  23.038  83.338  0.00  0.00    +0.000 C 
ATOM     15  C   UNL     1      44.390  28.498  83.802  0.00  0.00    +0.000 C 
ATOM     16  C   UNL     1      47.772  23.758  86.841  0.00  0.00    +0.000 C 
ATOM     17  C   UNL     1      48.971  25.267  85.205  0.00  0.00    +0.000 C 
ATOM     18  C   UNL     1      48.027  22.323  87.355  0.00  0.00    +0.000 C 
ATOM     19  C   UNL     1      48.152  21.870  85.062  0.00  0.00    +0.000 C 
ATOM     20  C   UNL     1      48.255  21.271  86.384  0.00  0.00    +0.000 C 
ENDROOT
BRANCH   9  21
ATOM     21  O   UNL     1      41.716  28.210  85.002  0.00  0.00    +0.000 OA
ATOM     22  H   UNL     1      42.131  29.013  84.628  0.00  0.00    +0.000 HD
ENDBRANCH   9  21
TORSDOF 1
ENDMDL
MODEL 5
REMARK VINA RESULT:      -5.3      2.302      3.049
REMARK  Name = Testosterone.pdbqt.pdb
REMARK  1 active torsions:
REMARK  status: ('A' for Active; 'I' for Inactive)
REMARK    1  A    between atoms: C_9  and  O_21
REMARK                            x       y       z     vdW  Elec       q    Type
REMARK                         _______ _______ _______ _____ _____    ______ ____
ROOT
ATOM      1  O   UNL     1      65.022  30.278  70.827  0.00  0.00    +0.000 OA
ATOM      2  C   UNL     1      60.091  34.777  74.576  0.00  0.00    +0.000 C 
ATOM      3  C   UNL     1      59.119  35.795  73.809  0.00  0.00    +0.000 C 
ATOM      4  C   UNL     1      60.584  33.544  73.930  0.00  0.00    +0.000 C 
ATOM      5  C   UNL     1      60.529  33.233  72.460  0.00  0.00    +0.000 C 
ATOM      6  C   UNL     1      60.977  31.888  71.846  0.00  0.00    +0.000 C 
ATOM      7  C   UNL     1      59.272  35.495  72.385  0.00  0.00    +0.000 C 
ATOM      8  C   UNL     1      59.905  34.288  71.738  0.00  0.00    +0.000 C 
ATOM      9  C   UNL     1      59.684  37.187  74.179  0.00  0.00    +0.000 C 
ATOM     10  C   UNL     1      60.992  35.578  75.351  0.00  0.00    +0.000 C 
ATOM     11  C   UNL     1      61.314  32.579  74.662  0.00  0.00    +0.000 C 
ATOM     12  C   UNL     1      60.783  37.046  75.070  0.00  0.00    +0.000 C 
ATOM     13  C   UNL     1      62.001  30.989  72.787  0.00  0.00    +0.000 C 
ATOM     14  C   UNL     1      62.005  31.349  74.158  0.00  0.00    +0.000 C 
ATOM     15  C   UNL     1      57.666  35.638  74.321  0.00  0.00    +0.000 C 
ATOM     16  C   UNL     1      61.788  32.126  70.606  0.00  0.00    +0.000 C 
ATOM     17  C   UNL     1      59.734  31.003  71.558  0.00  0.00    +0.000 C 
ATOM     18  C   UNL     1      63.170  31.610  70.143  0.00  0.00    +0.000 C 
ATOM     19  C   UNL     1      63.136  30.592  72.251  0.00  0.00    +0.000 C 
ATOM     20  C   UNL     1      63.921  30.748  71.035  0.00  0.00    +0.000 C 
ENDROOT
BRANCH   9  21
ATOM     21  O   UNL     1      58.887  38.316  74.231  0.00  0.00    +0.000 OA
ATOM     22  H   UNL     1      58.085  38.160  74.767  0.00  0.00    +0.000 HD
ENDBRANCH   9  21
TORSDOF 1
ENDMDL
MODEL 6
REMARK VINA RESULT:      -5.2     22.212     23.771
REMARK  Name = Testosterone.pdbqt.pdb
REMARK  1 active torsions:
REMARK  status: ('A' for Active; 'I' for Inactive)
REMARK    1  A    between atoms: C_9  and  O_21
REMARK                            x       y       z     vdW  Elec       q    Type
REMARK                         _______ _______ _______ _____ _____    ______ ____
ROOT
ATOM      1  O   UNL     1      39.264  19.676  83.833  0.00  0.00    +0.000 OA
ATOM      2  C   UNL     1      42.506  26.522  84.940  0.00  0.00    +0.000 C 
ATOM      3  C   UNL     1      43.846  26.960  84.178  0.00  0.00    +0.000 C 
ATOM      4  C   UNL     1      41.570  25.541  84.356  0.00  0.00    +0.000 C 
ATOM      5  C   UNL     1      41.859  24.620  83.202  0.00  0.00    +0.000 C 
ATOM      6  C   UNL     1      40.813  23.675  82.570  0.00  0.00    +0.000 C 
ATOM      7  C   UNL     1      44.104  25.910  83.191  0.00  0.00    +0.000 C 
ATOM      8  C   UNL     1      43.176  24.824  82.705  0.00  0.00    +0.000 C 
ATOM      9  C   UNL     1      44.911  26.984  85.301  0.00  0.00    +0.000 C 
ATOM     10  C   UNL     1      42.834  26.444  86.333  0.00  0.00    +0.000 C 
ATOM     11  C   UNL     1      40.319  25.276  84.960  0.00  0.00    +0.000 C 
ATOM     12  C   UNL     1      44.310  26.671  86.550  0.00  0.00    +0.000 C 
ATOM     13  C   UNL     1      39.508  23.326  83.528  0.00  0.00    +0.000 C 
ATOM     14  C   UNL     1      39.307  24.232  84.598  0.00  0.00    +0.000 C 
ATOM     15  C   UNL     1      43.674  28.366  83.553  0.00  0.00    +0.000 C 
ATOM     16  C   UNL     1      41.416  22.323  82.323  0.00  0.00    +0.000 C 
ATOM     17  C   UNL     1      40.260  24.305  81.263  0.00  0.00    +0.000 C 
ATOM     18  C   UNL     1      40.962  20.891  82.688  0.00  0.00    +0.000 C 
ATOM     19  C   UNL     1      39.220  22.057  83.731  0.00  0.00    +0.000 C 
ATOM     20  C   UNL     1      39.742  20.727  83.453  0.00  0.00    +0.000 C 
ENDROOT
BRANCH   9  21
ATOM     21  O   UNL     1      46.017  27.814  85.249  0.00  0.00    +0.000 OA
ATOM     22  H   UNL     1      45.766  28.724  84.998  0.00  0.00    +0.000 HD
ENDBRANCH   9  21
TORSDOF 1
ENDMDL
MODEL 7
REMARK VINA RESULT:      -5.1     17.289     19.373
REMARK  Name = Testosterone.pdbqt.pdb
REMARK  1 active torsions:
REMARK  status: ('A' for Active; 'I' for Inactive)
REMARK    1  A    between atoms: C_9  and  O_21
REMARK                            x       y       z     vdW  Elec       q    Type
REMARK                         _______ _______ _______ _____ _____    ______ ____
ROOT
ATOM      1  O   UNL     1      47.987  14.528  72.260  0.00  0.00    +0.000 OA
ATOM      2  C   UNL     1      52.816  18.781  76.409  0.00  0.00    +0.000 C 
ATOM      3  C   UNL     1      52.354  19.523  77.752  0.00  0.00    +0.000 C 
ATOM      4  C   UNL     1      52.150  17.549  75.939  0.00  0.00    +0.000 C 
ATOM      5  C   UNL     1      50.828  17.018  76.421  0.00  0.00    +0.000 C 
ATOM      6  C   UNL     1      50.219  15.675  75.961  0.00  0.00    +0.000 C 
ATOM      7  C   UNL     1      50.999  19.041  78.028  0.00  0.00    +0.000 C 
ATOM      8  C   UNL     1      50.281  17.854  77.433  0.00  0.00    +0.000 C 
ATOM      9  C   UNL     1      52.374  21.022  77.365  0.00  0.00    +0.000 C 
ATOM     10  C   UNL     1      53.148  19.808  75.467  0.00  0.00    +0.000 C 
ATOM     11  C   UNL     1      52.661  16.817  74.842  0.00  0.00    +0.000 C 
ATOM     12  C   UNL     1      52.829  21.172  76.026  0.00  0.00    +0.000 C 
ATOM     13  C   UNL     1      50.815  15.082  74.535  0.00  0.00    +0.000 C 
ATOM     14  C   UNL     1      52.058  15.637  74.143  0.00  0.00    +0.000 C 
ATOM     15  C   UNL     1      53.357  19.238  78.897  0.00  0.00    +0.000 C 
ATOM     16  C   UNL     1      48.756  15.840  75.667  0.00  0.00    +0.000 C 
ATOM     17  C   UNL     1      50.468  14.589  77.043  0.00  0.00    +0.000 C 
ATOM     18  C   UNL     1      47.884  15.465  74.448  0.00  0.00    +0.000 C 
ATOM     19  C   UNL     1      49.950  14.777  73.590  0.00  0.00    +0.000 C 
ATOM     20  C   UNL     1      48.527  14.861  73.298  0.00  0.00    +0.000 C 
ENDROOT
BRANCH   9  21
ATOM     21  O   UNL     1      52.603  22.020  78.294  0.00  0.00    +0.000 OA
ATOM     22  H   UNL     1      53.543  22.051  78.557  0.00  0.00    +0.000 HD
ENDBRANCH   9  21
TORSDOF 1
ENDMDL
MODEL 8
REMARK VINA RESULT:      -4.8     46.511     48.134
REMARK  Name = Testosterone.pdbqt.pdb
REMARK  1 active torsions:
REMARK  status: ('A' for Active; 'I' for Inactive)
REMARK    1  A    between atoms: C_9  and  O_21
REMARK                            x       y       z     vdW  Elec       q    Type
REMARK                         _______ _______ _______ _____ _____    ______ ____
ROOT
ATOM      1  O   UNL     1      18.854  10.384  82.663  0.00  0.00    +0.000 OA
ATOM      2  C   UNL     1      17.473  16.443  87.134  0.00  0.00    +0.000 C 
ATOM      3  C   UNL     1      18.403  17.748  87.106  0.00  0.00    +0.000 C 
ATOM      4  C   UNL     1      17.336  15.567  85.953  0.00  0.00    +0.000 C 
ATOM      5  C   UNL     1      18.228  15.568  84.742  0.00  0.00    +0.000 C 
ATOM      6  C   UNL     1      17.987  14.691  83.494  0.00  0.00    +0.000 C 
ATOM      7  C   UNL     1      19.325  17.557  85.985  0.00  0.00    +0.000 C 
ATOM      8  C   UNL     1      19.242  16.559  84.856  0.00  0.00    +0.000 C 
ATOM      9  C   UNL     1      19.128  17.707  88.473  0.00  0.00    +0.000 C 
ATOM     10  C   UNL     1      17.625  15.860  88.434  0.00  0.00    +0.000 C 
ATOM     11  C   UNL     1      16.399  14.509  85.936  0.00  0.00    +0.000 C 
ATOM     12  C   UNL     1      18.673  16.595  89.233  0.00  0.00    +0.000 C 
ATOM     13  C   UNL     1      17.013  13.374  83.733  0.00  0.00    +0.000 C 
ATOM     14  C   UNL     1      16.210  13.443  84.899  0.00  0.00    +0.000 C 
ATOM     15  C   UNL     1      17.535  19.025  86.982  0.00  0.00    +0.000 C 
ATOM     16  C   UNL     1      19.275  14.073  83.034  0.00  0.00    +0.000 C 
ATOM     17  C   UNL     1      17.329  15.544  82.374  0.00  0.00    +0.000 C 
ATOM     18  C   UNL     1      19.678  12.619  82.698  0.00  0.00    +0.000 C 
ATOM     19  C   UNL     1      17.477  12.196  83.372  0.00  0.00    +0.000 C 
ATOM     20  C   UNL     1      18.690  11.572  82.865  0.00  0.00    +0.000 C 
ENDROOT
BRANCH   9  21
ATOM     21  O   UNL     1      19.562  18.855  89.111  0.00  0.00    +0.000 OA
ATOM     22  H   UNL     1      18.868  19.224  89.691  0.00  0.00    +0.000 HD
ENDBRANCH   9  21
TORSDOF 1
ENDMDL
MODEL 9
REMARK VINA RESULT:      -4.8     20.023     21.423
REMARK  Name = Testosterone.pdbqt.pdb
REMARK  1 active torsions:
REMARK  status: ('A' for Active; 'I' for Inactive)
REMARK    1  A    between atoms: C_9  and  O_21
REMARK                            x       y       z     vdW  Elec       q    Type
REMARK                         _______ _______ _______ _____ _____    ______ ____
ROOT
ATOM      1  O   UNL     1      41.012  26.253  85.916  0.00  0.00    +0.000 OA
ATOM      2  C   UNL     1      48.614  25.787  86.695  0.00  0.00    +0.000 C 
ATOM      3  C   UNL     1      49.373  24.378  86.779  0.00  0.00    +0.000 C 
ATOM      4  C   UNL     1      47.327  25.929  85.984  0.00  0.00    +0.000 C 
ATOM      5  C   UNL     1      46.429  24.806  85.544  0.00  0.00    +0.000 C 
ATOM      6  C   UNL     1      45.137  25.007  84.723  0.00  0.00    +0.000 C 
ATOM      7  C   UNL     1      48.362  23.361  86.484  0.00  0.00    +0.000 C 
ATOM      8  C   UNL     1      46.990  23.543  85.881  0.00  0.00    +0.000 C 
ATOM      9  C   UNL     1      49.859  24.313  88.247  0.00  0.00    +0.000 C 
ATOM     10  C   UNL     1      48.795  26.425  87.965  0.00  0.00    +0.000 C 
ATOM     11  C   UNL     1      46.742  27.201  85.784  0.00  0.00    +0.000 C 
ATOM     12  C   UNL     1      49.505  25.508  88.930  0.00  0.00    +0.000 C 
ATOM     13  C   UNL     1      44.493  26.531  84.782  0.00  0.00    +0.000 C 
ATOM     14  C   UNL     1      45.396  27.533  85.216  0.00  0.00    +0.000 C 
ATOM     15  C   UNL     1      50.574  24.356  85.801  0.00  0.00    +0.000 C 
ATOM     16  C   UNL     1      44.031  24.156  85.276  0.00  0.00    +0.000 C 
ATOM     17  C   UNL     1      45.411  24.690  83.227  0.00  0.00    +0.000 C 
ATOM     18  C   UNL     1      42.577  24.472  85.697  0.00  0.00    +0.000 C 
ATOM     19  C   UNL     1      43.228  26.648  85.131  0.00  0.00    +0.000 C 
ATOM     20  C   UNL     1      42.114  25.842  85.607  0.00  0.00    +0.000 C 
ENDROOT
BRANCH   9  21
ATOM     21  O   UNL     1      50.988  23.607  88.619  0.00  0.00    +0.000 OA
ATOM     22  H   UNL     1      51.751  24.202  88.754  0.00  0.00    +0.000 HD
ENDBRANCH   9  21
TORSDOF 1
ENDMDL
