MODEL 1
REMARK VINA RESULT:      -3.0      0.000      0.000
REMARK  Name = Tetrachloroethylene.pdbqt.pdb
REMARK  0 active torsions:
REMARK  status: ('A' for Active; 'I' for Inactive)
REMARK                            x       y       z     vdW  Elec       q    Type
REMARK                         _______ _______ _______ _____ _____    ______ ____
ROOT
ATOM      1 CL   UNL     1      56.727  34.230  79.436  0.00  0.00    +0.000 Cl
ATOM      2 CL   UNL     1      56.333  36.435  81.322  0.00  0.00    +0.000 Cl
ATOM      3 CL   UNL     1      58.033  34.841  83.541  0.00  0.00    +0.000 Cl
ATOM      4 CL   UNL     1      58.427  32.635  81.655  0.00  0.00    +0.000 Cl
ATOM      5  C   UNL     1      57.025  34.868  81.025  0.00  0.00    +0.000 C 
ATOM      6  C   UNL     1      57.735  34.202  81.952  0.00  0.00    +0.000 C 
ENDROOT
TORSDOF 0
ENDMDL
MODEL 2
REMARK VINA RESULT:      -2.9      1.212      3.453
REMARK  Name = Tetrachloroethylene.pdbqt.pdb
REMARK  0 active torsions:
REMARK  status: ('A' for Active; 'I' for Inactive)
REMARK                            x       y       z     vdW  Elec       q    Type
REMARK                         _______ _______ _______ _____ _____    ______ ____
ROOT
ATOM      1 CL   UNL     1      58.053  33.876  82.479  0.00  0.00    +0.000 Cl
ATOM      2 CL   UNL     1      57.377  33.436  79.664  0.00  0.00    +0.000 Cl
ATOM      3 CL   UNL     1      56.026  36.353  79.532  0.00  0.00    +0.000 Cl
ATOM      4 CL   UNL     1      56.701  36.794  82.347  0.00  0.00    +0.000 Cl
ATOM      5  C   UNL     1      57.321  34.505  81.033  0.00  0.00    +0.000 C 
ATOM      6  C   UNL     1      56.757  35.724  80.978  0.00  0.00    +0.000 C 
ENDROOT
TORSDOF 0
ENDMDL
MODEL 3
REMARK VINA RESULT:      -2.9      1.196      1.689
REMARK  Name = Tetrachloroethylene.pdbqt.pdb
REMARK  0 active torsions:
REMARK  status: ('A' for Active; 'I' for Inactive)
REMARK                            x       y       z     vdW  Elec       q    Type
REMARK                         _______ _______ _______ _____ _____    ______ ____
ROOT
ATOM      1 CL   UNL     1      56.052  36.435  79.642  0.00  0.00    +0.000 Cl
ATOM      2 CL   UNL     1      56.776  36.740  82.463  0.00  0.00    +0.000 Cl
ATOM      3 CL   UNL     1      58.060  33.789  82.452  0.00  0.00    +0.000 Cl
ATOM      4 CL   UNL     1      57.336  33.484  79.632  0.00  0.00    +0.000 Cl
ATOM      5  C   UNL     1      56.788  35.728  81.050  0.00  0.00    +0.000 C 
ATOM      6  C   UNL     1      57.324  34.496  81.045  0.00  0.00    +0.000 C 
ENDROOT
TORSDOF 0
ENDMDL
MODEL 4
REMARK VINA RESULT:      -2.9      2.519      3.286
REMARK  Name = Tetrachloroethylene.pdbqt.pdb
REMARK  0 active torsions:
REMARK  status: ('A' for Active; 'I' for Inactive)
REMARK                            x       y       z     vdW  Elec       q    Type
REMARK                         _______ _______ _______ _____ _____    ______ ____
ROOT
ATOM      1 CL   UNL     1      59.304  35.750  80.218  0.00  0.00    +0.000 Cl
ATOM      2 CL   UNL     1      57.383  37.305  78.648  0.00  0.00    +0.000 Cl
ATOM      3 CL   UNL     1      55.362  34.801  78.641  0.00  0.00    +0.000 Cl
ATOM      4 CL   UNL     1      57.282  33.246  80.212  0.00  0.00    +0.000 Cl
ATOM      5  C   UNL     1      57.755  35.798  79.431  0.00  0.00    +0.000 C 
ATOM      6  C   UNL     1      56.911  34.753  79.428  0.00  0.00    +0.000 C 
ENDROOT
TORSDOF 0
ENDMDL
MODEL 5
REMARK VINA RESULT:      -2.9      2.501      3.446
REMARK  Name = Tetrachloroethylene.pdbqt.pdb
REMARK  0 active torsions:
REMARK  status: ('A' for Active; 'I' for Inactive)
REMARK                            x       y       z     vdW  Elec       q    Type
REMARK                         _______ _______ _______ _____ _____    ______ ____
ROOT
ATOM      1 CL   UNL     1      55.378  34.742  78.578  0.00  0.00    +0.000 Cl
ATOM      2 CL   UNL     1      57.267  33.219  80.217  0.00  0.00    +0.000 Cl
ATOM      3 CL   UNL     1      59.251  35.752  80.285  0.00  0.00    +0.000 Cl
ATOM      4 CL   UNL     1      57.362  37.275  78.646  0.00  0.00    +0.000 Cl
ATOM      5  C   UNL     1      56.900  34.718  79.417  0.00  0.00    +0.000 C 
ATOM      6  C   UNL     1      57.729  35.776  79.446  0.00  0.00    +0.000 C 
ENDROOT
TORSDOF 0
ENDMDL
MODEL 6
REMARK VINA RESULT:      -2.9      2.504      3.329
REMARK  Name = Tetrachloroethylene.pdbqt.pdb
REMARK  0 active torsions:
REMARK  status: ('A' for Active; 'I' for Inactive)
REMARK                            x       y       z     vdW  Elec       q    Type
REMARK                         _______ _______ _______ _____ _____    ______ ____
ROOT
ATOM      1 CL   UNL     1      57.261  33.216  80.197  0.00  0.00    +0.000 Cl
ATOM      2 CL   UNL     1      55.381  34.790  78.597  0.00  0.00    +0.000 Cl
ATOM      3 CL   UNL     1      57.408  37.288  78.672  0.00  0.00    +0.000 Cl
ATOM      4 CL   UNL     1      59.288  35.714  80.272  0.00  0.00    +0.000 Cl
ATOM      5  C   UNL     1      56.911  34.730  79.419  0.00  0.00    +0.000 C 
ATOM      6  C   UNL     1      57.758  35.774  79.450  0.00  0.00    +0.000 C 
ENDROOT
TORSDOF 0
ENDMDL
MODEL 7
REMARK VINA RESULT:      -2.8      1.259      3.481
REMARK  Name = Tetrachloroethylene.pdbqt.pdb
REMARK  0 active torsions:
REMARK  status: ('A' for Active; 'I' for Inactive)
REMARK                            x       y       z     vdW  Elec       q    Type
REMARK                         _______ _______ _______ _____ _____    ______ ____
ROOT
ATOM      1 CL   UNL     1      57.266  36.379  82.733  0.00  0.00    +0.000 Cl
ATOM      2 CL   UNL     1      58.603  33.788  82.459  0.00  0.00    +0.000 Cl
ATOM      3 CL   UNL     1      57.401  33.481  79.490  0.00  0.00    +0.000 Cl
ATOM      4 CL   UNL     1      56.065  36.072  79.763  0.00  0.00    +0.000 Cl
ATOM      5  C   UNL     1      57.585  34.994  81.731  0.00  0.00    +0.000 C 
ATOM      6  C   UNL     1      57.083  34.866  80.491  0.00  0.00    +0.000 C 
ENDROOT
TORSDOF 0
ENDMDL
MODEL 8
REMARK VINA RESULT:      -2.8      1.006      2.463
REMARK  Name = Tetrachloroethylene.pdbqt.pdb
REMARK  0 active torsions:
REMARK  status: ('A' for Active; 'I' for Inactive)
REMARK                            x       y       z     vdW  Elec       q    Type
REMARK                         _______ _______ _______ _____ _____    ______ ____
ROOT
ATOM      1 CL   UNL     1      56.154  36.355  80.161  0.00  0.00    +0.000 Cl
ATOM      2 CL   UNL     1      57.228  33.729  79.437  0.00  0.00    +0.000 Cl
ATOM      3 CL   UNL     1      58.690  33.538  82.297  0.00  0.00    +0.000 Cl
ATOM      4 CL   UNL     1      57.616  36.164  83.021  0.00  0.00    +0.000 Cl
ATOM      5  C   UNL     1      57.117  34.986  80.632  0.00  0.00    +0.000 C 
ATOM      6  C   UNL     1      57.727  34.907  81.826  0.00  0.00    +0.000 C 
ENDROOT
TORSDOF 0
ENDMDL
MODEL 9
REMARK VINA RESULT:      -2.8      2.387      4.074
REMARK  Name = Tetrachloroethylene.pdbqt.pdb
REMARK  0 active torsions:
REMARK  status: ('A' for Active; 'I' for Inactive)
REMARK                            x       y       z     vdW  Elec       q    Type
REMARK                         _______ _______ _______ _____ _____    ______ ____
ROOT
ATOM      1 CL   UNL     1      59.178  35.589  80.281  0.00  0.00    +0.000 Cl
ATOM      2 CL   UNL     1      57.398  33.264  80.319  0.00  0.00    +0.000 Cl
ATOM      3 CL   UNL     1      55.261  34.872  78.529  0.00  0.00    +0.000 Cl
ATOM      4 CL   UNL     1      57.041  37.196  78.491  0.00  0.00    +0.000 Cl
ATOM      5  C   UNL     1      57.666  34.895  79.778  0.00  0.00    +0.000 C 
ATOM      6  C   UNL     1      56.773  35.566  79.031  0.00  0.00    +0.000 C 
ENDROOT
TORSDOF 0
ENDMDL
