REMARK  Name = Tetrachloroethylene.pdbqt.pdb
REMARK  0 active torsions:
REMARK  status: ('A' for Active; 'I' for Inactive)
REMARK                            x       y       z     vdW  Elec       q    Type
REMARK                         _______ _______ _______ _____ _____    ______ ____
ROOT
ATOM      1 CL   UNL     1      -1.609  -1.464   0.000  0.00  0.00    +0.000 Cl
ATOM      2 CL   UNL     1      -1.609   1.464   0.000  0.00  0.00    +0.000 Cl
ATOM      3 CL   UNL     1       1.609   1.464   0.000  0.00  0.00    +0.000 Cl
ATOM      4 CL   UNL     1       1.609  -1.464   0.000  0.00  0.00    +0.000 Cl
ATOM      5  C   UNL     1      -0.672   0.000   0.000  0.00  0.00    +0.000 C 
ATOM      6  C   UNL     1       0.672   0.000   0.000  0.00  0.00    +0.000 C 
ENDROOT
TORSDOF 0
