MODEL 1
REMARK VINA RESULT:      -7.3      0.000      0.000
REMARK  Name = Thalidomide.pdbqt.pdb
REMARK  1 active torsions:
REMARK  status: ('A' for Active; 'I' for Inactive)
REMARK    1  A    between atoms: N_3  and  C_12
REMARK                            x       y       z     vdW  Elec       q    Type
REMARK                         _______ _______ _______ _____ _____    ______ ____
ROOT
ATOM      1  O   UNL     1      58.304  37.902  78.492  0.00  0.00    +0.000 OA
ATOM      2  O   UNL     1      55.303  34.634  77.276  0.00  0.00    +0.000 OA
ATOM      3  N   UNL     1      56.816  36.436  77.401  0.00  0.00    +0.000 N 
ATOM      4  C   UNL     1      57.686  36.859  78.380  0.00  0.00    +0.000 C 
ATOM      5  C   UNL     1      56.266  35.218  77.736  0.00  0.00    +0.000 C 
ATOM      6  C   UNL     1      57.792  35.775  79.350  0.00  0.00    +0.000 A 
ATOM      7  C   UNL     1      56.942  34.767  78.946  0.00  0.00    +0.000 A 
ATOM      8  C   UNL     1      58.550  35.682  80.499  0.00  0.00    +0.000 A 
ATOM      9  C   UNL     1      56.782  33.606  79.672  0.00  0.00    +0.000 A 
ATOM     10  C   UNL     1      58.417  34.508  81.243  0.00  0.00    +0.000 A 
ATOM     11  C   UNL     1      57.545  33.484  80.836  0.00  0.00    +0.000 A 
ENDROOT
BRANCH   3  12
ATOM     12  C   UNL     1      56.446  37.180  76.308  0.00  0.00    +0.000 C 
ATOM     13  C   UNL     1      56.915  36.921  75.001  0.00  0.00    +0.000 C 
ATOM     14  C   UNL     1      56.632  37.842  73.855  0.00  0.00    +0.000 C 
ATOM     15  C   UNL     1      55.825  39.017  74.001  0.00  0.00    +0.000 C 
ATOM     16  O   UNL     1      55.532  39.725  73.051  0.00  0.00    +0.000 OA
ATOM     17  N   UNL     1      55.379  39.211  75.306  0.00  0.00    +0.000 N 
ATOM     18  C   UNL     1      55.461  38.341  76.402  0.00  0.00    +0.000 C 
ATOM     19  H   UNL     1      54.700  39.951  75.409  0.00  0.00    +0.000 HD
ATOM     20  O   UNL     1      54.666  38.450  77.331  0.00  0.00    +0.000 OA
ENDBRANCH   3  12
TORSDOF 1
ENDMDL
MODEL 2
REMARK VINA RESULT:      -7.0      3.053      6.533
REMARK  Name = Thalidomide.pdbqt.pdb
REMARK  1 active torsions:
REMARK  status: ('A' for Active; 'I' for Inactive)
REMARK    1  A    between atoms: N_3  and  C_12
REMARK                            x       y       z     vdW  Elec       q    Type
REMARK                         _______ _______ _______ _____ _____    ______ ____
ROOT
ATOM      1  O   UNL     1      59.546  36.533  79.293  0.00  0.00    +0.000 OA
ATOM      2  O   UNL     1      55.383  34.576  79.366  0.00  0.00    +0.000 OA
ATOM      3  N   UNL     1      57.415  35.678  79.823  0.00  0.00    +0.000 N 
ATOM      4  C   UNL     1      58.425  36.149  79.015  0.00  0.00    +0.000 C 
ATOM      5  C   UNL     1      56.344  35.259  79.065  0.00  0.00    +0.000 C 
ATOM      6  C   UNL     1      57.912  36.144  77.650  0.00  0.00    +0.000 A 
ATOM      7  C   UNL     1      56.637  35.621  77.683  0.00  0.00    +0.000 A 
ATOM      8  C   UNL     1      58.513  36.543  76.474  0.00  0.00    +0.000 A 
ATOM      9  C   UNL     1      55.883  35.447  76.542  0.00  0.00    +0.000 A 
ATOM     10  C   UNL     1      57.764  36.392  75.305  0.00  0.00    +0.000 A 
ATOM     11  C   UNL     1      56.466  35.851  75.338  0.00  0.00    +0.000 A 
ENDROOT
BRANCH   3  12
ATOM     12  C   UNL     1      57.510  35.525  81.184  0.00  0.00    +0.000 C 
ATOM     13  C   UNL     1      56.987  36.460  82.106  0.00  0.00    +0.000 C 
ATOM     14  C   UNL     1      57.246  36.357  83.577  0.00  0.00    +0.000 C 
ATOM     15  C   UNL     1      57.995  35.277  84.148  0.00  0.00    +0.000 C 
ATOM     16  O   UNL     1      58.140  35.154  85.353  0.00  0.00    +0.000 OA
ATOM     17  N   UNL     1      58.469  34.381  83.194  0.00  0.00    +0.000 N 
ATOM     18  C   UNL     1      58.160  34.305  81.828  0.00  0.00    +0.000 C 
ATOM     19  H   UNL     1      58.881  33.543  83.577  0.00  0.00    +0.000 HD
ATOM     20  O   UNL     1      58.294  33.242  81.229  0.00  0.00    +0.000 OA
ENDBRANCH   3  12
TORSDOF 1
ENDMDL
MODEL 3
REMARK VINA RESULT:      -7.0      1.726      2.700
REMARK  Name = Thalidomide.pdbqt.pdb
REMARK  1 active torsions:
REMARK  status: ('A' for Active; 'I' for Inactive)
REMARK    1  A    between atoms: N_3  and  C_12
REMARK                            x       y       z     vdW  Elec       q    Type
REMARK                         _______ _______ _______ _____ _____    ______ ____
ROOT
ATOM      1  O   UNL     1      58.297  38.873  76.881  0.00  0.00    +0.000 OA
ATOM      2  O   UNL     1      54.238  36.884  76.023  0.00  0.00    +0.000 OA
ATOM      3  N   UNL     1      56.317  37.993  75.956  0.00  0.00    +0.000 N 
ATOM      4  C   UNL     1      57.331  38.133  76.876  0.00  0.00    +0.000 C 
ATOM      5  C   UNL     1      55.371  37.098  76.410  0.00  0.00    +0.000 C 
ATOM      6  C   UNL     1      57.077  37.165  77.937  0.00  0.00    +0.000 A 
ATOM      7  C   UNL     1      55.894  36.520  77.642  0.00  0.00    +0.000 A 
ATOM      8  C   UNL     1      57.805  36.882  79.074  0.00  0.00    +0.000 A 
ATOM      9  C   UNL     1      55.352  35.562  78.473  0.00  0.00    +0.000 A 
ATOM     10  C   UNL     1      57.284  35.904  79.924  0.00  0.00    +0.000 A 
ATOM     11  C   UNL     1      56.074  35.253  79.627  0.00  0.00    +0.000 A 
ENDROOT
BRANCH   3  12
ATOM     12  C   UNL     1      56.194  38.736  74.808  0.00  0.00    +0.000 C 
ATOM     13  C   UNL     1      55.901  40.118  74.809  0.00  0.00    +0.000 C 
ATOM     14  C   UNL     1      55.608  40.870  73.548  0.00  0.00    +0.000 C 
ATOM     15  C   UNL     1      55.657  40.250  72.258  0.00  0.00    +0.000 C 
ATOM     16  O   UNL     1      55.492  40.881  71.227  0.00  0.00    +0.000 OA
ATOM     17  N   UNL     1      55.966  38.893  72.320  0.00  0.00    +0.000 N 
ATOM     18  C   UNL     1      56.399  38.139  73.420  0.00  0.00    +0.000 C 
ATOM     19  H   UNL     1      56.140  38.464  71.423  0.00  0.00    +0.000 HD
ATOM     20  O   UNL     1      57.036  37.105  73.240  0.00  0.00    +0.000 OA
ENDBRANCH   3  12
TORSDOF 1
ENDMDL
MODEL 4
REMARK VINA RESULT:      -5.9     55.910     58.088
REMARK  Name = Thalidomide.pdbqt.pdb
REMARK  1 active torsions:
REMARK  status: ('A' for Active; 'I' for Inactive)
REMARK    1  A    between atoms: N_3  and  C_12
REMARK                            x       y       z     vdW  Elec       q    Type
REMARK                         _______ _______ _______ _____ _____    ______ ____
ROOT
ATOM      1  O   UNL     1      12.616   5.376 101.050  0.00  0.00    +0.000 OA
ATOM      2  O   UNL     1      14.724   5.358  96.961  0.00  0.00    +0.000 OA
ATOM      3  N   UNL     1      13.459   4.915  98.899  0.00  0.00    +0.000 N 
ATOM      4  C   UNL     1      13.099   5.689  99.978  0.00  0.00    +0.000 C 
ATOM      5  C   UNL     1      14.065   5.684  97.930  0.00  0.00    +0.000 C 
ATOM      6  C   UNL     1      13.385   7.074  99.619  0.00  0.00    +0.000 A 
ATOM      7  C   UNL     1      13.954   7.072  98.363  0.00  0.00    +0.000 A 
ATOM      8  C   UNL     1      13.185   8.236 100.334  0.00  0.00    +0.000 A 
ATOM      9  C   UNL     1      14.375   8.231  97.745  0.00  0.00    +0.000 A 
ATOM     10  C   UNL     1      13.588   9.425  99.723  0.00  0.00    +0.000 A 
ATOM     11  C   UNL     1      14.176   9.423  98.445  0.00  0.00    +0.000 A 
ENDROOT
BRANCH   3  12
ATOM     12  C   UNL     1      13.350   3.547  98.847  0.00  0.00    +0.000 C 
ATOM     13  C   UNL     1      14.385   2.673  99.246  0.00  0.00    +0.000 C 
ATOM     14  C   UNL     1      14.308   1.193  99.026  0.00  0.00    +0.000 C 
ATOM     15  C   UNL     1      13.158   0.566  98.445  0.00  0.00    +0.000 C 
ATOM     16  O   UNL     1      13.066  -0.646  98.337  0.00  0.00    +0.000 OA
ATOM     17  N   UNL     1      12.166   1.475  98.088  0.00  0.00    +0.000 N 
ATOM     18  C   UNL     1      12.078   2.843  98.384  0.00  0.00    +0.000 C 
ATOM     19  H   UNL     1      11.295   1.052  97.804  0.00  0.00    +0.000 HD
ATOM     20  O   UNL     1      10.983   3.398  98.393  0.00  0.00    +0.000 OA
ENDBRANCH   3  12
TORSDOF 1
ENDMDL
MODEL 5
REMARK VINA RESULT:      -5.7      6.127      8.989
REMARK  Name = Thalidomide.pdbqt.pdb
REMARK  1 active torsions:
REMARK  status: ('A' for Active; 'I' for Inactive)
REMARK    1  A    between atoms: N_3  and  C_12
REMARK                            x       y       z     vdW  Elec       q    Type
REMARK                         _______ _______ _______ _____ _____    ______ ____
ROOT
ATOM      1  O   UNL     1      58.219  34.349  85.537  0.00  0.00    +0.000 OA
ATOM      2  O   UNL     1      56.425  37.783  83.057  0.00  0.00    +0.000 OA
ATOM      3  N   UNL     1      57.394  36.386  84.689  0.00  0.00    +0.000 N 
ATOM      4  C   UNL     1      57.911  35.111  84.640  0.00  0.00    +0.000 C 
ATOM      5  C   UNL     1      57.099  36.839  83.420  0.00  0.00    +0.000 C 
ATOM      6  C   UNL     1      58.073  34.774  83.230  0.00  0.00    +0.000 A 
ATOM      7  C   UNL     1      57.598  35.835  82.488  0.00  0.00    +0.000 A 
ATOM      8  C   UNL     1      58.574  33.631  82.643  0.00  0.00    +0.000 A 
ATOM      9  C   UNL     1      57.577  35.817  81.109  0.00  0.00    +0.000 A 
ATOM     10  C   UNL     1      58.579  33.596  81.247  0.00  0.00    +0.000 A 
ATOM     11  C   UNL     1      58.087  34.673  80.490  0.00  0.00    +0.000 A 
ENDROOT
BRANCH   3  12
ATOM     12  C   UNL     1      57.090  37.063  85.844  0.00  0.00    +0.000 C 
ATOM     13  C   UNL     1      55.853  36.934  86.514  0.00  0.00    +0.000 C 
ATOM     14  C   UNL     1      55.481  37.804  87.675  0.00  0.00    +0.000 C 
ATOM     15  C   UNL     1      56.375  38.786  88.212  0.00  0.00    +0.000 C 
ATOM     16  O   UNL     1      56.101  39.440  89.204  0.00  0.00    +0.000 OA
ATOM     17  N   UNL     1      57.583  38.856  87.521  0.00  0.00    +0.000 N 
ATOM     18  C   UNL     1      58.082  37.996  86.532  0.00  0.00    +0.000 C 
ATOM     19  H   UNL     1      58.280  39.439  87.959  0.00  0.00    +0.000 HD
ATOM     20  O   UNL     1      59.292  37.920  86.340  0.00  0.00    +0.000 OA
ENDBRANCH   3  12
TORSDOF 1
ENDMDL
MODEL 6
REMARK VINA RESULT:      -5.5     55.964     57.442
REMARK  Name = Thalidomide.pdbqt.pdb
REMARK  1 active torsions:
REMARK  status: ('A' for Active; 'I' for Inactive)
REMARK    1  A    between atoms: N_3  and  C_12
REMARK                            x       y       z     vdW  Elec       q    Type
REMARK                         _______ _______ _______ _____ _____    ______ ____
ROOT
ATOM      1  O   UNL     1      10.029   7.820 100.004  0.00  0.00    +0.000 OA
ATOM      2  O   UNL     1      14.056  10.019 100.345  0.00  0.00    +0.000 OA
ATOM      3  N   UNL     1      12.227   8.642  99.787  0.00  0.00    +0.000 N 
ATOM      4  C   UNL     1      10.900   8.658 100.151  0.00  0.00    +0.000 C 
ATOM      5  C   UNL     1      12.869   9.771 100.246  0.00  0.00    +0.000 C 
ATOM      6  C   UNL     1      10.649   9.949 100.781  0.00  0.00    +0.000 A 
ATOM      7  C   UNL     1      11.845  10.635 100.820  0.00  0.00    +0.000 A 
ATOM      8  C   UNL     1       9.482  10.475 101.295  0.00  0.00    +0.000 A 
ATOM      9  C   UNL     1      11.957  11.886 101.390  0.00  0.00    +0.000 A 
ATOM     10  C   UNL     1       9.566  11.748 101.863  0.00  0.00    +0.000 A 
ATOM     11  C   UNL     1      10.787  12.444 101.911  0.00  0.00    +0.000 A 
ENDROOT
BRANCH   3  12
ATOM     12  C   UNL     1      12.856   7.589  99.169  0.00  0.00    +0.000 C 
ATOM     13  C   UNL     1      13.434   7.682  97.883  0.00  0.00    +0.000 C 
ATOM     14  C   UNL     1      13.966   6.482  97.161  0.00  0.00    +0.000 C 
ATOM     15  C   UNL     1      13.970   5.175  97.748  0.00  0.00    +0.000 C 
ATOM     16  O   UNL     1      14.472   4.214  97.190  0.00  0.00    +0.000 OA
ATOM     17  N   UNL     1      13.402   5.150  99.020  0.00  0.00    +0.000 N 
ATOM     18  C   UNL     1      13.019   6.226  99.834  0.00  0.00    +0.000 C 
ATOM     19  H   UNL     1      13.515   4.275  99.509  0.00  0.00    +0.000 HD
ATOM     20  O   UNL     1      12.955   6.081 101.051  0.00  0.00    +0.000 OA
ENDBRANCH   3  12
TORSDOF 1
ENDMDL
MODEL 7
REMARK VINA RESULT:      -5.4     42.418     44.028
REMARK  Name = Thalidomide.pdbqt.pdb
REMARK  1 active torsions:
REMARK  status: ('A' for Active; 'I' for Inactive)
REMARK    1  A    between atoms: N_3  and  C_12
REMARK                            x       y       z     vdW  Elec       q    Type
REMARK                         _______ _______ _______ _____ _____    ______ ____
ROOT
ATOM      1  O   UNL     1      17.648  18.204  91.661  0.00  0.00    +0.000 OA
ATOM      2  O   UNL     1      21.223  16.588  89.257  0.00  0.00    +0.000 OA
ATOM      3  N   UNL     1      19.182  17.481  90.024  0.00  0.00    +0.000 N 
ATOM      4  C   UNL     1      18.764  17.936  91.254  0.00  0.00    +0.000 C 
ATOM      5  C   UNL     1      20.534  17.214  90.039  0.00  0.00    +0.000 C 
ATOM      6  C   UNL     1      19.958  18.088  92.077  0.00  0.00    +0.000 A 
ATOM      7  C   UNL     1      21.038  17.667  91.330  0.00  0.00    +0.000 A 
ATOM      8  C   UNL     1      20.091  18.535  93.375  0.00  0.00    +0.000 A 
ATOM      9  C   UNL     1      22.321  17.651  91.836  0.00  0.00    +0.000 A 
ATOM     10  C   UNL     1      21.383  18.544  93.905  0.00  0.00    +0.000 A 
ATOM     11  C   UNL     1      22.483  18.107  93.147  0.00  0.00    +0.000 A 
ENDROOT
BRANCH   3  12
ATOM     12  C   UNL     1      18.349  17.206  88.968  0.00  0.00    +0.000 C 
ATOM     13  C   UNL     1      17.905  15.903  88.652  0.00  0.00    +0.000 C 
ATOM     14  C   UNL     1      17.135  15.605  87.402  0.00  0.00    +0.000 C 
ATOM     15  C   UNL     1      16.755  16.629  86.475  0.00  0.00    +0.000 C 
ATOM     16  O   UNL     1      16.064  16.396  85.498  0.00  0.00    +0.000 OA
ATOM     17  N   UNL     1      17.207  17.893  86.848  0.00  0.00    +0.000 N 
ATOM     18  C   UNL     1      17.795  18.296  88.055  0.00  0.00    +0.000 C 
ATOM     19  H   UNL     1      16.840  18.648  86.288  0.00  0.00    +0.000 HD
ATOM     20  O   UNL     1      17.735  19.472  88.403  0.00  0.00    +0.000 OA
ENDBRANCH   3  12
TORSDOF 1
ENDMDL
MODEL 8
REMARK VINA RESULT:      -5.4      9.827     11.040
REMARK  Name = Thalidomide.pdbqt.pdb
REMARK  1 active torsions:
REMARK  status: ('A' for Active; 'I' for Inactive)
REMARK    1  A    between atoms: N_3  and  C_12
REMARK                            x       y       z     vdW  Elec       q    Type
REMARK                         _______ _______ _______ _____ _____    ______ ____
ROOT
ATOM      1  O   UNL     1      59.025  33.330  69.140  0.00  0.00    +0.000 OA
ATOM      2  O   UNL     1      60.477  29.032  69.904  0.00  0.00    +0.000 OA
ATOM      3  N   UNL     1      59.877  31.137  69.029  0.00  0.00    +0.000 N 
ATOM      4  C   UNL     1      59.519  32.327  69.620  0.00  0.00    +0.000 C 
ATOM      5  C   UNL     1      60.309  30.235  69.978  0.00  0.00    +0.000 C 
ATOM      6  C   UNL     1      59.863  32.218  71.033  0.00  0.00    +0.000 A 
ATOM      7  C   UNL     1      60.362  30.951  71.247  0.00  0.00    +0.000 A 
ATOM      8  C   UNL     1      59.732  33.139  72.052  0.00  0.00    +0.000 A 
ATOM      9  C   UNL     1      60.751  30.514  72.496  0.00  0.00    +0.000 A 
ATOM     10  C   UNL     1      60.134  32.726  73.324  0.00  0.00    +0.000 A 
ATOM     11  C   UNL     1      60.636  31.431  73.544  0.00  0.00    +0.000 A 
ENDROOT
BRANCH   3  12
ATOM     12  C   UNL     1      59.707  30.841  67.699  0.00  0.00    +0.000 C 
ATOM     13  C   UNL     1      58.598  30.121  67.203  0.00  0.00    +0.000 C 
ATOM     14  C   UNL     1      58.516  29.667  65.778  0.00  0.00    +0.000 C 
ATOM     15  C   UNL     1      59.531  29.979  64.816  0.00  0.00    +0.000 C 
ATOM     16  O   UNL     1      59.426  29.675  63.640  0.00  0.00    +0.000 OA
ATOM     17  N   UNL     1      60.590  30.703  65.360  0.00  0.00    +0.000 N 
ATOM     18  C   UNL     1      60.690  31.298  66.626  0.00  0.00    +0.000 C 
ATOM     19  H   UNL     1      61.249  31.052  64.680  0.00  0.00    +0.000 HD
ATOM     20  O   UNL     1      61.456  32.241  66.800  0.00  0.00    +0.000 OA
ENDBRANCH   3  12
TORSDOF 1
ENDMDL
MODEL 9
REMARK VINA RESULT:      -5.3     16.350     17.326
REMARK  Name = Thalidomide.pdbqt.pdb
REMARK  1 active torsions:
REMARK  status: ('A' for Active; 'I' for Inactive)
REMARK    1  A    between atoms: N_3  and  C_12
REMARK                            x       y       z     vdW  Elec       q    Type
REMARK                         _______ _______ _______ _____ _____    ______ ____
ROOT
ATOM      1  O   UNL     1      45.064  24.341  86.981  0.00  0.00    +0.000 OA
ATOM      2  O   UNL     1      47.793  25.424  83.439  0.00  0.00    +0.000 OA
ATOM      3  N   UNL     1      46.220  25.349  85.192  0.00  0.00    +0.000 N 
ATOM      4  C   UNL     1      46.004  24.455  86.216  0.00  0.00    +0.000 C 
ATOM      5  C   UNL     1      47.383  25.043  84.519  0.00  0.00    +0.000 C 
ATOM      6  C   UNL     1      47.178  23.592  86.279  0.00  0.00    +0.000 A 
ATOM      7  C   UNL     1      48.027  23.963  85.258  0.00  0.00    +0.000 A 
ATOM      8  C   UNL     1      47.473  22.555  87.140  0.00  0.00    +0.000 A 
ATOM      9  C   UNL     1      49.220  23.314  85.020  0.00  0.00    +0.000 A 
ATOM     10  C   UNL     1      48.684  21.892  86.930  0.00  0.00    +0.000 A 
ATOM     11  C   UNL     1      49.546  22.266  85.884  0.00  0.00    +0.000 A 
ENDROOT
BRANCH   3  12
ATOM     12  C   UNL     1      45.337  26.328  84.809  0.00  0.00    +0.000 C 
ATOM     13  C   UNL     1      44.175  26.067  84.049  0.00  0.00    +0.000 C 
ATOM     14  C   UNL     1      43.317  27.166  83.502  0.00  0.00    +0.000 C 
ATOM     15  C   UNL     1      43.590  28.549  83.760  0.00  0.00    +0.000 C 
ATOM     16  O   UNL     1      42.848  29.439  83.378  0.00  0.00    +0.000 OA
ATOM     17  N   UNL     1      44.737  28.742  84.526  0.00  0.00    +0.000 N 
ATOM     18  C   UNL     1      45.513  27.791  85.204  0.00  0.00    +0.000 C 
ATOM     19  H   UNL     1      44.876  29.693  84.836  0.00  0.00    +0.000 HD
ATOM     20  O   UNL     1      46.199  28.131  86.163  0.00  0.00    +0.000 OA
ENDBRANCH   3  12
TORSDOF 1
ENDMDL
