MODEL 1
REMARK VINA RESULT:      -6.8      0.000      0.000
REMARK  Name = Thapsigargin.pdbqt.pdb
REMARK  10 active torsions:
REMARK  status: ('A' for Active; 'I' for Inactive)
REMARK    1  A    between atoms: O_2  and  C_24
REMARK    2  A    between atoms: C_17  and  O_43
REMARK    3  A    between atoms: C_19  and  C_24
REMARK    4  A    between atoms: C_19  and  O_47
REMARK    5  A    between atoms: C_27  and  C_35
REMARK    6  A    between atoms: C_35  and  C_36
REMARK    7  A    between atoms: C_37  and  C_38
REMARK    8  A    between atoms: C_39  and  C_40
REMARK    9  A    between atoms: C_42  and  O_43
REMARK   10  A    between atoms: C_42  and  C_44
REMARK                            x       y       z     vdW  Elec       q    Type
REMARK                         _______ _______ _______ _____ _____    ______ ____
ROOT
ATOM      1  O   UNL     1      58.052  36.015  72.563  0.00  0.00    +0.000 OA
ATOM      2  O   UNL     1      62.939  33.856  75.420  0.00  0.00    +0.000 OA
ATOM      3  O   UNL     1      63.852  34.512  73.123  0.00  0.00    +0.000 OA
ATOM      4  O   UNL     1      60.929  31.634  72.346  0.00  0.00    +0.000 OA
ATOM      5  O   UNL     1      56.594  37.708  72.080  0.00  0.00    +0.000 OA
ATOM      6  O   UNL     1      63.859  35.661  74.046  0.00  0.00    +0.000 OA
ATOM      7  O   UNL     1      65.334  32.661  72.511  0.00  0.00    +0.000 OA
ATOM      8  O   UNL     1      59.825  32.746  70.410  0.00  0.00    +0.000 OA
ATOM      9  C   UNL     1      60.452  34.008  74.925  0.00  0.00    +0.000 C 
ATOM     10  C   UNL     1      58.831  36.804  74.604  0.00  0.00    +0.000 C 
ATOM     11  C   UNL     1      58.857  35.729  73.658  0.00  0.00    +0.000 C 
ATOM     12  C   UNL     1      60.752  34.736  76.191  0.00  0.00    +0.000 C 
ATOM     13  C   UNL     1      59.525  34.564  73.807  0.00  0.00    +0.000 C 
ATOM     14  C   UNL     1      59.431  36.628  75.735  0.00  0.00    +0.000 C 
ATOM     15  C   UNL     1      60.206  35.879  76.647  0.00  0.00    +0.000 C 
ATOM     16  C   UNL     1      60.608  32.609  74.593  0.00  0.00    +0.000 C 
ATOM     17  C   UNL     1      57.969  37.886  74.095  0.00  0.00    +0.000 C 
ATOM     18  C   UNL     1      60.203  32.408  73.258  0.00  0.00    +0.000 C 
ATOM     19  C   UNL     1      59.464  33.459  72.844  0.00  0.00    +0.000 C 
ATOM     20  C   UNL     1      61.777  34.658  75.134  0.00  0.00    +0.000 C 
ATOM     21  C   UNL     1      57.460  37.232  72.809  0.00  0.00    +0.000 C 
ATOM     22  C   UNL     1      59.349  33.422  71.448  0.00  0.00    +0.000 C 
ATOM     23  C   UNL     1      63.150  35.265  75.252  0.00  0.00    +0.000 C 
ATOM     24  C   UNL     1      65.095  33.870  73.153  0.00  0.00    +0.000 C 
ATOM     25  C   UNL     1      60.957  32.085  70.974  0.00  0.00    +0.000 C 
ATOM     26  C   UNL     1      63.662  35.951  76.526  0.00  0.00    +0.000 C 
ATOM     27  C   UNL     1      62.136  32.114  70.318  0.00  0.00    +0.000 C 
ATOM     28  C   UNL     1      62.242  32.616  68.896  0.00  0.00    +0.000 C 
ATOM     29  C   UNL     1      63.359  32.059  71.046  0.00  0.00    +0.000 C 
ATOM     30  C   UNL     1      64.318  32.292  71.733  0.00  0.00    +0.000 C 
ENDROOT
BRANCH  17  31
ATOM     31  O   UNL     1      56.932  38.180  75.016  0.00  0.00    +0.000 OA
ATOM     32  H   UNL     1      56.743  37.340  75.473  0.00  0.00    +0.000 HD
ENDBRANCH  17  31
BRANCH  17  33
ATOM     33  C   UNL     1      58.760  39.102  73.831  0.00  0.00    +0.000 C 
BRANCH  33  34
ATOM     34  O   UNL     1      59.453  40.214  73.594  0.00  0.00    +0.000 OA
ATOM     35  H   UNL     1      60.329  40.180  74.021  0.00  0.00    +0.000 HD
ENDBRANCH  33  34
ENDBRANCH  17  33
BRANCH  24  36
ATOM     36  C   UNL     1      66.048  34.273  73.939  0.00  0.00    +0.000 C 
BRANCH  36  37
ATOM     37  C   UNL     1      67.192  34.773  74.828  0.00  0.00    +0.000 C 
ATOM     38  C   UNL     1      68.103  35.179  75.494  0.00  0.00    +0.000 C 
BRANCH  38  39
ATOM     39  C   UNL     1      69.277  35.711  76.323  0.00  0.00    +0.000 C 
ATOM     40  C   UNL     1      70.192  36.142  76.969  0.00  0.00    +0.000 C 
BRANCH  40  41
ATOM     41  C   UNL     1      71.356  36.699  77.794  0.00  0.00    +0.000 C 
ATOM     42  C   UNL     1      72.371  37.182  78.510  0.00  0.00    +0.000 C 
ENDBRANCH  40  41
ENDBRANCH  38  39
ENDBRANCH  36  37
ENDBRANCH  24  36
BRANCH  15  43
ATOM     43  O   UNL     1      60.165  36.154  78.019  0.00  0.00    +0.000 OA
BRANCH  43  45
ATOM     44  O   UNL     1      60.091  34.390  79.538  0.00  0.00    +0.000 OA
ATOM     45  C   UNL     1      59.564  35.180  78.767  0.00  0.00    +0.000 C 
BRANCH  45  46
ATOM     46  C   UNL     1      58.149  35.147  78.554  0.00  0.00    +0.000 C 
ATOM     47  C   UNL     1      56.965  35.125  78.380  0.00  0.00    +0.000 C 
ATOM     48  C   UNL     1      55.453  35.083  78.150  0.00  0.00    +0.000 C 
ENDBRANCH  45  46
ENDBRANCH  43  45
ENDBRANCH  15  43
TORSDOF 10
ENDMDL
MODEL 2
REMARK VINA RESULT:      -6.2      3.179      9.779
REMARK  Name = Thapsigargin.pdbqt.pdb
REMARK  10 active torsions:
REMARK  status: ('A' for Active; 'I' for Inactive)
REMARK    1  A    between atoms: O_2  and  C_24
REMARK    2  A    between atoms: C_17  and  O_43
REMARK    3  A    between atoms: C_19  and  C_24
REMARK    4  A    between atoms: C_19  and  O_47
REMARK    5  A    between atoms: C_27  and  C_35
REMARK    6  A    between atoms: C_35  and  C_36
REMARK    7  A    between atoms: C_37  and  C_38
REMARK    8  A    between atoms: C_39  and  C_40
REMARK    9  A    between atoms: C_42  and  O_43
REMARK   10  A    between atoms: C_42  and  C_44
REMARK                            x       y       z     vdW  Elec       q    Type
REMARK                         _______ _______ _______ _____ _____    ______ ____
ROOT
ATOM      1  O   UNL     1      64.483  32.806  71.300  0.00  0.00    +0.000 OA
ATOM      2  O   UNL     1      58.709  34.171  72.528  0.00  0.00    +0.000 OA
ATOM      3  O   UNL     1      59.969  36.280  73.241  0.00  0.00    +0.000 OA
ATOM      4  O   UNL     1      61.535  33.226  75.618  0.00  0.00    +0.000 OA
ATOM      5  O   UNL     1      66.247  32.662  69.854  0.00  0.00    +0.000 OA
ATOM      6  O   UNL     1      59.639  36.316  71.805  0.00  0.00    +0.000 OA
ATOM      7  O   UNL     1      58.927  36.917  75.363  0.00  0.00    +0.000 OA
ATOM      8  O   UNL     1      63.946  33.823  75.441  0.00  0.00    +0.000 OA
ATOM      9  C   UNL     1      60.683  32.598  72.243  0.00  0.00    +0.000 C 
ATOM     10  C   UNL     1      62.758  32.720  69.747  0.00  0.00    +0.000 C 
ATOM     11  C   UNL     1      63.105  32.751  71.136  0.00  0.00    +0.000 C 
ATOM     12  C   UNL     1      59.800  32.508  71.046  0.00  0.00    +0.000 C 
ATOM     13  C   UNL     1      62.235  32.687  72.168  0.00  0.00    +0.000 C 
ATOM     14  C   UNL     1      61.516  32.540  69.438  0.00  0.00    +0.000 C 
ATOM     15  C   UNL     1      60.153  32.355  69.755  0.00  0.00    +0.000 C 
ATOM     16  C   UNL     1      60.413  32.285  73.629  0.00  0.00    +0.000 C 
ATOM     17  C   UNL     1      63.985  32.781  68.932  0.00  0.00    +0.000 C 
ATOM     18  C   UNL     1      61.567  32.554  74.392  0.00  0.00    +0.000 C 
ATOM     19  C   UNL     1      62.640  32.647  73.577  0.00  0.00    +0.000 C 
ATOM     20  C   UNL     1      59.885  33.774  71.796  0.00  0.00    +0.000 C 
ATOM     21  C   UNL     1      65.038  32.754  70.043  0.00  0.00    +0.000 C 
ATOM     22  C   UNL     1      63.702  33.236  74.275  0.00  0.00    +0.000 C 
ATOM     23  C   UNL     1      59.107  35.014  71.439  0.00  0.00    +0.000 C 
ATOM     24  C   UNL     1      58.972  36.933  73.975  0.00  0.00    +0.000 C 
ATOM     25  C   UNL     1      62.632  34.119  75.911  0.00  0.00    +0.000 C 
ATOM     26  C   UNL     1      58.072  35.062  70.307  0.00  0.00    +0.000 C 
ATOM     27  C   UNL     1      62.363  35.349  76.397  0.00  0.00    +0.000 C 
ATOM     28  C   UNL     1      63.462  36.348  76.683  0.00  0.00    +0.000 C 
ATOM     29  C   UNL     1      61.052  35.891  76.282  0.00  0.00    +0.000 C 
ATOM     30  C   UNL     1      60.020  36.376  75.900  0.00  0.00    +0.000 C 
ENDROOT
BRANCH  17  31
ATOM     31  O   UNL     1      64.068  31.665  68.063  0.00  0.00    +0.000 OA
ATOM     32  H   UNL     1      64.528  31.988  67.265  0.00  0.00    +0.000 HD
ENDBRANCH  17  31
BRANCH  17  33
ATOM     33  C   UNL     1      64.029  34.028  68.148  0.00  0.00    +0.000 C 
BRANCH  33  34
ATOM     34  O   UNL     1      64.094  35.154  67.440  0.00  0.00    +0.000 OA
ATOM     35  H   UNL     1      63.577  35.865  67.863  0.00  0.00    +0.000 HD
ENDBRANCH  33  34
ENDBRANCH  17  33
BRANCH  24  36
ATOM     36  C   UNL     1      57.923  37.436  73.396  0.00  0.00    +0.000 C 
BRANCH  36  37
ATOM     37  C   UNL     1      56.716  38.062  72.690  0.00  0.00    +0.000 C 
ATOM     38  C   UNL     1      55.776  38.530  72.109  0.00  0.00    +0.000 C 
BRANCH  38  39
ATOM     39  C   UNL     1      54.580  39.109  71.347  0.00  0.00    +0.000 C 
ATOM     40  C   UNL     1      53.640  39.571  70.760  0.00  0.00    +0.000 C 
BRANCH  40  41
ATOM     41  C   UNL     1      52.441  40.168  70.018  0.00  0.00    +0.000 C 
ATOM     42  C   UNL     1      51.398  40.690  69.373  0.00  0.00    +0.000 C 
ENDBRANCH  40  41
ENDBRANCH  38  39
ENDBRANCH  36  37
ENDBRANCH  24  36
BRANCH  15  43
ATOM     43  O   UNL     1      59.276  31.762  68.840  0.00  0.00    +0.000 OA
BRANCH  43  45
ATOM     44  O   UNL     1      60.070  29.641  69.385  0.00  0.00    +0.000 OA
ATOM     45  C   UNL     1      59.491  30.425  68.646  0.00  0.00    +0.000 C 
BRANCH  45  46
ATOM     46  C   UNL     1      58.943  29.977  67.402  0.00  0.00    +0.000 C 
ATOM     47  C   UNL     1      58.490  29.597  66.361  0.00  0.00    +0.000 C 
ATOM     48  C   UNL     1      57.903  29.125  65.029  0.00  0.00    +0.000 C 
ENDBRANCH  45  46
ENDBRANCH  43  45
ENDBRANCH  15  43
TORSDOF 10
ENDMDL
MODEL 3
REMARK VINA RESULT:      -5.6     44.347     48.568
REMARK  Name = Thapsigargin.pdbqt.pdb
REMARK  10 active torsions:
REMARK  status: ('A' for Active; 'I' for Inactive)
REMARK    1  A    between atoms: O_2  and  C_24
REMARK    2  A    between atoms: C_17  and  O_43
REMARK    3  A    between atoms: C_19  and  C_24
REMARK    4  A    between atoms: C_19  and  O_47
REMARK    5  A    between atoms: C_27  and  C_35
REMARK    6  A    between atoms: C_35  and  C_36
REMARK    7  A    between atoms: C_37  and  C_38
REMARK    8  A    between atoms: C_39  and  C_40
REMARK    9  A    between atoms: C_42  and  O_43
REMARK   10  A    between atoms: C_42  and  C_44
REMARK                            x       y       z     vdW  Elec       q    Type
REMARK                         _______ _______ _______ _____ _____    ______ ____
ROOT
ATOM      1  O   UNL     1      23.227  17.333  89.675  0.00  0.00    +0.000 OA
ATOM      2  O   UNL     1      17.929  19.641  91.490  0.00  0.00    +0.000 OA
ATOM      3  O   UNL     1      19.551  21.593  91.806  0.00  0.00    +0.000 OA
ATOM      4  O   UNL     1      21.015  18.557  94.270  0.00  0.00    +0.000 OA
ATOM      5  O   UNL     1      24.730  16.804  88.035  0.00  0.00    +0.000 OA
ATOM      6  O   UNL     1      19.026  21.554  90.430  0.00  0.00    +0.000 OA
ATOM      7  O   UNL     1      18.921  22.558  93.966  0.00  0.00    +0.000 OA
ATOM      8  O   UNL     1      23.434  18.772  93.719  0.00  0.00    +0.000 OA
ATOM      9  C   UNL     1      19.610  17.773  91.120  0.00  0.00    +0.000 C 
ATOM     10  C   UNL     1      21.301  17.370  88.376  0.00  0.00    +0.000 C 
ATOM     11  C   UNL     1      21.845  17.468  89.697  0.00  0.00    +0.000 C 
ATOM     12  C   UNL     1      18.560  17.712  90.063  0.00  0.00    +0.000 C 
ATOM     13  C   UNL     1      21.132  17.624  90.834  0.00  0.00    +0.000 C 
ATOM     14  C   UNL     1      20.015  17.350  88.252  0.00  0.00    +0.000 C 
ATOM     15  C   UNL     1      18.700  17.398  88.762  0.00  0.00    +0.000 C 
ATOM     16  C   UNL     1      19.502  17.625  92.554  0.00  0.00    +0.000 C 
ATOM     17  C   UNL     1      22.396  17.178  87.407  0.00  0.00    +0.000 C 
ATOM     18  C   UNL     1      20.780  17.784  93.128  0.00  0.00    +0.000 C 
ATOM     19  C   UNL     1      21.726  17.646  92.175  0.00  0.00    +0.000 C 
ATOM     20  C   UNL     1      18.923  19.012  90.658  0.00  0.00    +0.000 C 
ATOM     21  C   UNL     1      23.584  17.091  88.368  0.00  0.00    +0.000 C 
ATOM     22  C   UNL     1      22.947  18.129  92.663  0.00  0.00    +0.000 C 
ATOM     23  C   UNL     1      18.276  20.318  90.275  0.00  0.00    +0.000 C 
ATOM     24  C   UNL     1      18.768  22.447  92.590  0.00  0.00    +0.000 C 
ATOM     25  C   UNL     1      22.253  19.299  94.321  0.00  0.00    +0.000 C 
ATOM     26  C   UNL     1      17.105  20.422  89.289  0.00  0.00    +0.000 C 
ATOM     27  C   UNL     1      22.226  20.592  94.705  0.00  0.00    +0.000 C 
ATOM     28  C   UNL     1      23.479  21.438  94.738  0.00  0.00    +0.000 C 
ATOM     29  C   UNL     1      20.997  21.311  94.705  0.00  0.00    +0.000 C 
ATOM     30  C   UNL     1      19.996  21.909  94.410  0.00  0.00    +0.000 C 
ENDROOT
BRANCH  17  31
ATOM     31  O   UNL     1      22.201  15.991  86.657  0.00  0.00    +0.000 OA
ATOM     32  H   UNL     1      22.310  16.251  85.723  0.00  0.00    +0.000 HD
ENDBRANCH  17  31
BRANCH  17  33
ATOM     33  C   UNL     1      22.495  18.332  86.496  0.00  0.00    +0.000 C 
BRANCH  33  34
ATOM     34  O   UNL     1      22.570  19.387  85.687  0.00  0.00    +0.000 OA
ATOM     35  H   UNL     1      23.407  19.387  85.186  0.00  0.00    +0.000 HD
ENDBRANCH  33  34
ENDBRANCH  17  33
BRANCH  24  36
ATOM     36  C   UNL     1      17.724  23.049  92.102  0.00  0.00    +0.000 C 
BRANCH  36  37
ATOM     37  C   UNL     1      16.503  23.736  91.483  0.00  0.00    +0.000 C 
ATOM     38  C   UNL     1      15.569  24.299  90.981  0.00  0.00    +0.000 C 
BRANCH  38  39
ATOM     39  C   UNL     1      14.394  25.034  90.327  0.00  0.00    +0.000 C 
ATOM     40  C   UNL     1      13.464  25.600  89.821  0.00  0.00    +0.000 C 
BRANCH  40  41
ATOM     41  C   UNL     1      12.273  26.318  89.181  0.00  0.00    +0.000 C 
ATOM     42  C   UNL     1      11.238  26.945  88.624  0.00  0.00    +0.000 C 
ENDBRANCH  40  41
ENDBRANCH  38  39
ENDBRANCH  36  37
ENDBRANCH  24  36
BRANCH  15  43
ATOM     43  O   UNL     1      17.628  16.865  88.036  0.00  0.00    +0.000 OA
BRANCH  43  45
ATOM     44  O   UNL     1      18.201  14.615  88.217  0.00  0.00    +0.000 OA
ATOM     45  C   UNL     1      17.841  15.594  87.578  0.00  0.00    +0.000 C 
BRANCH  45  46
ATOM     46  C   UNL     1      17.595  15.490  86.172  0.00  0.00    +0.000 C 
ATOM     47  C   UNL     1      17.394  15.401  84.996  0.00  0.00    +0.000 C 
ATOM     48  C   UNL     1      17.126  15.296  83.492  0.00  0.00    +0.000 C 
ENDBRANCH  45  46
ENDBRANCH  43  45
ENDBRANCH  15  43
TORSDOF 10
ENDMDL
MODEL 4
REMARK VINA RESULT:      -5.6     44.371     49.179
REMARK  Name = Thapsigargin.pdbqt.pdb
REMARK  10 active torsions:
REMARK  status: ('A' for Active; 'I' for Inactive)
REMARK    1  A    between atoms: O_2  and  C_24
REMARK    2  A    between atoms: C_17  and  O_43
REMARK    3  A    between atoms: C_19  and  C_24
REMARK    4  A    between atoms: C_19  and  O_47
REMARK    5  A    between atoms: C_27  and  C_35
REMARK    6  A    between atoms: C_35  and  C_36
REMARK    7  A    between atoms: C_37  and  C_38
REMARK    8  A    between atoms: C_39  and  C_40
REMARK    9  A    between atoms: C_42  and  O_43
REMARK   10  A    between atoms: C_42  and  C_44
REMARK                            x       y       z     vdW  Elec       q    Type
REMARK                         _______ _______ _______ _____ _____    ______ ____
ROOT
ATOM      1  O   UNL     1      20.831   4.691  81.835  0.00  0.00    +0.000 OA
ATOM      2  O   UNL     1      21.927   8.823  86.128  0.00  0.00    +0.000 OA
ATOM      3  O   UNL     1      24.271   8.063  85.442  0.00  0.00    +0.000 OA
ATOM      4  O   UNL     1      22.380   4.615  86.846  0.00  0.00    +0.000 OA
ATOM      5  O   UNL     1      20.390   4.118  79.667  0.00  0.00    +0.000 OA
ATOM      6  O   UNL     1      23.785   9.145  84.568  0.00  0.00    +0.000 OA
ATOM      7  O   UNL     1      25.477   7.838  87.561  0.00  0.00    +0.000 OA
ATOM      8  O   UNL     1      23.127   3.038  85.070  0.00  0.00    +0.000 OA
ATOM      9  C   UNL     1      20.563   7.011  84.984  0.00  0.00    +0.000 C 
ATOM     10  C   UNL     1      20.047   6.877  81.780  0.00  0.00    +0.000 C 
ATOM     11  C   UNL     1      20.581   5.827  82.594  0.00  0.00    +0.000 C 
ATOM     12  C   UNL     1      19.982   8.347  84.663  0.00  0.00    +0.000 C 
ATOM     13  C   UNL     1      20.781   5.889  83.929  0.00  0.00    +0.000 C 
ATOM     14  C   UNL     1      19.645   7.955  82.370  0.00  0.00    +0.000 C 
ATOM     15  C   UNL     1      19.439   8.767  83.505  0.00  0.00    +0.000 C 
ATOM     16  C   UNL     1      20.711   6.338  86.254  0.00  0.00    +0.000 C 
ATOM     17  C   UNL     1      19.955   6.417  80.382  0.00  0.00    +0.000 C 
ATOM     18  C   UNL     1      21.340   5.094  86.042  0.00  0.00    +0.000 C 
ATOM     19  C   UNL     1      21.262   4.762  84.736  0.00  0.00    +0.000 C 
ATOM     20  C   UNL     1      21.430   8.222  84.916  0.00  0.00    +0.000 C 
ATOM     21  C   UNL     1      20.414   4.967  80.553  0.00  0.00    +0.000 C 
ATOM     22  C   UNL     1      22.158   3.720  84.470  0.00  0.00    +0.000 C 
ATOM     23  C   UNL     1      22.388   9.384  84.891  0.00  0.00    +0.000 C 
ATOM     24  C   UNL     1      25.026   8.600  86.490  0.00  0.00    +0.000 C 
ATOM     25  C   UNL     1      23.427   3.866  86.192  0.00  0.00    +0.000 C 
ATOM     26  C   UNL     1      21.944  10.839  84.689  0.00  0.00    +0.000 C 
ATOM     27  C   UNL     1      24.714   4.153  86.478  0.00  0.00    +0.000 C 
ATOM     28  C   UNL     1      25.859   3.436  85.798  0.00  0.00    +0.000 C 
ATOM     29  C   UNL     1      25.047   5.383  87.113  0.00  0.00    +0.000 C 
ATOM     30  C   UNL     1      25.264   6.535  87.381  0.00  0.00    +0.000 C 
ENDROOT
BRANCH  17  31
ATOM     31  O   UNL     1      18.626   6.524  79.903  0.00  0.00    +0.000 OA
ATOM     32  H   UNL     1      18.642   7.243  79.244  0.00  0.00    +0.000 HD
ENDBRANCH  17  31
BRANCH  17  33
ATOM     33  C   UNL     1      20.861   7.193  79.516  0.00  0.00    +0.000 C 
BRANCH  33  34
ATOM     34  O   UNL     1      21.660   7.909  78.728  0.00  0.00    +0.000 OA
ATOM     35  H   UNL     1      22.552   7.992  79.114  0.00  0.00    +0.000 HD
ENDBRANCH  33  34
ENDBRANCH  17  33
BRANCH  24  36
ATOM     36  C   UNL     1      25.193   9.882  86.619  0.00  0.00    +0.000 C 
BRANCH  36  37
ATOM     37  C   UNL     1      25.341  11.398  86.786  0.00  0.00    +0.000 C 
ATOM     38  C   UNL     1      25.421  12.588  86.916  0.00  0.00    +0.000 C 
BRANCH  38  39
ATOM     39  C   UNL     1      25.496  14.109  87.083  0.00  0.00    +0.000 C 
ATOM     40  C   UNL     1      25.546  15.303  87.201  0.00  0.00    +0.000 C 
BRANCH  40  41
ATOM     41  C   UNL     1      25.604  16.826  87.347  0.00  0.00    +0.000 C 
ATOM     42  C   UNL     1      25.656  18.152  87.475  0.00  0.00    +0.000 C 
ENDBRANCH  40  41
ENDBRANCH  38  39
ENDBRANCH  36  37
ENDBRANCH  24  36
BRANCH  15  43
ATOM     43  O   UNL     1      18.485   9.790  83.493  0.00  0.00    +0.000 OA
BRANCH  43  45
ATOM     44  O   UNL     1      19.704  11.004  81.923  0.00  0.00    +0.000 OA
ATOM     45  C   UNL     1      18.879  10.915  82.822  0.00  0.00    +0.000 C 
BRANCH  45  46
ATOM     46  C   UNL     1      18.199  12.080  83.298  0.00  0.00    +0.000 C 
ATOM     47  C   UNL     1      17.626  13.054  83.692  0.00  0.00    +0.000 C 
ATOM     48  C   UNL     1      16.905  14.304  84.203  0.00  0.00    +0.000 C 
ENDBRANCH  45  46
ENDBRANCH  43  45
ENDBRANCH  15  43
TORSDOF 10
ENDMDL
MODEL 5
REMARK VINA RESULT:      -5.6     10.491     16.643
REMARK  Name = Thapsigargin.pdbqt.pdb
REMARK  10 active torsions:
REMARK  status: ('A' for Active; 'I' for Inactive)
REMARK    1  A    between atoms: O_2  and  C_24
REMARK    2  A    between atoms: C_17  and  O_43
REMARK    3  A    between atoms: C_19  and  C_24
REMARK    4  A    between atoms: C_19  and  O_47
REMARK    5  A    between atoms: C_27  and  C_35
REMARK    6  A    between atoms: C_35  and  C_36
REMARK    7  A    between atoms: C_37  and  C_38
REMARK    8  A    between atoms: C_39  and  C_40
REMARK    9  A    between atoms: C_42  and  O_43
REMARK   10  A    between atoms: C_42  and  C_44
REMARK                            x       y       z     vdW  Elec       q    Type
REMARK                         _______ _______ _______ _____ _____    ______ ____
ROOT
ATOM      1  O   UNL     1      58.326  33.117  88.520  0.00  0.00    +0.000 OA
ATOM      2  O   UNL     1      54.989  37.964  87.080  0.00  0.00    +0.000 OA
ATOM      3  O   UNL     1      55.160  38.113  89.628  0.00  0.00    +0.000 OA
ATOM      4  O   UNL     1      53.270  34.466  88.879  0.00  0.00    +0.000 OA
ATOM      5  O   UNL     1      60.344  32.079  88.793  0.00  0.00    +0.000 OA
ATOM      6  O   UNL     1      56.316  38.755  88.978  0.00  0.00    +0.000 OA
ATOM      7  O   UNL     1      52.904  38.731  90.350  0.00  0.00    +0.000 OA
ATOM      8  O   UNL     1      54.520  33.063  90.514  0.00  0.00    +0.000 OA
ATOM      9  C   UNL     1      55.860  35.601  86.754  0.00  0.00    +0.000 C 
ATOM     10  C   UNL     1      58.987  34.764  87.021  0.00  0.00    +0.000 C 
ATOM     11  C   UNL     1      57.889  34.161  87.715  0.00  0.00    +0.000 C 
ATOM     12  C   UNL     1      56.554  36.520  85.807  0.00  0.00    +0.000 C 
ATOM     13  C   UNL     1      56.590  34.508  87.588  0.00  0.00    +0.000 C 
ATOM     14  C   UNL     1      58.720  35.667  86.136  0.00  0.00    +0.000 C 
ATOM     15  C   UNL     1      57.840  36.497  85.409  0.00  0.00    +0.000 C 
ATOM     16  C   UNL     1      54.461  35.254  86.863  0.00  0.00    +0.000 C 
ATOM     17  C   UNL     1      60.241  34.090  87.405  0.00  0.00    +0.000 C 
ATOM     18  C   UNL     1      54.295  34.352  87.934  0.00  0.00    +0.000 C 
ATOM     19  C   UNL     1      55.488  33.814  88.264  0.00  0.00    +0.000 C 
ATOM     20  C   UNL     1      56.086  37.030  87.109  0.00  0.00    +0.000 C 
ATOM     21  C   UNL     1      59.681  32.995  88.315  0.00  0.00    +0.000 C 
ATOM     22  C   UNL     1      55.385  33.193  89.515  0.00  0.00    +0.000 C 
ATOM     23  C   UNL     1      56.248  38.459  87.557  0.00  0.00    +0.000 C 
ATOM     24  C   UNL     1      54.172  39.067  89.892  0.00  0.00    +0.000 C 
ATOM     25  C   UNL     1      53.587  34.108  90.242  0.00  0.00    +0.000 C 
ATOM     26  C   UNL     1      56.837  39.560  86.664  0.00  0.00    +0.000 C 
ATOM     27  C   UNL     1      53.204  34.930  91.241  0.00  0.00    +0.000 C 
ATOM     28  C   UNL     1      53.542  34.637  92.686  0.00  0.00    +0.000 C 
ATOM     29  C   UNL     1      52.830  36.274  90.956  0.00  0.00    +0.000 C 
ATOM     30  C   UNL     1      52.807  37.443  90.673  0.00  0.00    +0.000 C 
ENDROOT
BRANCH  17  31
ATOM     31  O   UNL     1      60.907  33.576  86.264  0.00  0.00    +0.000 OA
ATOM     32  H   UNL     1      60.780  34.244  85.564  0.00  0.00    +0.000 HD
ENDBRANCH  17  31
BRANCH  17  33
ATOM     33  C   UNL     1      61.132  35.017  88.126  0.00  0.00    +0.000 C 
BRANCH  33  34
ATOM     34  O   UNL     1      61.939  35.838  88.795  0.00  0.00    +0.000 OA
ATOM     35  H   UNL     1      61.974  35.602  89.741  0.00  0.00    +0.000 HD
ENDBRANCH  33  34
ENDBRANCH  17  33
BRANCH  24  36
ATOM     36  C   UNL     1      54.320  40.311  89.545  0.00  0.00    +0.000 C 
BRANCH  36  37
ATOM     37  C   UNL     1      54.503  41.762  89.089  0.00  0.00    +0.000 C 
ATOM     38  C   UNL     1      54.641  42.888  88.697  0.00  0.00    +0.000 C 
BRANCH  38  39
ATOM     39  C   UNL     1      54.810  44.317  88.171  0.00  0.00    +0.000 C 
ATOM     40  C   UNL     1      54.939  45.442  87.772  0.00  0.00    +0.000 C 
BRANCH  40  41
ATOM     41  C   UNL     1      55.105  46.880  87.272  0.00  0.00    +0.000 C 
ATOM     42  C   UNL     1      55.252  48.130  86.836  0.00  0.00    +0.000 C 
ENDBRANCH  40  41
ENDBRANCH  38  39
ENDBRANCH  36  37
ENDBRANCH  24  36
BRANCH  15  43
ATOM     43  O   UNL     1      58.215  37.033  84.172  0.00  0.00    +0.000 OA
BRANCH  43  45
ATOM     44  O   UNL     1      56.466  37.303  82.657  0.00  0.00    +0.000 OA
ATOM     45  C   UNL     1      57.399  36.672  83.135  0.00  0.00    +0.000 C 
BRANCH  45  46
ATOM     46  C   UNL     1      57.746  35.386  82.613  0.00  0.00    +0.000 C 
ATOM     47  C   UNL     1      58.040  34.309  82.181  0.00  0.00    +0.000 C 
ATOM     48  C   UNL     1      58.409  32.936  81.615  0.00  0.00    +0.000 C 
ENDBRANCH  45  46
ENDBRANCH  43  45
ENDBRANCH  15  43
TORSDOF 10
ENDMDL
MODEL 6
REMARK VINA RESULT:      -5.6     15.770     19.837
REMARK  Name = Thapsigargin.pdbqt.pdb
REMARK  10 active torsions:
REMARK  status: ('A' for Active; 'I' for Inactive)
REMARK    1  A    between atoms: O_2  and  C_24
REMARK    2  A    between atoms: C_17  and  O_43
REMARK    3  A    between atoms: C_19  and  C_24
REMARK    4  A    between atoms: C_19  and  O_47
REMARK    5  A    between atoms: C_27  and  C_35
REMARK    6  A    between atoms: C_35  and  C_36
REMARK    7  A    between atoms: C_37  and  C_38
REMARK    8  A    between atoms: C_39  and  C_40
REMARK    9  A    between atoms: C_42  and  O_43
REMARK   10  A    between atoms: C_42  and  C_44
REMARK                            x       y       z     vdW  Elec       q    Type
REMARK                         _______ _______ _______ _____ _____    ______ ____
ROOT
ATOM      1  O   UNL     1      46.885  39.721  85.329  0.00  0.00    +0.000 OA
ATOM      2  O   UNL     1      44.270  39.399  79.874  0.00  0.00    +0.000 OA
ATOM      3  O   UNL     1      46.743  38.997  79.357  0.00  0.00    +0.000 OA
ATOM      4  O   UNL     1      46.599  42.794  81.088  0.00  0.00    +0.000 OA
ATOM      5  O   UNL     1      47.507  38.777  87.316  0.00  0.00    +0.000 OA
ATOM      6  O   UNL     1      46.064  37.741  79.722  0.00  0.00    +0.000 OA
ATOM      7  O   UNL     1      47.160  40.320  77.340  0.00  0.00    +0.000 OA
ATOM      8  O   UNL     1      48.567  42.583  82.600  0.00  0.00    +0.000 OA
ATOM      9  C   UNL     1      44.485  40.216  82.269  0.00  0.00    +0.000 C 
ATOM     10  C   UNL     1      45.141  38.283  84.796  0.00  0.00    +0.000 C 
ATOM     11  C   UNL     1      45.859  39.466  84.429  0.00  0.00    +0.000 C 
ATOM     12  C   UNL     1      43.427  39.168  82.196  0.00  0.00    +0.000 C 
ATOM     13  C   UNL     1      45.571  40.271  83.383  0.00  0.00    +0.000 C 
ATOM     14  C   UNL     1      44.077  37.989  84.124  0.00  0.00    +0.000 C 
ATOM     15  C   UNL     1      43.137  38.208  83.094  0.00  0.00    +0.000 C 
ATOM     16  C   UNL     1      44.559  41.514  81.638  0.00  0.00    +0.000 C 
ATOM     17  C   UNL     1      45.741  37.700  86.009  0.00  0.00    +0.000 C 
ATOM     18  C   UNL     1      45.773  42.132  82.002  0.00  0.00    +0.000 C 
ATOM     19  C   UNL     1      46.289  41.515  83.086  0.00  0.00    +0.000 C 
ATOM     20  C   UNL     1      44.564  39.125  81.258  0.00  0.00    +0.000 C 
ATOM     21  C   UNL     1      46.809  38.756  86.307  0.00  0.00    +0.000 C 
ATOM     22  C   UNL     1      47.628  41.897  83.241  0.00  0.00    +0.000 C 
ATOM     23  C   UNL     1      44.729  38.077  80.188  0.00  0.00    +0.000 C 
ATOM     24  C   UNL     1      46.738  39.154  77.967  0.00  0.00    +0.000 C 
ATOM     25  C   UNL     1      48.025  42.676  81.283  0.00  0.00    +0.000 C 
ATOM     26  C   UNL     1      43.681  36.993  79.901  0.00  0.00    +0.000 C 
ATOM     27  C   UNL     1      48.810  42.394  80.222  0.00  0.00    +0.000 C 
ATOM     28  C   UNL     1      50.305  42.214  80.365  0.00  0.00    +0.000 C 
ATOM     29  C   UNL     1      48.237  41.867  79.030  0.00  0.00    +0.000 C 
ATOM     30  C   UNL     1      47.726  41.176  78.189  0.00  0.00    +0.000 C 
ENDROOT
BRANCH  17  31
ATOM     31  O   UNL     1      44.778  37.580  87.042  0.00  0.00    +0.000 OA
ATOM     32  H   UNL     1      45.246  37.166  87.790  0.00  0.00    +0.000 HD
ENDBRANCH  17  31
BRANCH  17  33
ATOM     33  C   UNL     1      46.326  36.378  85.719  0.00  0.00    +0.000 C 
BRANCH  33  34
ATOM     34  O   UNL     1      46.854  35.179  85.481  0.00  0.00    +0.000 OA
ATOM     35  H   UNL     1      46.384  34.727  84.755  0.00  0.00    +0.000 HD
ENDBRANCH  33  34
ENDBRANCH  17  33
BRANCH  24  36
ATOM     36  C   UNL     1      46.163  38.288  77.188  0.00  0.00    +0.000 C 
BRANCH  36  37
ATOM     37  C   UNL     1      45.530  37.254  76.251  0.00  0.00    +0.000 C 
ATOM     38  C   UNL     1      45.043  36.418  75.540  0.00  0.00    +0.000 C 
BRANCH  38  39
ATOM     39  C   UNL     1      44.429  35.332  74.652  0.00  0.00    +0.000 C 
ATOM     40  C   UNL     1      43.938  34.477  73.967  0.00  0.00    +0.000 C 
BRANCH  40  41
ATOM     41  C   UNL     1      43.305  33.386  73.098  0.00  0.00    +0.000 C 
ATOM     42  C   UNL     1      42.754  32.439  72.341  0.00  0.00    +0.000 C 
ENDBRANCH  40  41
ENDBRANCH  38  39
ENDBRANCH  36  37
ENDBRANCH  24  36
BRANCH  15  43
ATOM     43  O   UNL     1      41.849  37.667  83.170  0.00  0.00    +0.000 OA
BRANCH  43  45
ATOM     44  O   UNL     1      41.959  35.351  83.400  0.00  0.00    +0.000 OA
ATOM     45  C   UNL     1      41.781  36.477  83.843  0.00  0.00    +0.000 C 
BRANCH  45  46
ATOM     46  C   UNL     1      41.451  36.668  85.222  0.00  0.00    +0.000 C 
ATOM     47  C   UNL     1      41.176  36.834  86.375  0.00  0.00    +0.000 C 
ATOM     48  C   UNL     1      40.824  37.031  87.852  0.00  0.00    +0.000 C 
ENDBRANCH  45  46
ENDBRANCH  43  45
ENDBRANCH  15  43
TORSDOF 10
ENDMDL
MODEL 7
REMARK VINA RESULT:      -5.5     20.313     22.837
REMARK  Name = Thapsigargin.pdbqt.pdb
REMARK  10 active torsions:
REMARK  status: ('A' for Active; 'I' for Inactive)
REMARK    1  A    between atoms: O_2  and  C_24
REMARK    2  A    between atoms: C_17  and  O_43
REMARK    3  A    between atoms: C_19  and  C_24
REMARK    4  A    between atoms: C_19  and  O_47
REMARK    5  A    between atoms: C_27  and  C_35
REMARK    6  A    between atoms: C_35  and  C_36
REMARK    7  A    between atoms: C_37  and  C_38
REMARK    8  A    between atoms: C_39  and  C_40
REMARK    9  A    between atoms: C_42  and  O_43
REMARK   10  A    between atoms: C_42  and  C_44
REMARK                            x       y       z     vdW  Elec       q    Type
REMARK                         _______ _______ _______ _____ _____    ______ ____
ROOT
ATOM      1  O   UNL     1      43.383  22.110  83.356  0.00  0.00    +0.000 OA
ATOM      2  O   UNL     1      47.782  25.531  85.731  0.00  0.00    +0.000 OA
ATOM      3  O   UNL     1      45.885  25.762  87.432  0.00  0.00    +0.000 OA
ATOM      4  O   UNL     1      44.323  27.246  83.856  0.00  0.00    +0.000 OA
ATOM      5  O   UNL     1      42.371  20.088  83.023  0.00  0.00    +0.000 OA
ATOM      6  O   UNL     1      46.706  24.570  87.708  0.00  0.00    +0.000 OA
ATOM      7  O   UNL     1      45.879  28.141  88.011  0.00  0.00    +0.000 OA
ATOM      8  O   UNL     1      42.083  26.162  83.956  0.00  0.00    +0.000 OA
ATOM      9  C   UNL     1      46.491  24.452  83.829  0.00  0.00    +0.000 C 
ATOM     10  C   UNL     1      45.529  21.350  83.817  0.00  0.00    +0.000 C 
ATOM     11  C   UNL     1      44.694  22.494  83.607  0.00  0.00    +0.000 C 
ATOM     12  C   UNL     1      47.751  23.690  84.069  0.00  0.00    +0.000 C 
ATOM     13  C   UNL     1      45.106  23.780  83.602  0.00  0.00    +0.000 C 
ATOM     14  C   UNL     1      46.801  21.544  83.937  0.00  0.00    +0.000 C 
ATOM     15  C   UNL     1      47.950  22.361  84.002  0.00  0.00    +0.000 C 
ATOM     16  C   UNL     1      46.293  25.822  83.415  0.00  0.00    +0.000 C 
ATOM     17  C   UNL     1      44.716  20.124  83.719  0.00  0.00    +0.000 C 
ATOM     18  C   UNL     1      44.910  26.084  83.344  0.00  0.00    +0.000 C 
ATOM     19  C   UNL     1      44.229  24.919  83.310  0.00  0.00    +0.000 C 
ATOM     20  C   UNL     1      47.094  24.387  85.190  0.00  0.00    +0.000 C 
ATOM     21  C   UNL     1      43.365  20.735  83.341  0.00  0.00    +0.000 C 
ATOM     22  C   UNL     1      42.876  25.166  83.577  0.00  0.00    +0.000 C 
ATOM     23  C   UNL     1      47.630  24.399  86.598  0.00  0.00    +0.000 C 
ATOM     24  C   UNL     1      46.352  26.846  88.184  0.00  0.00    +0.000 C 
ATOM     25  C   UNL     1      43.018  27.115  84.459  0.00  0.00    +0.000 C 
ATOM     26  C   UNL     1      48.968  23.762  86.996  0.00  0.00    +0.000 C 
ATOM     27  C   UNL     1      42.785  27.705  85.651  0.00  0.00    +0.000 C 
ATOM     28  C   UNL     1      41.455  27.571  86.358  0.00  0.00    +0.000 C 
ATOM     29  C   UNL     1      43.876  28.128  86.463  0.00  0.00    +0.000 C 
ATOM     30  C   UNL     1      44.828  28.192  87.194  0.00  0.00    +0.000 C 
ENDROOT
BRANCH  17  31
ATOM     31  O   UNL     1      45.230  19.256  82.723  0.00  0.00    +0.000 OA
ATOM     32  H   UNL     1      44.458  18.777  82.370  0.00  0.00    +0.000 HD
ENDBRANCH  17  31
BRANCH  17  33
ATOM     33  C   UNL     1      44.671  19.422  85.015  0.00  0.00    +0.000 C 
BRANCH  33  34
ATOM     34  O   UNL     1      44.655  18.786  86.185  0.00  0.00    +0.000 OA
ATOM     35  H   UNL     1      44.176  19.304  86.860  0.00  0.00    +0.000 HD
ENDBRANCH  33  34
ENDBRANCH  17  33
BRANCH  24  36
ATOM     36  C   UNL     1      47.388  26.737  88.960  0.00  0.00    +0.000 C 
BRANCH  36  37
ATOM     37  C   UNL     1      48.602  26.559  89.877  0.00  0.00    +0.000 C 
ATOM     38  C   UNL     1      49.573  26.410  90.567  0.00  0.00    +0.000 C 
BRANCH  38  39
ATOM     39  C   UNL     1      50.828  26.216  91.424  0.00  0.00    +0.000 C 
ATOM     40  C   UNL     1      51.817  26.055  92.086  0.00  0.00    +0.000 C 
BRANCH  40  41
ATOM     41  C   UNL     1      53.083  25.847  92.922  0.00  0.00    +0.000 C 
ATOM     42  C   UNL     1      54.185  25.666  93.648  0.00  0.00    +0.000 C 
ENDBRANCH  40  41
ENDBRANCH  38  39
ENDBRANCH  36  37
ENDBRANCH  24  36
BRANCH  15  43
ATOM     43  O   UNL     1      49.218  21.841  83.719  0.00  0.00    +0.000 OA
BRANCH  43  45
ATOM     44  O   UNL     1      49.170  19.646  84.497  0.00  0.00    +0.000 OA
ATOM     45  C   UNL     1      49.251  20.478  83.604  0.00  0.00    +0.000 C 
BRANCH  45  46
ATOM     46  C   UNL     1      49.408  20.066  82.243  0.00  0.00    +0.000 C 
ATOM     47  C   UNL     1      49.543  19.726  81.103  0.00  0.00    +0.000 C 
ATOM     48  C   UNL     1      49.703  19.283  79.647  0.00  0.00    +0.000 C 
ENDBRANCH  45  46
ENDBRANCH  43  45
ENDBRANCH  15  43
TORSDOF 10
ENDMDL
MODEL 8
REMARK VINA RESULT:      -5.4     17.356     22.631
REMARK  Name = Thapsigargin.pdbqt.pdb
REMARK  10 active torsions:
REMARK  status: ('A' for Active; 'I' for Inactive)
REMARK    1  A    between atoms: O_2  and  C_24
REMARK    2  A    between atoms: C_17  and  O_43
REMARK    3  A    between atoms: C_19  and  C_24
REMARK    4  A    between atoms: C_19  and  O_47
REMARK    5  A    between atoms: C_27  and  C_35
REMARK    6  A    between atoms: C_35  and  C_36
REMARK    7  A    between atoms: C_37  and  C_38
REMARK    8  A    between atoms: C_39  and  C_40
REMARK    9  A    between atoms: C_42  and  O_43
REMARK   10  A    between atoms: C_42  and  C_44
REMARK                            x       y       z     vdW  Elec       q    Type
REMARK                         _______ _______ _______ _____ _____    ______ ____
ROOT
ATOM      1  O   UNL     1      45.866  39.892  79.929  0.00  0.00    +0.000 OA
ATOM      2  O   UNL     1      41.459  36.189  81.816  0.00  0.00    +0.000 OA
ATOM      3  O   UNL     1      41.223  38.209  83.367  0.00  0.00    +0.000 OA
ATOM      4  O   UNL     1      45.075  36.755  84.057  0.00  0.00    +0.000 OA
ATOM      5  O   UNL     1      46.667  41.506  78.522  0.00  0.00    +0.000 OA
ATOM      6  O   UNL     1      40.475  38.410  82.114  0.00  0.00    +0.000 OA
ATOM      7  O   UNL     1      40.839  37.231  85.579  0.00  0.00    +0.000 OA
ATOM      8  O   UNL     1      46.287  38.930  84.096  0.00  0.00    +0.000 OA
ATOM      9  C   UNL     1      43.719  36.727  80.791  0.00  0.00    +0.000 C 
ATOM     10  C   UNL     1      44.197  39.037  78.558  0.00  0.00    +0.000 C 
ATOM     11  C   UNL     1      44.899  38.904  79.800  0.00  0.00    +0.000 C 
ATOM     12  C   UNL     1      42.754  36.378  79.709  0.00  0.00    +0.000 C 
ATOM     13  C   UNL     1      44.701  37.932  80.717  0.00  0.00    +0.000 C 
ATOM     14  C   UNL     1      43.353  38.112  78.239  0.00  0.00    +0.000 C 
ATOM     15  C   UNL     1      42.646  36.915  78.480  0.00  0.00    +0.000 C 
ATOM     16  C   UNL     1      44.215  35.933  81.892  0.00  0.00    +0.000 C 
ATOM     17  C   UNL     1      44.717  40.204  77.822  0.00  0.00    +0.000 C 
ATOM     18  C   UNL     1      45.101  36.717  82.659  0.00  0.00    +0.000 C 
ATOM     19  C   UNL     1      45.494  37.791  81.942  0.00  0.00    +0.000 C 
ATOM     20  C   UNL     1      42.264  37.010  80.949  0.00  0.00    +0.000 C 
ATOM     21  C   UNL     1      45.843  40.629  78.768  0.00  0.00    +0.000 C 
ATOM     22  C   UNL     1      46.090  38.726  82.799  0.00  0.00    +0.000 C 
ATOM     23  C   UNL     1      40.814  37.320  81.214  0.00  0.00    +0.000 C 
ATOM     24  C   UNL     1      40.377  37.677  84.347  0.00  0.00    +0.000 C 
ATOM     25  C   UNL     1      45.360  38.022  84.689  0.00  0.00    +0.000 C 
ATOM     26  C   UNL     1      39.680  36.927  80.259  0.00  0.00    +0.000 C 
ATOM     27  C   UNL     1      44.559  38.451  85.686  0.00  0.00    +0.000 C 
ATOM     28  C   UNL     1      44.774  39.788  86.360  0.00  0.00    +0.000 C 
ATOM     29  C   UNL     1      43.272  37.869  85.869  0.00  0.00    +0.000 C 
ATOM     30  C   UNL     1      42.121  37.532  85.779  0.00  0.00    +0.000 C 
ENDROOT
BRANCH  17  31
ATOM     31  O   UNL     1      45.185  39.823  76.540  0.00  0.00    +0.000 OA
ATOM     32  H   UNL     1      46.042  40.275  76.429  0.00  0.00    +0.000 HD
ENDBRANCH  17  31
BRANCH  17  33
ATOM     33  C   UNL     1      43.679  41.241  77.686  0.00  0.00    +0.000 C 
BRANCH  33  34
ATOM     34  O   UNL     1      42.756  42.192  77.551  0.00  0.00    +0.000 OA
ATOM     35  H   UNL     1      42.738  42.777  78.331  0.00  0.00    +0.000 HD
ENDBRANCH  33  34
ENDBRANCH  17  33
BRANCH  24  36
ATOM     36  C   UNL     1      39.135  37.397  84.091  0.00  0.00    +0.000 C 
BRANCH  36  37
ATOM     37  C   UNL     1      37.677  37.019  83.808  0.00  0.00    +0.000 C 
ATOM     38  C   UNL     1      36.545  36.688  83.588  0.00  0.00    +0.000 C 
BRANCH  38  39
ATOM     39  C   UNL     1      35.106  36.239  83.310  0.00  0.00    +0.000 C 
ATOM     40  C   UNL     1      33.983  35.873  83.094  0.00  0.00    +0.000 C 
BRANCH  40  41
ATOM     41  C   UNL     1      32.553  35.399  82.821  0.00  0.00    +0.000 C 
ATOM     42  C   UNL     1      31.310  34.985  82.582  0.00  0.00    +0.000 C 
ENDBRANCH  40  41
ENDBRANCH  38  39
ENDBRANCH  36  37
ENDBRANCH  24  36
BRANCH  15  43
ATOM     43  O   UNL     1      42.104  36.175  77.422  0.00  0.00    +0.000 OA
BRANCH  43  45
ATOM     44  O   UNL     1      43.131  34.121  77.035  0.00  0.00    +0.000 OA
ATOM     45  C   UNL     1      42.990  35.318  76.829  0.00  0.00    +0.000 C 
BRANCH  45  46
ATOM     46  C   UNL     1      43.815  35.989  75.871  0.00  0.00    +0.000 C 
ATOM     47  C   UNL     1      44.506  36.545  75.067  0.00  0.00    +0.000 C 
ATOM     48  C   UNL     1      45.390  37.269  74.049  0.00  0.00    +0.000 C 
ENDBRANCH  45  46
ENDBRANCH  43  45
ENDBRANCH  15  43
TORSDOF 10
ENDMDL
MODEL 9
REMARK VINA RESULT:      -5.3     17.622     21.038
REMARK  Name = Thapsigargin.pdbqt.pdb
REMARK  10 active torsions:
REMARK  status: ('A' for Active; 'I' for Inactive)
REMARK    1  A    between atoms: O_2  and  C_24
REMARK    2  A    between atoms: C_17  and  O_43
REMARK    3  A    between atoms: C_19  and  C_24
REMARK    4  A    between atoms: C_19  and  O_47
REMARK    5  A    between atoms: C_27  and  C_35
REMARK    6  A    between atoms: C_35  and  C_36
REMARK    7  A    between atoms: C_37  and  C_38
REMARK    8  A    between atoms: C_39  and  C_40
REMARK    9  A    between atoms: C_42  and  O_43
REMARK   10  A    between atoms: C_42  and  C_44
REMARK                            x       y       z     vdW  Elec       q    Type
REMARK                         _______ _______ _______ _____ _____    ______ ____
ROOT
ATOM      1  O   UNL     1      49.230  15.935  79.501  0.00  0.00    +0.000 OA
ATOM      2  O   UNL     1      53.380  19.988  81.249  0.00  0.00    +0.000 OA
ATOM      3  O   UNL     1      52.765  18.807  83.434  0.00  0.00    +0.000 OA
ATOM      4  O   UNL     1      49.200  20.504  82.077  0.00  0.00    +0.000 OA
ATOM      5  O   UNL     1      48.652  13.897  78.643  0.00  0.00    +0.000 OA
ATOM      6  O   UNL     1      53.825  18.079  82.715  0.00  0.00    +0.000 OA
ATOM      7  O   UNL     1      52.592  20.619  85.071  0.00  0.00    +0.000 OA
ATOM      8  O   UNL     1      47.685  18.577  82.518  0.00  0.00    +0.000 OA
ATOM      9  C   UNL     1      51.502  19.118  79.777  0.00  0.00    +0.000 C 
ATOM     10  C   UNL     1      51.367  16.092  78.603  0.00  0.00    +0.000 C 
ATOM     11  C   UNL     1      50.343  16.754  79.355  0.00  0.00    +0.000 C 
ATOM     12  C   UNL     1      52.804  18.956  79.068  0.00  0.00    +0.000 C 
ATOM     13  C   UNL     1      50.404  18.017  79.829  0.00  0.00    +0.000 C 
ATOM     14  C   UNL     1      52.414  16.777  78.276  0.00  0.00    +0.000 C 
ATOM     15  C   UNL     1      53.202  17.947  78.270  0.00  0.00    +0.000 C 
ATOM     16  C   UNL     1      50.827  20.314  80.228  0.00  0.00    +0.000 C 
ATOM     17  C   UNL     1      50.915  14.736  78.243  0.00  0.00    +0.000 C 
ATOM     18  C   UNL     1      49.624  19.948  80.865  0.00  0.00    +0.000 C 
ATOM     19  C   UNL     1      49.300  18.681  80.531  0.00  0.00    +0.000 C 
ATOM     20  C   UNL     1      52.762  18.895  80.541  0.00  0.00    +0.000 C 
ATOM     21  C   UNL     1      49.493  14.776  78.808  0.00  0.00    +0.000 C 
ATOM     22  C   UNL     1      48.315  18.209  81.408  0.00  0.00    +0.000 C 
ATOM     23  C   UNL     1      53.979  18.694  81.407  0.00  0.00    +0.000 C 
ATOM     24  C   UNL     1      53.336  19.683  84.363  0.00  0.00    +0.000 C 
ATOM     25  C   UNL     1      48.519  19.629  83.002  0.00  0.00    +0.000 C 
ATOM     26  C   UNL     1      55.406  18.620  80.850  0.00  0.00    +0.000 C 
ATOM     27  C   UNL     1      48.879  19.643  84.302  0.00  0.00    +0.000 C 
ATOM     28  C   UNL     1      48.237  18.721  85.315  0.00  0.00    +0.000 C 
ATOM     29  C   UNL     1      50.121  20.219  84.693  0.00  0.00    +0.000 C 
ATOM     30  C   UNL     1      51.281  20.460  84.898  0.00  0.00    +0.000 C 
ENDROOT
BRANCH  17  31
ATOM     31  O   UNL     1      50.948  14.550  76.839  0.00  0.00    +0.000 OA
ATOM     32  H   UNL     1      51.326  13.661  76.701  0.00  0.00    +0.000 HD
ENDBRANCH  17  31
BRANCH  17  33
ATOM     33  C   UNL     1      51.750  13.715  78.901  0.00  0.00    +0.000 C 
BRANCH  33  34
ATOM     34  O   UNL     1      52.519  12.791  79.474  0.00  0.00    +0.000 OA
ATOM     35  H   UNL     1      53.055  12.318  78.810  0.00  0.00    +0.000 HD
ENDBRANCH  33  34
ENDBRANCH  17  33
BRANCH  24  36
ATOM     36  C   UNL     1      54.625  19.801  84.482  0.00  0.00    +0.000 C 
BRANCH  36  37
ATOM     37  C   UNL     1      56.140  19.924  84.669  0.00  0.00    +0.000 C 
ATOM     38  C   UNL     1      57.326  20.055  84.807  0.00  0.00    +0.000 C 
BRANCH  38  39
ATOM     39  C   UNL     1      58.836  20.250  84.977  0.00  0.00    +0.000 C 
ATOM     40  C   UNL     1      60.017  20.415  85.116  0.00  0.00    +0.000 C 
BRANCH  40  41
ATOM     41  C   UNL     1      61.521  20.632  85.299  0.00  0.00    +0.000 C 
ATOM     42  C   UNL     1      62.831  20.820  85.455  0.00  0.00    +0.000 C 
ENDBRANCH  40  41
ENDBRANCH  38  39
ENDBRANCH  36  37
ENDBRANCH  24  36
BRANCH  15  43
ATOM     43  O   UNL     1      54.167  18.158  77.279  0.00  0.00    +0.000 OA
BRANCH  43  45
ATOM     44  O   UNL     1      53.447  17.361  75.213  0.00  0.00    +0.000 OA
ATOM     45  C   UNL     1      53.657  18.260  76.015  0.00  0.00    +0.000 C 
BRANCH  45  46
ATOM     46  C   UNL     1      53.368  19.619  75.670  0.00  0.00    +0.000 C 
ATOM     47  C   UNL     1      53.122  20.753  75.377  0.00  0.00    +0.000 C 
ATOM     48  C   UNL     1      52.821  22.208  75.009  0.00  0.00    +0.000 C 
ENDBRANCH  45  46
ENDBRANCH  43  45
ENDBRANCH  15  43
TORSDOF 10
ENDMDL
