MODEL 1
REMARK VINA RESULT:      -5.5      0.000      0.000
REMARK  Name = Thioguanosine.pdbqt.pdb
REMARK  5 active torsions:
REMARK  status: ('A' for Active; 'I' for Inactive)
REMARK    1  A    between atoms: N_2  and  C1*_12
REMARK    2  A    between atoms: C4*_14  and  C5*_17
REMARK    3  A    between atoms: C3*_15  and  O3*_20
REMARK    4  A    between atoms: C2*_16  and  O2*_22
REMARK    5  A    between atoms: C5*_17  and  O5*_18
REMARK                            x       y       z     vdW  Elec       q    Type
REMARK                         _______ _______ _______ _____ _____    ______ ____
ROOT
ATOM      1  S   UNL     1      55.741  36.895  78.248  0.00  0.00    +0.000 S 
ATOM      2  N   UNL     1      60.389  36.063  76.945  0.00  0.00    +0.000 N 
ATOM      3  N   UNL     1      59.797  35.311  79.213  0.00  0.00    +0.000 N 
ATOM      4  N   UNL     1      58.337  36.846  76.396  0.00  0.00    +0.000 NA
ATOM      5  N   UNL     1      57.563  35.731  79.911  0.00  0.00    +0.000 NA
ATOM      6  C   UNL     1      59.550  35.865  78.012  0.00  0.00    +0.000 A 
ATOM      7  C   UNL     1      59.575  36.647  75.987  0.00  0.00    +0.000 A 
ATOM      8  C   UNL     1      58.314  36.361  77.680  0.00  0.00    +0.000 A 
ATOM      9  C   UNL     1      57.242  36.297  78.676  0.00  0.00    +0.000 A 
ATOM     10  C   UNL     1      58.767  35.279  80.113  0.00  0.00    +0.000 A 
ATOM     11  H   UNL     1      60.717  34.975  79.486  0.00  0.00    +0.000 HD
ATOM     12  N   UNL     1      59.102  34.721  81.300  0.00  0.00    +0.000 N 
ATOM     13  H   UNL     1      59.601  33.844  81.223  0.00  0.00    +0.000 HD
ATOM     14  H   UNL     1      58.278  34.612  81.887  0.00  0.00    +0.000 HD
ENDROOT
BRANCH   2  15
ATOM     15  C1* UNL     1      61.735  35.793  76.791  0.00  0.00    +0.000 A 
ATOM     16  O4* UNL     1      62.323  34.608  77.296  0.00  0.00    +0.000 OA
ATOM     17  C4* UNL     1      63.697  34.612  77.006  0.00  0.00    +0.000 A 
ATOM     18  C3* UNL     1      64.001  35.820  76.293  0.00  0.00    +0.000 A 
ATOM     19  C2* UNL     1      62.780  36.552  76.149  0.00  0.00    +0.000 A 
BRANCH  18  20
ATOM     20  O3* UNL     1      65.194  36.482  76.401  0.00  0.00    +0.000 OA
ATOM     21  H3* UNL     1      65.876  35.926  76.822  0.00  0.00    +0.000 HD
ENDBRANCH  18  20
BRANCH  19  22
ATOM     22  O2* UNL     1      62.786  37.919  76.099  0.00  0.00    +0.000 OA
ATOM     23  H2* UNL     1      62.161  38.270  76.766  0.00  0.00    +0.000 HD
ENDBRANCH  19  22
BRANCH  17  24
ATOM     24  C5* UNL     1      64.601  33.703  77.585  0.00  0.00    +0.000 C 
BRANCH  24  25
ATOM     25  O5* UNL     1      65.448  32.851  78.154  0.00  0.00    +0.000 OA
ATOM     26  H5* UNL     1      66.115  32.550  77.511  0.00  0.00    +0.000 HD
ENDBRANCH  24  25
ENDBRANCH  17  24
ENDBRANCH   2  15
TORSDOF 5
ENDMDL
MODEL 2
REMARK VINA RESULT:      -5.4      3.355      4.251
REMARK  Name = Thioguanosine.pdbqt.pdb
REMARK  5 active torsions:
REMARK  status: ('A' for Active; 'I' for Inactive)
REMARK    1  A    between atoms: N_2  and  C1*_12
REMARK    2  A    between atoms: C4*_14  and  C5*_17
REMARK    3  A    between atoms: C3*_15  and  O3*_20
REMARK    4  A    between atoms: C2*_16  and  O2*_22
REMARK    5  A    between atoms: C5*_17  and  O5*_18
REMARK                            x       y       z     vdW  Elec       q    Type
REMARK                         _______ _______ _______ _____ _____    ______ ____
ROOT
ATOM      1  S   UNL     1      56.047  40.030  75.612  0.00  0.00    +0.000 S 
ATOM      2  N   UNL     1      58.676  36.037  74.544  0.00  0.00    +0.000 N 
ATOM      3  N   UNL     1      58.786  36.754  76.896  0.00  0.00    +0.000 N 
ATOM      4  N   UNL     1      57.256  37.660  73.854  0.00  0.00    +0.000 NA
ATOM      5  N   UNL     1      57.563  38.714  77.459  0.00  0.00    +0.000 NA
ATOM      6  C   UNL     1      58.374  36.835  75.619  0.00  0.00    +0.000 A 
ATOM      7  C   UNL     1      57.942  36.589  73.506  0.00  0.00    +0.000 A 
ATOM      8  C   UNL     1      57.530  37.828  75.189  0.00  0.00    +0.000 A 
ATOM      9  C   UNL     1      57.084  38.836  76.153  0.00  0.00    +0.000 A 
ATOM     10  C   UNL     1      58.350  37.722  77.759  0.00  0.00    +0.000 A 
ATOM     11  H   UNL     1      59.442  36.047  77.220  0.00  0.00    +0.000 HD
ATOM     12  N   UNL     1      58.823  37.577  79.020  0.00  0.00    +0.000 N 
ATOM     13  H   UNL     1      58.746  36.638  79.390  0.00  0.00    +0.000 HD
ATOM     14  H   UNL     1      58.378  38.245  79.646  0.00  0.00    +0.000 HD
ENDROOT
BRANCH   2  15
ATOM     15  C1* UNL     1      59.515  34.945  74.436  0.00  0.00    +0.000 A 
ATOM     16  O4* UNL     1      59.305  33.933  73.469  0.00  0.00    +0.000 OA
ATOM     17  C4* UNL     1      60.299  32.950  73.604  0.00  0.00    +0.000 A 
ATOM     18  C3* UNL     1      61.171  33.339  74.675  0.00  0.00    +0.000 A 
ATOM     19  C2* UNL     1      60.692  34.586  75.188  0.00  0.00    +0.000 A 
BRANCH  18  20
ATOM     20  O3* UNL     1      61.797  32.447  75.503  0.00  0.00    +0.000 OA
ATOM     21  H3* UNL     1      62.438  32.890  76.089  0.00  0.00    +0.000 HD
ENDBRANCH  18  20
BRANCH  19  22
ATOM     22  O2* UNL     1      60.865  34.913  76.505  0.00  0.00    +0.000 OA
ATOM     23  H2* UNL     1      60.703  35.871  76.624  0.00  0.00    +0.000 HD
ENDBRANCH  19  22
BRANCH  17  24
ATOM     24  C5* UNL     1      60.227  31.700  72.963  0.00  0.00    +0.000 C 
BRANCH  24  25
ATOM     25  O5* UNL     1      60.138  30.516  72.367  0.00  0.00    +0.000 OA
ATOM     26  H5* UNL     1      59.376  30.016  72.710  0.00  0.00    +0.000 HD
ENDBRANCH  24  25
ENDBRANCH  17  24
ENDBRANCH   2  15
TORSDOF 5
ENDMDL
MODEL 3
REMARK VINA RESULT:      -5.2     18.570     19.877
REMARK  Name = Thioguanosine.pdbqt.pdb
REMARK  5 active torsions:
REMARK  status: ('A' for Active; 'I' for Inactive)
REMARK    1  A    between atoms: N_2  and  C1*_12
REMARK    2  A    between atoms: C4*_14  and  C5*_17
REMARK    3  A    between atoms: C3*_15  and  O3*_20
REMARK    4  A    between atoms: C2*_16  and  O2*_22
REMARK    5  A    between atoms: C5*_17  and  O5*_18
REMARK                            x       y       z     vdW  Elec       q    Type
REMARK                         _______ _______ _______ _____ _____    ______ ____
ROOT
ATOM      1  S   UNL     1      48.668  20.426  83.482  0.00  0.00    +0.000 S 
ATOM      2  N   UNL     1      46.196  24.579  84.276  0.00  0.00    +0.000 N 
ATOM      3  N   UNL     1      48.491  24.551  85.166  0.00  0.00    +0.000 N 
ATOM      4  N   UNL     1      46.252  22.504  83.372  0.00  0.00    +0.000 NA
ATOM      5  N   UNL     1      49.720  22.541  84.846  0.00  0.00    +0.000 NA
ATOM      6  C   UNL     1      47.430  24.033  84.521  0.00  0.00    +0.000 A 
ATOM      7  C   UNL     1      45.537  23.597  83.553  0.00  0.00    +0.000 A 
ATOM      8  C   UNL     1      47.450  22.769  83.988  0.00  0.00    +0.000 A 
ATOM      9  C   UNL     1      48.659  21.959  84.148  0.00  0.00    +0.000 A 
ATOM     10  C   UNL     1      49.596  23.755  85.297  0.00  0.00    +0.000 A 
ATOM     11  H   UNL     1      48.477  25.471  85.600  0.00  0.00    +0.000 HD
ATOM     12  N   UNL     1      50.612  24.345  85.972  0.00  0.00    +0.000 N 
ATOM     13  H   UNL     1      50.823  25.286  85.669  0.00  0.00    +0.000 HD
ATOM     14  H   UNL     1      51.446  23.763  85.938  0.00  0.00    +0.000 HD
ENDROOT
BRANCH   2  15
ATOM     15  C1* UNL     1      45.657  25.796  84.646  0.00  0.00    +0.000 A 
ATOM     16  O4* UNL     1      44.686  26.456  83.855  0.00  0.00    +0.000 OA
ATOM     17  C4* UNL     1      44.336  27.670  84.468  0.00  0.00    +0.000 A 
ATOM     18  C3* UNL     1      45.090  27.792  85.683  0.00  0.00    +0.000 A 
ATOM     19  C2* UNL     1      45.905  26.623  85.802  0.00  0.00    +0.000 A 
BRANCH  18  20
ATOM     20  O3* UNL     1      45.521  28.989  86.188  0.00  0.00    +0.000 OA
ATOM     21  H3* UNL     1      44.824  29.431  86.708  0.00  0.00    +0.000 HD
ENDBRANCH  18  20
BRANCH  19  22
ATOM     22  O2* UNL     1      47.116  26.677  86.435  0.00  0.00    +0.000 OA
ATOM     23  H2* UNL     1      47.773  27.097  85.842  0.00  0.00    +0.000 HD
ENDBRANCH  19  22
BRANCH  17  24
ATOM     24  C5* UNL     1      43.588  28.667  83.814  0.00  0.00    +0.000 C 
BRANCH  24  25
ATOM     25  O5* UNL     1      42.864  29.593  83.195  0.00  0.00    +0.000 OA
ATOM     26  H5* UNL     1      43.199  30.484  83.400  0.00  0.00    +0.000 HD
ENDBRANCH  24  25
ENDBRANCH  17  24
ENDBRANCH   2  15
TORSDOF 5
ENDMDL
MODEL 4
REMARK VINA RESULT:      -5.0     56.708     58.724
REMARK  Name = Thioguanosine.pdbqt.pdb
REMARK  5 active torsions:
REMARK  status: ('A' for Active; 'I' for Inactive)
REMARK    1  A    between atoms: N_2  and  C1*_12
REMARK    2  A    between atoms: C4*_14  and  C5*_17
REMARK    3  A    between atoms: C3*_15  and  O3*_20
REMARK    4  A    between atoms: C2*_16  and  O2*_22
REMARK    5  A    between atoms: C5*_17  and  O5*_18
REMARK                            x       y       z     vdW  Elec       q    Type
REMARK                         _______ _______ _______ _____ _____    ______ ____
ROOT
ATOM      1  S   UNL     1      13.466  10.631 103.943  0.00  0.00    +0.000 S 
ATOM      2  N   UNL     1      13.501   7.759  99.975  0.00  0.00    +0.000 N 
ATOM      3  N   UNL     1      15.650   8.842 100.491  0.00  0.00    +0.000 N 
ATOM      4  N   UNL     1      12.360   8.614 101.734  0.00  0.00    +0.000 NA
ATOM      5  N   UNL     1      15.677  10.282 102.383  0.00  0.00    +0.000 NA
ATOM      6  C   UNL     1      14.352   8.556 100.698  0.00  0.00    +0.000 A 
ATOM      7  C   UNL     1      12.308   7.826 100.678  0.00  0.00    +0.000 A 
ATOM      8  C   UNL     1      13.650   9.086 101.750  0.00  0.00    +0.000 A 
ATOM      9  C   UNL     1      14.336  10.005 102.660  0.00  0.00    +0.000 A 
ATOM     10  C   UNL     1      16.248   9.711 101.363  0.00  0.00    +0.000 A 
ATOM     11  H   UNL     1      16.173   8.487  99.694  0.00  0.00    +0.000 HD
ATOM     12  N   UNL     1      17.549   9.958 101.076  0.00  0.00    +0.000 N 
ATOM     13  H   UNL     1      18.098   9.130 100.886  0.00  0.00    +0.000 HD
ATOM     14  H   UNL     1      17.977  10.510 101.815  0.00  0.00    +0.000 HD
ENDROOT
BRANCH   2  15
ATOM     15  C1* UNL     1      13.701   7.048  98.808  0.00  0.00    +0.000 A 
ATOM     16  O4* UNL     1      13.360   5.678  98.699  0.00  0.00    +0.000 OA
ATOM     17  C4* UNL     1      13.687   5.220  97.411  0.00  0.00    +0.000 A 
ATOM     18  C3* UNL     1      14.243   6.319  96.674  0.00  0.00    +0.000 A 
ATOM     19  C2* UNL     1      14.243   7.459  97.536  0.00  0.00    +0.000 A 
BRANCH  18  20
ATOM     20  O3* UNL     1      15.213   6.174  95.719  0.00  0.00    +0.000 OA
ATOM     21  H3* UNL     1      15.343   5.238  95.478  0.00  0.00    +0.000 HD
ENDBRANCH  18  20
BRANCH  19  22
ATOM     22  O2* UNL     1      15.199   8.430  97.412  0.00  0.00    +0.000 OA
ATOM     23  H2* UNL     1      14.849   9.275  97.760  0.00  0.00    +0.000 HD
ENDBRANCH  19  22
BRANCH  17  24
ATOM     24  C5* UNL     1      13.703   3.856  97.069  0.00  0.00    +0.000 C 
BRANCH  24  25
ATOM     25  O5* UNL     1      13.703   2.563  96.763  0.00  0.00    +0.000 OA
ATOM     26  H5* UNL     1      12.829   2.170  96.935  0.00  0.00    +0.000 HD
ENDBRANCH  24  25
ENDBRANCH  17  24
ENDBRANCH   2  15
TORSDOF 5
ENDMDL
MODEL 5
REMARK VINA RESULT:      -4.9     18.734     21.040
REMARK  Name = Thioguanosine.pdbqt.pdb
REMARK  5 active torsions:
REMARK  status: ('A' for Active; 'I' for Inactive)
REMARK    1  A    between atoms: N_2  and  C1*_12
REMARK    2  A    between atoms: C4*_14  and  C5*_17
REMARK    3  A    between atoms: C3*_15  and  O3*_20
REMARK    4  A    between atoms: C2*_16  and  O2*_22
REMARK    5  A    between atoms: C5*_17  and  O5*_18
REMARK                            x       y       z     vdW  Elec       q    Type
REMARK                         _______ _______ _______ _____ _____    ______ ____
ROOT
ATOM      1  S   UNL     1      47.588  21.282  83.647  0.00  0.00    +0.000 S 
ATOM      2  N   UNL     1      44.567  25.048  84.475  0.00  0.00    +0.000 N 
ATOM      3  N   UNL     1      46.954  25.535  84.829  0.00  0.00    +0.000 N 
ATOM      4  N   UNL     1      44.843  22.894  83.834  0.00  0.00    +0.000 NA
ATOM      5  N   UNL     1      48.460  23.728  84.483  0.00  0.00    +0.000 NA
ATOM      6  C   UNL     1      45.907  24.756  84.502  0.00  0.00    +0.000 A 
ATOM      7  C   UNL     1      43.980  23.870  84.039  0.00  0.00    +0.000 A 
ATOM      8  C   UNL     1      46.065  23.444  84.132  0.00  0.00    +0.000 A 
ATOM      9  C   UNL     1      47.416  22.878  84.112  0.00  0.00    +0.000 A 
ATOM     10  C   UNL     1      48.195  24.961  84.803  0.00  0.00    +0.000 A 
ATOM     11  H   UNL     1      46.848  26.497  85.142  0.00  0.00    +0.000 HD
ATOM     12  N   UNL     1      49.191  25.808  85.161  0.00  0.00    +0.000 N 
ATOM     13  H   UNL     1      49.152  26.712  84.709  0.00  0.00    +0.000 HD
ATOM     14  H   UNL     1      50.098  25.372  85.011  0.00  0.00    +0.000 HD
ENDROOT
BRANCH   2  15
ATOM     15  C1* UNL     1      43.887  26.203  84.809  0.00  0.00    +0.000 A 
ATOM     16  O4* UNL     1      43.179  26.328  86.029  0.00  0.00    +0.000 OA
ATOM     17  C4* UNL     1      42.579  27.597  86.088  0.00  0.00    +0.000 A 
ATOM     18  C3* UNL     1      42.912  28.306  84.886  0.00  0.00    +0.000 A 
ATOM     19  C2* UNL     1      43.734  27.446  84.094  0.00  0.00    +0.000 A 
BRANCH  18  20
ATOM     20  O3* UNL     1      42.078  29.210  84.286  0.00  0.00    +0.000 OA
ATOM     21  H3* UNL     1      42.250  30.119  84.596  0.00  0.00    +0.000 HD
ENDBRANCH  18  20
BRANCH  19  22
ATOM     22  O2* UNL     1      43.714  27.522  82.728  0.00  0.00    +0.000 OA
ATOM     23  H2* UNL     1      44.146  28.353  82.443  0.00  0.00    +0.000 HD
ENDBRANCH  19  22
BRANCH  17  24
ATOM     24  C5* UNL     1      41.609  27.937  87.049  0.00  0.00    +0.000 C 
BRANCH  24  25
ATOM     25  O5* UNL     1      40.704  28.279  87.960  0.00  0.00    +0.000 OA
ATOM     26  H5* UNL     1      41.031  28.087  88.857  0.00  0.00    +0.000 HD
ENDBRANCH  24  25
ENDBRANCH  17  24
ENDBRANCH   2  15
TORSDOF 5
ENDMDL
MODEL 6
REMARK VINA RESULT:      -4.7     19.607     20.889
REMARK  Name = Thioguanosine.pdbqt.pdb
REMARK  5 active torsions:
REMARK  status: ('A' for Active; 'I' for Inactive)
REMARK    1  A    between atoms: N_2  and  C1*_12
REMARK    2  A    between atoms: C4*_14  and  C5*_17
REMARK    3  A    between atoms: C3*_15  and  O3*_20
REMARK    4  A    between atoms: C2*_16  and  O2*_22
REMARK    5  A    between atoms: C5*_17  and  O5*_18
REMARK                            x       y       z     vdW  Elec       q    Type
REMARK                         _______ _______ _______ _____ _____    ______ ____
ROOT
ATOM      1  S   UNL     1      46.147  19.618  83.397  0.00  0.00    +0.000 S 
ATOM      2  N   UNL     1      44.796  24.231  84.341  0.00  0.00    +0.000 N 
ATOM      3  N   UNL     1      47.191  23.764  84.665  0.00  0.00    +0.000 N 
ATOM      4  N   UNL     1      44.226  22.150  83.656  0.00  0.00    +0.000 NA
ATOM      5  N   UNL     1      47.893  21.528  84.263  0.00  0.00    +0.000 NA
ATOM      6  C   UNL     1      45.924  23.450  84.341  0.00  0.00    +0.000 A 
ATOM      7  C   UNL     1      43.802  23.376  83.892  0.00  0.00    +0.000 A 
ATOM      8  C   UNL     1      45.568  22.186  83.944  0.00  0.00    +0.000 A 
ATOM      9  C   UNL     1      46.600  21.149  83.894  0.00  0.00    +0.000 A 
ATOM     10  C   UNL     1      48.120  22.761  84.610  0.00  0.00    +0.000 A 
ATOM     11  H   UNL     1      47.463  24.686  84.998  0.00  0.00    +0.000 HD
ATOM     12  N   UNL     1      49.366  23.156  84.967  0.00  0.00    +0.000 N 
ATOM     13  H   UNL     1      49.671  24.017  84.532  0.00  0.00    +0.000 HD
ATOM     14  H   UNL     1      50.038  22.411  84.795  0.00  0.00    +0.000 HD
ENDROOT
BRANCH   2  15
ATOM     15  C1* UNL     1      44.610  25.550  84.706  0.00  0.00    +0.000 A 
ATOM     16  O4* UNL     1      43.697  26.392  84.029  0.00  0.00    +0.000 OA
ATOM     17  C4* UNL     1      43.731  27.673  84.606  0.00  0.00    +0.000 A 
ATOM     18  C3* UNL     1      44.680  27.653  85.682  0.00  0.00    +0.000 A 
ATOM     19  C2* UNL     1      45.221  26.331  85.753  0.00  0.00    +0.000 A 
BRANCH  18  20
ATOM     20  O3* UNL     1      45.444  28.733  86.035  0.00  0.00    +0.000 OA
ATOM     21  H3* UNL     1      44.970  29.572  85.886  0.00  0.00    +0.000 HD
ENDBRANCH  18  20
BRANCH  19  22
ATOM     22  O2* UNL     1      46.500  26.122  86.191  0.00  0.00    +0.000 OA
ATOM     23  H2* UNL     1      47.130  26.435  85.510  0.00  0.00    +0.000 HD
ENDBRANCH  19  22
BRANCH  17  24
ATOM     24  C5* UNL     1      43.129  28.795  84.008  0.00  0.00    +0.000 C 
BRANCH  24  25
ATOM     25  O5* UNL     1      42.540  29.849  83.453  0.00  0.00    +0.000 OA
ATOM     26  H5* UNL     1      42.520  29.759  82.483  0.00  0.00    +0.000 HD
ENDBRANCH  24  25
ENDBRANCH  17  24
ENDBRANCH   2  15
TORSDOF 5
ENDMDL
MODEL 7
REMARK VINA RESULT:      -4.6      9.079     11.512
REMARK  Name = Thioguanosine.pdbqt.pdb
REMARK  5 active torsions:
REMARK  status: ('A' for Active; 'I' for Inactive)
REMARK    1  A    between atoms: N_2  and  C1*_12
REMARK    2  A    between atoms: C4*_14  and  C5*_17
REMARK    3  A    between atoms: C3*_15  and  O3*_20
REMARK    4  A    between atoms: C2*_16  and  O2*_22
REMARK    5  A    between atoms: C5*_17  and  O5*_18
REMARK                            x       y       z     vdW  Elec       q    Type
REMARK                         _______ _______ _______ _____ _____    ______ ____
ROOT
ATOM      1  S   UNL     1      51.901  32.734  90.636  0.00  0.00    +0.000 S 
ATOM      2  N   UNL     1      55.384  34.468  87.659  0.00  0.00    +0.000 N 
ATOM      3  N   UNL     1      55.681  32.123  88.349  0.00  0.00    +0.000 N 
ATOM      4  N   UNL     1      53.444  34.813  88.774  0.00  0.00    +0.000 NA
ATOM      5  N   UNL     1      54.040  31.245  89.830  0.00  0.00    +0.000 NA
ATOM      6  C   UNL     1      55.047  33.309  88.313  0.00  0.00    +0.000 A 
ATOM      7  C   UNL     1      54.349  35.336  87.970  0.00  0.00    +0.000 A 
ATOM      8  C   UNL     1      53.882  33.532  89.002  0.00  0.00    +0.000 A 
ATOM      9  C   UNL     1      53.328  32.446  89.813  0.00  0.00    +0.000 A 
ATOM     10  C   UNL     1      55.130  31.141  89.125  0.00  0.00    +0.000 A 
ATOM     11  H   UNL     1      56.565  31.956  87.875  0.00  0.00    +0.000 HD
ATOM     12  N   UNL     1      55.836  29.985  89.119  0.00  0.00    +0.000 N 
ATOM     13  H   UNL     1      56.111  29.669  88.199  0.00  0.00    +0.000 HD
ATOM     14  H   UNL     1      55.326  29.254  89.611  0.00  0.00    +0.000 HD
ENDROOT
BRANCH   2  15
ATOM     15  C1* UNL     1      56.482  34.779  86.880  0.00  0.00    +0.000 A 
ATOM     16  O4* UNL     1      56.350  35.409  85.620  0.00  0.00    +0.000 OA
ATOM     17  C4* UNL     1      57.623  35.588  85.055  0.00  0.00    +0.000 A 
ATOM     18  C3* UNL     1      58.597  35.069  85.973  0.00  0.00    +0.000 A 
ATOM     19  C2* UNL     1      57.890  34.575  87.114  0.00  0.00    +0.000 A 
BRANCH  18  20
ATOM     20  O3* UNL     1      59.770  34.483  85.580  0.00  0.00    +0.000 OA
ATOM     21  H3* UNL     1      60.540  34.903  86.005  0.00  0.00    +0.000 HD
ENDBRANCH  18  20
BRANCH  19  22
ATOM     22  O2* UNL     1      58.381  33.524  87.840  0.00  0.00    +0.000 OA
ATOM     23  H2* UNL     1      57.657  32.893  88.026  0.00  0.00    +0.000 HD
ENDBRANCH  19  22
BRANCH  17  24
ATOM     24  C5* UNL     1      57.816  35.955  83.710  0.00  0.00    +0.000 C 
BRANCH  24  25
ATOM     25  O5* UNL     1      58.018  36.312  82.446  0.00  0.00    +0.000 OA
ATOM     26  H5* UNL     1      57.180  36.580  82.028  0.00  0.00    +0.000 HD
ENDBRANCH  24  25
ENDBRANCH  17  24
ENDBRANCH   2  15
TORSDOF 5
ENDMDL
MODEL 8
REMARK VINA RESULT:      -4.4      9.010     11.261
REMARK  Name = Thioguanosine.pdbqt.pdb
REMARK  5 active torsions:
REMARK  status: ('A' for Active; 'I' for Inactive)
REMARK    1  A    between atoms: N_2  and  C1*_12
REMARK    2  A    between atoms: C4*_14  and  C5*_17
REMARK    3  A    between atoms: C3*_15  and  O3*_20
REMARK    4  A    between atoms: C2*_16  and  O2*_22
REMARK    5  A    between atoms: C5*_17  and  O5*_18
REMARK                            x       y       z     vdW  Elec       q    Type
REMARK                         _______ _______ _______ _____ _____    ______ ____
ROOT
ATOM      1  S   UNL     1      52.028  33.635  90.752  0.00  0.00    +0.000 S 
ATOM      2  N   UNL     1      55.515  34.644  87.462  0.00  0.00    +0.000 N 
ATOM      3  N   UNL     1      54.251  36.597  88.267  0.00  0.00    +0.000 N 
ATOM      4  N   UNL     1      54.440  33.109  88.733  0.00  0.00    +0.000 NA
ATOM      5  N   UNL     1      52.516  36.157  89.833  0.00  0.00    +0.000 NA
ATOM      6  C   UNL     1      54.566  35.290  88.213  0.00  0.00    +0.000 A 
ATOM      7  C   UNL     1      55.394  33.318  87.847  0.00  0.00    +0.000 A 
ATOM      8  C   UNL     1      53.905  34.352  88.965  0.00  0.00    +0.000 A 
ATOM      9  C   UNL     1      52.813  34.792  89.835  0.00  0.00    +0.000 A 
ATOM     10  C   UNL     1      53.219  36.961  89.089  0.00  0.00    +0.000 A 
ATOM     11  H   UNL     1      54.706  37.298  87.687  0.00  0.00    +0.000 HD
ATOM     12  N   UNL     1      52.956  38.289  89.072  0.00  0.00    +0.000 N 
ATOM     13  H   UNL     1      53.774  38.878  89.163  0.00  0.00    +0.000 HD
ATOM     14  H   UNL     1      52.267  38.524  89.784  0.00  0.00    +0.000 HD
ENDROOT
BRANCH   2  15
ATOM     15  C1* UNL     1      56.399  35.124  86.516  0.00  0.00    +0.000 A 
ATOM     16  O4* UNL     1      56.826  34.333  85.422  0.00  0.00    +0.000 OA
ATOM     17  C4* UNL     1      57.728  35.072  84.639  0.00  0.00    +0.000 A 
ATOM     18  C3* UNL     1      57.880  36.369  85.236  0.00  0.00    +0.000 A 
ATOM     19  C2* UNL     1      57.046  36.407  86.397  0.00  0.00    +0.000 A 
BRANCH  18  20
ATOM     20  O3* UNL     1      59.045  37.087  85.197  0.00  0.00    +0.000 OA
ATOM     21  H3* UNL     1      58.890  38.032  85.381  0.00  0.00    +0.000 HD
ENDBRANCH  18  20
BRANCH  19  22
ATOM     22  O2* UNL     1      57.389  37.172  87.479  0.00  0.00    +0.000 OA
ATOM     23  H2* UNL     1      58.264  37.582  87.321  0.00  0.00    +0.000 HD
ENDBRANCH  19  22
BRANCH  17  24
ATOM     24  C5* UNL     1      58.516  34.490  83.630  0.00  0.00    +0.000 C 
BRANCH  24  25
ATOM     25  O5* UNL     1      59.242  33.934  82.665  0.00  0.00    +0.000 OA
ATOM     26  H5* UNL     1      59.525  34.606  82.019  0.00  0.00    +0.000 HD
ENDBRANCH  24  25
ENDBRANCH  17  24
ENDBRANCH   2  15
TORSDOF 5
ENDMDL
MODEL 9
REMARK VINA RESULT:      -4.4     48.302     50.295
REMARK  Name = Thioguanosine.pdbqt.pdb
REMARK  5 active torsions:
REMARK  status: ('A' for Active; 'I' for Inactive)
REMARK    1  A    between atoms: N_2  and  C1*_12
REMARK    2  A    between atoms: C4*_14  and  C5*_17
REMARK    3  A    between atoms: C3*_15  and  O3*_20
REMARK    4  A    between atoms: C2*_16  and  O2*_22
REMARK    5  A    between atoms: C5*_17  and  O5*_18
REMARK                            x       y       z     vdW  Elec       q    Type
REMARK                         _______ _______ _______ _____ _____    ______ ____
ROOT
ATOM      1  S   UNL     1      24.608  14.487  99.004  0.00  0.00    +0.000 S 
ATOM      2  N   UNL     1      24.674   9.594  98.791  0.00  0.00    +0.000 N 
ATOM      3  N   UNL     1      22.517  10.628  98.212  0.00  0.00    +0.000 N 
ATOM      4  N   UNL     1      25.788  11.529  99.167  0.00  0.00    +0.000 NA
ATOM      5  N   UNL     1      22.418  13.001  98.342  0.00  0.00    +0.000 NA
ATOM      6  C   UNL     1      23.810  10.639  98.582  0.00  0.00    +0.000 A 
ATOM      7  C   UNL     1      25.868  10.213  99.125  0.00  0.00    +0.000 A 
ATOM      8  C   UNL     1      24.486  11.807  98.831  0.00  0.00    +0.000 A 
ATOM      9  C   UNL     1      23.764  13.075  98.707  0.00  0.00    +0.000 A 
ATOM     10  C   UNL     1      21.882  11.837  98.116  0.00  0.00    +0.000 A 
ATOM     11  H   UNL     1      21.993   9.770  98.062  0.00  0.00    +0.000 HD
ATOM     12  N   UNL     1      20.580  11.738  97.756  0.00  0.00    +0.000 N 
ATOM     13  H   UNL     1      20.411  11.126  96.968  0.00  0.00    +0.000 HD
ATOM     14  H   UNL     1      20.188  12.661  97.582  0.00  0.00    +0.000 HD
ENDROOT
BRANCH   2  15
ATOM     15  C1* UNL     1      24.474   8.228  98.725  0.00  0.00    +0.000 A 
ATOM     16  O4* UNL     1      23.225   7.640  99.037  0.00  0.00    +0.000 OA
ATOM     17  C4* UNL     1      23.321   6.246  98.897  0.00  0.00    +0.000 A 
ATOM     18  C3* UNL     1      24.658   5.929  98.480  0.00  0.00    +0.000 A 
ATOM     19  C2* UNL     1      25.374   7.162  98.362  0.00  0.00    +0.000 A 
BRANCH  18  20
ATOM     20  O3* UNL     1      25.311   4.782  98.843  0.00  0.00    +0.000 OA
ATOM     21  H3* UNL     1      25.040   4.026  98.291  0.00  0.00    +0.000 HD
ENDBRANCH  18  20
BRANCH  19  22
ATOM     22  O2* UNL     1      26.721   7.212  98.592  0.00  0.00    +0.000 OA
ATOM     23  H2* UNL     1      27.152   7.725  97.878  0.00  0.00    +0.000 HD
ENDBRANCH  19  22
BRANCH  17  24
ATOM     24  C5* UNL     1      22.334   5.362  99.371  0.00  0.00    +0.000 C 
BRANCH  24  25
ATOM     25  O5* UNL     1      21.397   4.521  99.796  0.00  0.00    +0.000 OA
ATOM     26  H5* UNL     1      21.000   4.043  99.046  0.00  0.00    +0.000 HD
ENDBRANCH  24  25
ENDBRANCH  17  24
ENDBRANCH   2  15
TORSDOF 5
ENDMDL
