MODEL 1
REMARK VINA RESULT:      -8.4      0.000      0.000
REMARK  Name = Troglitazone.pdbqt.pdb
REMARK  4 active torsions:
REMARK  status: ('A' for Active; 'I' for Inactive)
REMARK    1  A    between atoms: C_1  and  O_2
REMARK    2  A    between atoms: C_1  and  C_18
REMARK    3  A    between atoms: O_2  and  C_3
REMARK    4  A    between atoms: C_26  and  O_32
REMARK                            x       y       z     vdW  Elec       q    Type
REMARK                         _______ _______ _______ _____ _____    ______ ____
ROOT
ATOM      1  C   UNL     1      58.017  34.478  83.631  0.00  0.00    +0.000 C 
ENDROOT
BRANCH   1   2
ATOM      2  C   UNL     1      58.039  35.219  84.903  0.00  0.00    +0.000 C 
ATOM      3  O   UNL     1      56.841  34.817  85.660  0.00  0.00    +0.000 OA
ATOM      4  C   UNL     1      56.140  35.677  86.514  0.00  0.00    +0.000 A 
ATOM      5  C   UNL     1      56.207  37.100  86.441  0.00  0.00    +0.000 A 
ATOM      6  C   UNL     1      55.279  35.076  87.456  0.00  0.00    +0.000 A 
ATOM      7  C   UNL     1      57.090  37.595  85.447  0.00  0.00    +0.000 C 
ATOM      8  C   UNL     1      55.458  37.912  87.302  0.00  0.00    +0.000 A 
ATOM      9  C   UNL     1      57.978  36.660  84.695  0.00  0.00    +0.000 C 
ATOM     10  C   UNL     1      54.619  37.303  88.248  0.00  0.00    +0.000 A 
ATOM     11  C   UNL     1      55.547  39.420  87.202  0.00  0.00    +0.000 C 
ATOM     12  C   UNL     1      54.527  35.897  88.326  0.00  0.00    +0.000 A 
ATOM     13  C   UNL     1      53.568  35.348  89.382  0.00  0.00    +0.000 C 
ATOM     14  C   UNL     1      55.177  33.557  87.493  0.00  0.00    +0.000 C 
ATOM     15  C   UNL     1      59.265  34.832  85.767  0.00  0.00    +0.000 C 
BRANCH  10  16
ATOM     16  O   UNL     1      53.866  38.084  89.109  0.00  0.00    +0.000 OA
ATOM     17  H   UNL     1      54.412  38.853  89.382  0.00  0.00    +0.000 HD
ENDBRANCH  10  16
ENDBRANCH   1   2
BRANCH   1  18
ATOM     18  O   UNL     1      58.007  33.809  82.477  0.00  0.00    +0.000 OA
BRANCH  18  19
ATOM     19  C   UNL     1      57.631  34.553  81.386  0.00  0.00    +0.000 C 
ATOM     20  C   UNL     1      56.796  35.671  81.442  0.00  0.00    +0.000 C 
ATOM     21  C   UNL     1      56.476  36.366  80.279  0.00  0.00    +0.000 C 
ATOM     22  C   UNL     1      56.990  35.944  79.056  0.00  0.00    +0.000 C 
ATOM     23  C   UNL     1      57.823  34.828  78.993  0.00  0.00    +0.000 C 
ATOM     24  C   UNL     1      58.143  34.135  80.158  0.00  0.00    +0.000 C 
ATOM     25  C   UNL     1      56.665  36.654  77.865  0.00  0.00    +0.000 C 
ATOM     26  C   UNL     1      56.339  37.349  76.679  0.00  0.00    +0.000 C 
ATOM     27  S   UNL     1      56.219  39.062  76.542  0.00  0.00    +0.000 S 
ATOM     28  C   UNL     1      55.820  38.966  74.839  0.00  0.00    +0.000 C 
ATOM     29  O   UNL     1      55.610  39.933  74.126  0.00  0.00    +0.000 OA
ATOM     30  N   UNL     1      55.788  37.668  74.446  0.00  0.00    +0.000 N 
ATOM     31  C   UNL     1      56.065  36.710  75.375  0.00  0.00    +0.000 C 
ATOM     32  H   UNL     1      55.578  37.422  73.491  0.00  0.00    +0.000 HD
ATOM     33  O   UNL     1      56.086  35.510  75.157  0.00  0.00    +0.000 OA
ENDBRANCH  18  19
ENDBRANCH   1  18
TORSDOF 4
ENDMDL
MODEL 2
REMARK VINA RESULT:      -7.9      4.868     13.554
REMARK  Name = Troglitazone.pdbqt.pdb
REMARK  4 active torsions:
REMARK  status: ('A' for Active; 'I' for Inactive)
REMARK    1  A    between atoms: C_1  and  O_2
REMARK    2  A    between atoms: C_1  and  C_18
REMARK    3  A    between atoms: O_2  and  C_3
REMARK    4  A    between atoms: C_26  and  O_32
REMARK                            x       y       z     vdW  Elec       q    Type
REMARK                         _______ _______ _______ _____ _____    ______ ____
ROOT
ATOM      1  C   UNL     1      57.687  38.903  72.520  0.00  0.00    +0.000 C 
ENDROOT
BRANCH   1   2
ATOM      2  C   UNL     1      56.599  39.766  72.031  0.00  0.00    +0.000 C 
ATOM      3  O   UNL     1      57.048  40.350  70.756  0.00  0.00    +0.000 OA
ATOM      4  C   UNL     1      56.690  41.633  70.323  0.00  0.00    +0.000 A 
ATOM      5  C   UNL     1      56.238  42.669  71.192  0.00  0.00    +0.000 A 
ATOM      6  C   UNL     1      56.851  41.909  68.949  0.00  0.00    +0.000 A 
ATOM      7  C   UNL     1      56.129  42.285  72.554  0.00  0.00    +0.000 C 
ATOM      8  C   UNL     1      55.924  43.944  70.708  0.00  0.00    +0.000 A 
ATOM      9  C   UNL     1      56.317  40.860  72.953  0.00  0.00    +0.000 C 
ATOM     10  C   UNL     1      56.070  44.202  69.336  0.00  0.00    +0.000 A 
ATOM     11  C   UNL     1      55.445  45.026  71.653  0.00  0.00    +0.000 C 
ATOM     12  C   UNL     1      56.531  43.196  68.462  0.00  0.00    +0.000 A 
ATOM     13  C   UNL     1      56.667  43.596  66.993  0.00  0.00    +0.000 C 
ATOM     14  C   UNL     1      57.383  40.811  68.037  0.00  0.00    +0.000 C 
ATOM     15  C   UNL     1      55.319  38.951  71.724  0.00  0.00    +0.000 C 
BRANCH  10  16
ATOM     16  O   UNL     1      55.768  45.457  68.832  0.00  0.00    +0.000 OA
ATOM     17  H   UNL     1      56.363  46.110  69.260  0.00  0.00    +0.000 HD
ENDBRANCH  10  16
ENDBRANCH   1   2
BRANCH   1  18
ATOM     18  O   UNL     1      58.666  38.112  72.964  0.00  0.00    +0.000 OA
BRANCH  18  19
ATOM     19  C   UNL     1      58.564  37.762  74.287  0.00  0.00    +0.000 C 
ATOM     20  C   UNL     1      58.172  38.632  75.307  0.00  0.00    +0.000 C 
ATOM     21  C   UNL     1      58.091  38.181  76.622  0.00  0.00    +0.000 C 
ATOM     22  C   UNL     1      58.404  36.857  76.920  0.00  0.00    +0.000 C 
ATOM     23  C   UNL     1      58.796  35.985  75.908  0.00  0.00    +0.000 C 
ATOM     24  C   UNL     1      58.875  36.437  74.592  0.00  0.00    +0.000 C 
ATOM     25  C   UNL     1      58.321  36.394  78.264  0.00  0.00    +0.000 C 
ATOM     26  C   UNL     1      58.248  35.929  79.597  0.00  0.00    +0.000 C 
ATOM     27  S   UNL     1      57.021  36.361  80.726  0.00  0.00    +0.000 S 
ATOM     28  C   UNL     1      57.728  35.360  81.979  0.00  0.00    +0.000 C 
ATOM     29  O   UNL     1      57.266  35.237  83.101  0.00  0.00    +0.000 OA
ATOM     30  N   UNL     1      58.846  34.754  81.508  0.00  0.00    +0.000 N 
ATOM     31  C   UNL     1      59.210  34.994  80.216  0.00  0.00    +0.000 C 
ATOM     32  H   UNL     1      59.382  34.133  82.094  0.00  0.00    +0.000 HD
ATOM     33  O   UNL     1      60.180  34.505  79.662  0.00  0.00    +0.000 OA
ENDBRANCH  18  19
ENDBRANCH   1  18
TORSDOF 4
ENDMDL
MODEL 3
REMARK VINA RESULT:      -7.7      8.433     14.777
REMARK  Name = Troglitazone.pdbqt.pdb
REMARK  4 active torsions:
REMARK  status: ('A' for Active; 'I' for Inactive)
REMARK    1  A    between atoms: C_1  and  O_2
REMARK    2  A    between atoms: C_1  and  C_18
REMARK    3  A    between atoms: O_2  and  C_3
REMARK    4  A    between atoms: C_26  and  O_32
REMARK                            x       y       z     vdW  Elec       q    Type
REMARK                         _______ _______ _______ _____ _____    ______ ____
ROOT
ATOM      1  C   UNL     1      61.345  32.124  71.535  0.00  0.00    +0.000 C 
ENDROOT
BRANCH   1   2
ATOM      2  C   UNL     1      61.280  31.881  70.084  0.00  0.00    +0.000 C 
ATOM      3  O   UNL     1      60.228  32.760  69.543  0.00  0.00    +0.000 OA
ATOM      4  C   UNL     1      59.411  32.412  68.460  0.00  0.00    +0.000 A 
ATOM      5  C   UNL     1      59.182  31.071  68.032  0.00  0.00    +0.000 A 
ATOM      6  C   UNL     1      58.739  33.467  67.807  0.00  0.00    +0.000 A 
ATOM      7  C   UNL     1      59.896  30.092  68.771  0.00  0.00    +0.000 C 
ATOM      8  C   UNL     1      58.329  30.781  66.961  0.00  0.00    +0.000 A 
ATOM      9  C   UNL     1      60.916  30.503  69.779  0.00  0.00    +0.000 C 
ATOM     10  C   UNL     1      57.680  31.840  66.307  0.00  0.00    +0.000 A 
ATOM     11  C   UNL     1      58.104  29.348  66.528  0.00  0.00    +0.000 C 
ATOM     12  C   UNL     1      57.880  33.172  66.725  0.00  0.00    +0.000 A 
ATOM     13  C   UNL     1      57.108  34.239  65.949  0.00  0.00    +0.000 C 
ATOM     14  C   UNL     1      58.950  34.892  68.304  0.00  0.00    +0.000 C 
ATOM     15  C   UNL     1      62.600  32.278  69.379  0.00  0.00    +0.000 C 
BRANCH  10  16
ATOM     16  O   UNL     1      56.828  31.579  65.246  0.00  0.00    +0.000 OA
ATOM     17  H   UNL     1      57.074  30.710  64.862  0.00  0.00    +0.000 HD
ENDBRANCH  10  16
ENDBRANCH   1   2
BRANCH   1  18
ATOM     18  O   UNL     1      61.414  32.347  72.848  0.00  0.00    +0.000 OA
BRANCH  18  19
ATOM     19  C   UNL     1      60.561  33.317  73.311  0.00  0.00    +0.000 C 
ATOM     20  C   UNL     1      59.317  33.611  72.747  0.00  0.00    +0.000 C 
ATOM     21  C   UNL     1      58.518  34.612  73.294  0.00  0.00    +0.000 C 
ATOM     22  C   UNL     1      58.961  35.322  74.406  0.00  0.00    +0.000 C 
ATOM     23  C   UNL     1      60.201  35.035  74.973  0.00  0.00    +0.000 C 
ATOM     24  C   UNL     1      60.999  34.032  74.426  0.00  0.00    +0.000 C 
ATOM     25  C   UNL     1      58.145  36.345  74.967  0.00  0.00    +0.000 C 
ATOM     26  C   UNL     1      57.343  37.367  75.524  0.00  0.00    +0.000 C 
ATOM     27  S   UNL     1      55.631  37.291  75.698  0.00  0.00    +0.000 S 
ATOM     28  C   UNL     1      55.568  38.880  76.434  0.00  0.00    +0.000 C 
ATOM     29  O   UNL     1      54.544  39.421  76.815  0.00  0.00    +0.000 OA
ATOM     30  N   UNL     1      56.818  39.401  76.513  0.00  0.00    +0.000 N 
ATOM     31  C   UNL     1      57.857  38.648  76.050  0.00  0.00    +0.000 C 
ATOM     32  H   UNL     1      56.973  40.312  76.915  0.00  0.00    +0.000 HD
ATOM     33  O   UNL     1      59.028  38.986  76.074  0.00  0.00    +0.000 OA
ENDBRANCH  18  19
ENDBRANCH   1  18
TORSDOF 4
ENDMDL
MODEL 4
REMARK VINA RESULT:      -7.6      6.953     10.565
REMARK  Name = Troglitazone.pdbqt.pdb
REMARK  4 active torsions:
REMARK  status: ('A' for Active; 'I' for Inactive)
REMARK    1  A    between atoms: C_1  and  O_2
REMARK    2  A    between atoms: C_1  and  C_18
REMARK    3  A    between atoms: O_2  and  C_3
REMARK    4  A    between atoms: C_26  and  O_32
REMARK                            x       y       z     vdW  Elec       q    Type
REMARK                         _______ _______ _______ _____ _____    ______ ____
ROOT
ATOM      1  C   UNL     1      60.905  33.789  75.404  0.00  0.00    +0.000 C 
ENDROOT
BRANCH   1   2
ATOM      2  C   UNL     1      60.430  35.141  75.744  0.00  0.00    +0.000 C 
ATOM      3  O   UNL     1      59.355  34.985  76.738  0.00  0.00    +0.000 OA
ATOM      4  C   UNL     1      58.249  35.840  76.821  0.00  0.00    +0.000 A 
ATOM      5  C   UNL     1      57.795  36.662  75.748  0.00  0.00    +0.000 A 
ATOM      6  C   UNL     1      57.522  35.824  78.030  0.00  0.00    +0.000 A 
ATOM      7  C   UNL     1      58.591  36.586  74.575  0.00  0.00    +0.000 C 
ATOM      8  C   UNL     1      56.662  37.474  75.878  0.00  0.00    +0.000 A 
ATOM      9  C   UNL     1      59.877  35.830  74.585  0.00  0.00    +0.000 C 
ATOM     10  C   UNL     1      55.958  37.465  77.092  0.00  0.00    +0.000 A 
ATOM     11  C   UNL     1      56.202  38.338  74.722  0.00  0.00    +0.000 C 
ATOM     12  C   UNL     1      56.381  36.646  78.160  0.00  0.00    +0.000 A 
ATOM     13  C   UNL     1      55.526  36.705  79.426  0.00  0.00    +0.000 C 
ATOM     14  C   UNL     1      57.985  34.904  79.153  0.00  0.00    +0.000 C 
ATOM     15  C   UNL     1      61.542  35.984  76.416  0.00  0.00    +0.000 C 
BRANCH  10  16
ATOM     16  O   UNL     1      54.832  38.257  77.245  0.00  0.00    +0.000 OA
ATOM     17  H   UNL     1      55.069  39.018  77.819  0.00  0.00    +0.000 HD
ENDBRANCH  10  16
ENDBRANCH   1   2
BRANCH   1  18
ATOM     18  O   UNL     1      61.345  32.568  75.093  0.00  0.00    +0.000 OA
BRANCH  18  19
ATOM     19  C   UNL     1      61.131  32.197  73.789  0.00  0.00    +0.000 C 
ATOM     20  C   UNL     1      60.613  30.962  73.393  0.00  0.00    +0.000 C 
ATOM     21  C   UNL     1      60.425  30.680  72.042  0.00  0.00    +0.000 C 
ATOM     22  C   UNL     1      60.757  31.633  71.084  0.00  0.00    +0.000 C 
ATOM     23  C   UNL     1      61.275  32.867  71.472  0.00  0.00    +0.000 C 
ATOM     24  C   UNL     1      61.461  33.148  72.824  0.00  0.00    +0.000 C 
ATOM     25  C   UNL     1      60.564  31.347  69.702  0.00  0.00    +0.000 C 
ATOM     26  C   UNL     1      60.384  31.067  68.329  0.00  0.00    +0.000 C 
ATOM     27  S   UNL     1      59.040  30.218  67.665  0.00  0.00    +0.000 S 
ATOM     28  C   UNL     1      59.662  30.374  66.034  0.00  0.00    +0.000 C 
ATOM     29  O   UNL     1      59.101  29.942  65.041  0.00  0.00    +0.000 OA
ATOM     30  N   UNL     1      60.841  31.044  66.052  0.00  0.00    +0.000 N 
ATOM     31  C   UNL     1      61.316  31.472  67.256  0.00  0.00    +0.000 C 
ATOM     32  H   UNL     1      61.342  31.230  65.198  0.00  0.00    +0.000 HD
ATOM     33  O   UNL     1      62.352  32.096  67.416  0.00  0.00    +0.000 OA
ENDBRANCH  18  19
ENDBRANCH   1  18
TORSDOF 4
ENDMDL
MODEL 5
REMARK VINA RESULT:      -7.3      1.626      2.175
REMARK  Name = Troglitazone.pdbqt.pdb
REMARK  4 active torsions:
REMARK  status: ('A' for Active; 'I' for Inactive)
REMARK    1  A    between atoms: C_1  and  O_2
REMARK    2  A    between atoms: C_1  and  C_18
REMARK    3  A    between atoms: O_2  and  C_3
REMARK    4  A    between atoms: C_26  and  O_32
REMARK                            x       y       z     vdW  Elec       q    Type
REMARK                         _______ _______ _______ _____ _____    ______ ____
ROOT
ATOM      1  C   UNL     1      57.715  35.666  84.264  0.00  0.00    +0.000 C 
ENDROOT
BRANCH   1   2
ATOM      2  C   UNL     1      57.572  36.753  85.247  0.00  0.00    +0.000 C 
ATOM      3  O   UNL     1      56.398  36.435  86.078  0.00  0.00    +0.000 OA
ATOM      4  C   UNL     1      55.547  37.407  86.618  0.00  0.00    +0.000 A 
ATOM      5  C   UNL     1      55.431  38.735  86.112  0.00  0.00    +0.000 A 
ATOM      6  C   UNL     1      54.722  37.005  87.690  0.00  0.00    +0.000 A 
ATOM      7  C   UNL     1      56.295  39.024  85.024  0.00  0.00    +0.000 C 
ATOM      8  C   UNL     1      54.539  39.656  86.673  0.00  0.00    +0.000 A 
ATOM      9  C   UNL     1      57.335  38.040  84.605  0.00  0.00    +0.000 C 
ATOM     10  C   UNL     1      53.736  39.251  87.751  0.00  0.00    +0.000 A 
ATOM     11  C   UNL     1      54.436  41.060  86.115  0.00  0.00    +0.000 C 
ATOM     12  C   UNL     1      53.824  37.937  88.256  0.00  0.00    +0.000 A 
ATOM     13  C   UNL     1      52.890  37.605  89.420  0.00  0.00    +0.000 C 
ATOM     14  C   UNL     1      54.816  35.570  88.191  0.00  0.00    +0.000 C 
ATOM     15  C   UNL     1      58.790  36.822  86.202  0.00  0.00    +0.000 C 
BRANCH  10  16
ATOM     16  O   UNL     1      52.843  40.143  88.322  0.00  0.00    +0.000 OA
ATOM     17  H   UNL     1      52.419  40.656  87.601  0.00  0.00    +0.000 HD
ENDBRANCH  10  16
ENDBRANCH   1   2
BRANCH   1  18
ATOM     18  O   UNL     1      57.852  34.676  83.380  0.00  0.00    +0.000 OA
BRANCH  18  19
ATOM     19  C   UNL     1      57.807  35.071  82.066  0.00  0.00    +0.000 C 
ATOM     20  C   UNL     1      58.575  34.508  81.045  0.00  0.00    +0.000 C 
ATOM     21  C   UNL     1      58.454  34.974  79.738  0.00  0.00    +0.000 C 
ATOM     22  C   UNL     1      57.565  36.005  79.450  0.00  0.00    +0.000 C 
ATOM     23  C   UNL     1      56.796  36.571  80.464  0.00  0.00    +0.000 C 
ATOM     24  C   UNL     1      56.917  36.103  81.771  0.00  0.00    +0.000 C 
ATOM     25  C   UNL     1      57.438  36.481  78.114  0.00  0.00    +0.000 C 
ATOM     26  C   UNL     1      57.315  36.964  76.791  0.00  0.00    +0.000 C 
ATOM     27  S   UNL     1      57.328  35.980  75.378  0.00  0.00    +0.000 S 
ATOM     28  C   UNL     1      57.120  37.368  74.328  0.00  0.00    +0.000 C 
ATOM     29  O   UNL     1      57.042  37.305  73.113  0.00  0.00    +0.000 OA
ATOM     30  N   UNL     1      57.055  38.502  75.071  0.00  0.00    +0.000 N 
ATOM     31  C   UNL     1      57.143  38.386  76.426  0.00  0.00    +0.000 C 
ATOM     32  H   UNL     1      56.931  39.400  74.631  0.00  0.00    +0.000 HD
ATOM     33  O   UNL     1      57.085  39.317  77.212  0.00  0.00    +0.000 OA
ENDBRANCH  18  19
ENDBRANCH   1  18
TORSDOF 4
ENDMDL
MODEL 6
REMARK VINA RESULT:      -7.3      4.649     13.378
REMARK  Name = Troglitazone.pdbqt.pdb
REMARK  4 active torsions:
REMARK  status: ('A' for Active; 'I' for Inactive)
REMARK    1  A    between atoms: C_1  and  O_2
REMARK    2  A    between atoms: C_1  and  C_18
REMARK    3  A    between atoms: O_2  and  C_3
REMARK    4  A    between atoms: C_26  and  O_32
REMARK                            x       y       z     vdW  Elec       q    Type
REMARK                         _______ _______ _______ _____ _____    ______ ____
ROOT
ATOM      1  C   UNL     1      57.671  39.335  73.055  0.00  0.00    +0.000 C 
ENDROOT
BRANCH   1   2
ATOM      2  C   UNL     1      56.686  40.368  72.693  0.00  0.00    +0.000 C 
ATOM      3  O   UNL     1      55.882  39.830  71.581  0.00  0.00    +0.000 OA
ATOM      4  C   UNL     1      55.356  40.622  70.553  0.00  0.00    +0.000 A 
ATOM      5  C   UNL     1      55.858  41.910  70.203  0.00  0.00    +0.000 A 
ATOM      6  C   UNL     1      54.304  40.065  69.796  0.00  0.00    +0.000 A 
ATOM      7  C   UNL     1      56.926  42.364  71.020  0.00  0.00    +0.000 C 
ATOM      8  C   UNL     1      55.313  42.644  69.143  0.00  0.00    +0.000 A 
ATOM      9  C   UNL     1      57.327  41.594  72.233  0.00  0.00    +0.000 C 
ATOM     10  C   UNL     1      54.254  42.087  68.409  0.00  0.00    +0.000 A 
ATOM     11  C   UNL     1      55.865  44.009  68.792  0.00  0.00    +0.000 C 
ATOM     12  C   UNL     1      53.753  40.808  68.729  0.00  0.00    +0.000 A 
ATOM     13  C   UNL     1      52.611  40.298  67.850  0.00  0.00    +0.000 C 
ATOM     14  C   UNL     1      53.808  38.667  70.146  0.00  0.00    +0.000 C 
ATOM     15  C   UNL     1      55.705  40.654  73.856  0.00  0.00    +0.000 C 
BRANCH  10  16
ATOM     16  O   UNL     1      53.698  42.792  67.354  0.00  0.00    +0.000 OA
ATOM     17  H   UNL     1      54.419  43.032  66.731  0.00  0.00    +0.000 HD
ENDBRANCH  10  16
ENDBRANCH   1   2
BRANCH   1  18
ATOM     18  O   UNL     1      58.557  38.397  73.392  0.00  0.00    +0.000 OA
BRANCH  18  19
ATOM     19  C   UNL     1      58.488  37.987  74.701  0.00  0.00    +0.000 C 
ATOM     20  C   UNL     1      58.268  38.839  75.785  0.00  0.00    +0.000 C 
ATOM     21  C   UNL     1      58.207  38.327  77.079  0.00  0.00    +0.000 C 
ATOM     22  C   UNL     1      58.366  36.960  77.291  0.00  0.00    +0.000 C 
ATOM     23  C   UNL     1      58.586  36.105  76.213  0.00  0.00    +0.000 C 
ATOM     24  C   UNL     1      58.645  36.619  74.920  0.00  0.00    +0.000 C 
ATOM     25  C   UNL     1      58.302  36.434  78.613  0.00  0.00    +0.000 C 
ATOM     26  C   UNL     1      58.248  35.907  79.923  0.00  0.00    +0.000 C 
ATOM     27  S   UNL     1      57.153  36.422  81.148  0.00  0.00    +0.000 S 
ATOM     28  C   UNL     1      57.797  35.272  82.302  0.00  0.00    +0.000 C 
ATOM     29  O   UNL     1      57.389  35.142  83.444  0.00  0.00    +0.000 OA
ATOM     30  N   UNL     1      58.801  34.560  81.731  0.00  0.00    +0.000 N 
ATOM     31  C   UNL     1      59.117  34.826  80.432  0.00  0.00    +0.000 C 
ATOM     32  H   UNL     1      59.287  33.845  82.250  0.00  0.00    +0.000 HD
ATOM     33  O   UNL     1      59.984  34.254  79.793  0.00  0.00    +0.000 OA
ENDBRANCH  18  19
ENDBRANCH   1  18
TORSDOF 4
ENDMDL
MODEL 7
REMARK VINA RESULT:      -7.0     15.786     18.755
REMARK  Name = Troglitazone.pdbqt.pdb
REMARK  4 active torsions:
REMARK  status: ('A' for Active; 'I' for Inactive)
REMARK    1  A    between atoms: C_1  and  O_2
REMARK    2  A    between atoms: C_1  and  C_18
REMARK    3  A    between atoms: O_2  and  C_3
REMARK    4  A    between atoms: C_26  and  O_32
REMARK                            x       y       z     vdW  Elec       q    Type
REMARK                         _______ _______ _______ _____ _____    ______ ____
ROOT
ATOM      1  C   UNL     1      51.332  20.025  83.434  0.00  0.00    +0.000 C 
ENDROOT
BRANCH   1   2
ATOM      2  C   UNL     1      51.829  19.201  82.319  0.00  0.00    +0.000 C 
ATOM      3  O   UNL     1      52.008  20.098  81.164  0.00  0.00    +0.000 OA
ATOM      4  C   UNL     1      51.807  19.698  79.837  0.00  0.00    +0.000 A 
ATOM      5  C   UNL     1      51.019  18.573  79.453  0.00  0.00    +0.000 A 
ATOM      6  C   UNL     1      52.381  20.509  78.835  0.00  0.00    +0.000 A 
ATOM      7  C   UNL     1      50.478  17.840  80.541  0.00  0.00    +0.000 C 
ATOM      8  C   UNL     1      50.827  18.239  78.107  0.00  0.00    +0.000 A 
ATOM      9  C   UNL     1      50.877  18.164  81.942  0.00  0.00    +0.000 C 
ATOM     10  C   UNL     1      51.418  19.042  77.120  0.00  0.00    +0.000 A 
ATOM     11  C   UNL     1      49.986  17.038  77.729  0.00  0.00    +0.000 C 
ATOM     12  C   UNL     1      52.188  20.169  77.477  0.00  0.00    +0.000 A 
ATOM     13  C   UNL     1      52.768  20.978  76.317  0.00  0.00    +0.000 C 
ATOM     14  C   UNL     1      53.178  21.739  79.252  0.00  0.00    +0.000 C 
ATOM     15  C   UNL     1      53.219  18.595  82.633  0.00  0.00    +0.000 C 
BRANCH  10  16
ATOM     16  O   UNL     1      51.241  18.735  75.781  0.00  0.00    +0.000 OA
ATOM     17  H   UNL     1      50.443  18.169  75.699  0.00  0.00    +0.000 HD
ENDBRANCH  10  16
ENDBRANCH   1   2
BRANCH   1  18
ATOM     18  O   UNL     1      50.876  20.777  84.437  0.00  0.00    +0.000 OA
BRANCH  18  19
ATOM     19  C   UNL     1      49.691  21.420  84.178  0.00  0.00    +0.000 C 
ATOM     20  C   UNL     1      48.758  21.005  83.225  0.00  0.00    +0.000 C 
ATOM     21  C   UNL     1      47.578  21.721  83.039  0.00  0.00    +0.000 C 
ATOM     22  C   UNL     1      47.329  22.856  83.807  0.00  0.00    +0.000 C 
ATOM     23  C   UNL     1      48.256  23.275  84.759  0.00  0.00    +0.000 C 
ATOM     24  C   UNL     1      49.435  22.557  84.944  0.00  0.00    +0.000 C 
ATOM     25  C   UNL     1      46.123  23.589  83.620  0.00  0.00    +0.000 C 
ATOM     26  C   UNL     1      44.932  24.326  83.434  0.00  0.00    +0.000 C 
ATOM     27  S   UNL     1      43.380  23.635  83.145  0.00  0.00    +0.000 S 
ATOM     28  C   UNL     1      42.618  25.210  83.069  0.00  0.00    +0.000 C 
ATOM     29  O   UNL     1      41.427  25.389  82.881  0.00  0.00    +0.000 OA
ATOM     30  N   UNL     1      43.547  26.181  83.255  0.00  0.00    +0.000 N 
ATOM     31  C   UNL     1      44.838  25.800  83.470  0.00  0.00    +0.000 C 
ATOM     32  H   UNL     1      43.285  27.155  83.247  0.00  0.00    +0.000 HD
ATOM     33  O   UNL     1      45.768  26.564  83.666  0.00  0.00    +0.000 OA
ENDBRANCH  18  19
ENDBRANCH   1  18
TORSDOF 4
ENDMDL
MODEL 8
REMARK VINA RESULT:      -6.7      5.053     13.784
REMARK  Name = Troglitazone.pdbqt.pdb
REMARK  4 active torsions:
REMARK  status: ('A' for Active; 'I' for Inactive)
REMARK    1  A    between atoms: C_1  and  O_2
REMARK    2  A    between atoms: C_1  and  C_18
REMARK    3  A    between atoms: O_2  and  C_3
REMARK    4  A    between atoms: C_26  and  O_32
REMARK                            x       y       z     vdW  Elec       q    Type
REMARK                         _______ _______ _______ _____ _____    ______ ____
ROOT
ATOM      1  C   UNL     1      57.380  40.775  72.264  0.00  0.00    +0.000 C 
ENDROOT
BRANCH   1   2
ATOM      2  C   UNL     1      56.279  41.679  71.890  0.00  0.00    +0.000 C 
ATOM      3  O   UNL     1      55.251  40.859  71.226  0.00  0.00    +0.000 OA
ATOM      4  C   UNL     1      54.438  41.329  70.188  0.00  0.00    +0.000 A 
ATOM      5  C   UNL     1      54.762  42.449  69.367  0.00  0.00    +0.000 A 
ATOM      6  C   UNL     1      53.262  40.598  69.920  0.00  0.00    +0.000 A 
ATOM      7  C   UNL     1      55.975  43.098  69.714  0.00  0.00    +0.000 C 
ATOM      8  C   UNL     1      53.925  42.855  68.320  0.00  0.00    +0.000 A 
ATOM      9  C   UNL     1      56.713  42.705  70.950  0.00  0.00    +0.000 C 
ATOM     10  C   UNL     1      52.748  42.131  68.075  0.00  0.00    +0.000 A 
ATOM     11  C   UNL     1      54.294  44.048  67.464  0.00  0.00    +0.000 C 
ATOM     12  C   UNL     1      52.417  41.011  68.866  0.00  0.00    +0.000 A 
ATOM     13  C   UNL     1      51.120  40.291  68.496  0.00  0.00    +0.000 C 
ATOM     14  C   UNL     1      52.949  39.372  70.771  0.00  0.00    +0.000 C 
ATOM     15  C   UNL     1      55.611  42.311  73.136  0.00  0.00    +0.000 C 
BRANCH  10  16
ATOM     16  O   UNL     1      51.904  42.511  67.045  0.00  0.00    +0.000 OA
ATOM     17  H   UNL     1      51.481  43.362  67.293  0.00  0.00    +0.000 HD
ENDBRANCH  10  16
ENDBRANCH   1   2
BRANCH   1  18
ATOM     18  O   UNL     1      58.375  39.958  72.614  0.00  0.00    +0.000 OA
BRANCH  18  19
ATOM     19  C   UNL     1      58.150  39.241  73.763  0.00  0.00    +0.000 C 
ATOM     20  C   UNL     1      59.150  38.833  74.649  0.00  0.00    +0.000 C 
ATOM     21  C   UNL     1      58.822  38.114  75.795  0.00  0.00    +0.000 C 
ATOM     22  C   UNL     1      57.491  37.800  76.058  0.00  0.00    +0.000 C 
ATOM     23  C   UNL     1      56.488  38.204  75.178  0.00  0.00    +0.000 C 
ATOM     24  C   UNL     1      56.819  38.925  74.033  0.00  0.00    +0.000 C 
ATOM     25  C   UNL     1      57.153  37.066  77.230  0.00  0.00    +0.000 C 
ATOM     26  C   UNL     1      56.811  36.331  78.387  0.00  0.00    +0.000 C 
ATOM     27  S   UNL     1      57.533  36.540  79.937  0.00  0.00    +0.000 S 
ATOM     28  C   UNL     1      56.525  35.297  80.650  0.00  0.00    +0.000 C 
ATOM     29  O   UNL     1      56.568  34.965  81.822  0.00  0.00    +0.000 OA
ATOM     30  N   UNL     1      55.700  34.775  79.707  0.00  0.00    +0.000 N 
ATOM     31  C   UNL     1      55.774  35.279  78.442  0.00  0.00    +0.000 C 
ATOM     32  H   UNL     1      55.044  34.047  79.941  0.00  0.00    +0.000 HD
ATOM     33  O   UNL     1      55.085  34.915  77.504  0.00  0.00    +0.000 OA
ENDBRANCH  18  19
ENDBRANCH   1  18
TORSDOF 4
ENDMDL
MODEL 9
REMARK VINA RESULT:      -6.6     10.428     15.263
REMARK  Name = Troglitazone.pdbqt.pdb
REMARK  4 active torsions:
REMARK  status: ('A' for Active; 'I' for Inactive)
REMARK    1  A    between atoms: C_1  and  O_2
REMARK    2  A    between atoms: C_1  and  C_18
REMARK    3  A    between atoms: O_2  and  C_3
REMARK    4  A    between atoms: C_26  and  O_32
REMARK                            x       y       z     vdW  Elec       q    Type
REMARK                         _______ _______ _______ _____ _____    ______ ____
ROOT
ATOM      1  C   UNL     1      61.534  31.377  72.110  0.00  0.00    +0.000 C 
ENDROOT
BRANCH   1   2
ATOM      2  C   UNL     1      61.705  30.748  70.789  0.00  0.00    +0.000 C 
ATOM      3  O   UNL     1      61.871  31.836  69.809  0.00  0.00    +0.000 OA
ATOM      4  C   UNL     1      61.408  31.764  68.489  0.00  0.00    +0.000 A 
ATOM      5  C   UNL     1      60.383  30.874  68.051  0.00  0.00    +0.000 A 
ATOM      6  C   UNL     1      61.965  32.678  67.570  0.00  0.00    +0.000 A 
ATOM      7  C   UNL     1      59.884  30.013  69.062  0.00  0.00    +0.000 C 
ATOM      8  C   UNL     1      59.938  30.869  66.724  0.00  0.00    +0.000 A 
ATOM      9  C   UNL     1      60.537  29.967  70.403  0.00  0.00    +0.000 C 
ATOM     10  C   UNL     1      60.512  31.770  65.814  0.00  0.00    +0.000 A 
ATOM     11  C   UNL     1      58.848  29.914  66.285  0.00  0.00    +0.000 C 
ATOM     12  C   UNL     1      61.516  32.669  66.231  0.00  0.00    +0.000 A 
ATOM     13  C   UNL     1      62.056  33.614  65.157  0.00  0.00    +0.000 C 
ATOM     14  C   UNL     1      63.024  33.659  68.059  0.00  0.00    +0.000 C 
ATOM     15  C   UNL     1      62.994  29.892  70.728  0.00  0.00    +0.000 C 
BRANCH  10  16
ATOM     16  O   UNL     1      60.088  31.786  64.495  0.00  0.00    +0.000 OA
ATOM     17  H   UNL     1      60.657  31.171  63.982  0.00  0.00    +0.000 HD
ENDBRANCH  10  16
ENDBRANCH   1   2
BRANCH   1  18
ATOM     18  O   UNL     1      61.390  31.948  73.307  0.00  0.00    +0.000 OA
BRANCH  18  19
ATOM     19  C   UNL     1      60.648  33.103  73.305  0.00  0.00    +0.000 C 
ATOM     20  C   UNL     1      59.447  33.269  72.613  0.00  0.00    +0.000 C 
ATOM     21  C   UNL     1      58.760  34.479  72.678  0.00  0.00    +0.000 C 
ATOM     22  C   UNL     1      59.275  35.526  73.438  0.00  0.00    +0.000 C 
ATOM     23  C   UNL     1      60.473  35.367  74.131  0.00  0.00    +0.000 C 
ATOM     24  C   UNL     1      61.157  34.155  74.065  0.00  0.00    +0.000 C 
ATOM     25  C   UNL     1      58.574  36.764  73.507  0.00  0.00    +0.000 C 
ATOM     26  C   UNL     1      57.888  37.998  73.574  0.00  0.00    +0.000 C 
ATOM     27  S   UNL     1      56.178  38.169  73.682  0.00  0.00    +0.000 S 
ATOM     28  C   UNL     1      56.288  39.918  73.723  0.00  0.00    +0.000 C 
ATOM     29  O   UNL     1      55.328  40.665  73.810  0.00  0.00    +0.000 OA
ATOM     30  N   UNL     1      57.588  40.299  73.649  0.00  0.00    +0.000 N 
ATOM     31  C   UNL     1      58.538  39.325  73.573  0.00  0.00    +0.000 C 
ATOM     32  H   UNL     1      57.841  41.274  73.664  0.00  0.00    +0.000 HD
ATOM     33  O   UNL     1      59.740  39.525  73.517  0.00  0.00    +0.000 OA
ENDBRANCH  18  19
ENDBRANCH   1  18
TORSDOF 4
ENDMDL
