MODEL 1
REMARK VINA RESULT:      -7.0      0.000      0.000
REMARK  Name = 
REMARK  19 active torsions:
REMARK  status: ('A' for Active; 'I' for Inactive)
REMARK    1  A    between atoms: O_1  and  C_20
REMARK    2  A    between atoms: O_1  and  C_36
REMARK    3  A    between atoms: O_2  and  C_18
REMARK    4  A    between atoms: O_3  and  C_28
REMARK    5  A    between atoms: O_3  and  C_42
REMARK    6  A    between atoms: O_5  and  C_34
REMARK    7  A    between atoms: O_5  and  C_50
REMARK    8  A    between atoms: O_7  and  C_40
REMARK    9  A    between atoms: O_7  and  C_56
REMARK   10  A    between atoms: O_9  and  C_46
REMARK   11  A    between atoms: N_11  and  C_30
REMARK   12  A    between atoms: C_17  and  C_23
REMARK   13  A    between atoms: C_18  and  C_28
REMARK   14  A    between atoms: C_23  and  C_32
REMARK   15  A    between atoms: C_33  and  C_35
REMARK   16  A    between atoms: C_35  and  C_40
REMARK   17  A    between atoms: C_36  and  C_41
REMARK   18  A    between atoms: C_46  and  C_53
REMARK   19  A    between atoms: C_53  and  C_57
REMARK                            x       y       z     vdW  Elec       q    Type
REMARK                         _______ _______ _______ _____ _____    ______ ____
ROOT
ATOM      1  N   UNL     1      61.187  33.880  69.726  0.00  0.00    +0.000 NA
ATOM      2  N   UNL     1      57.275  35.963  67.956  0.00  0.00    +0.000 N 
ATOM      3  C   UNL     1      59.267  34.864  68.843  0.00  0.00    +0.000 C 
ATOM      4  C   UNL     1      59.877  33.490  69.172  0.00  0.00    +0.000 C 
ATOM      5  C   UNL     1      58.081  34.709  67.870  0.00  0.00    +0.000 C 
ATOM      6  C   UNL     1      59.877  32.475  67.938  0.00  0.00    +0.000 C 
ATOM      7  C   UNL     1      58.422  34.148  66.480  0.00  0.00    +0.000 C 
ATOM      8  C   UNL     1      60.467  35.755  68.465  0.00  0.00    +0.000 C 
ATOM      9  C   UNL     1      59.661  33.194  66.534  0.00  0.00    +0.000 C 
ATOM     10  C   UNL     1      58.506  35.601  69.929  0.00  0.00    +0.000 A 
ATOM     11  C   UNL     1      61.703  34.992  68.937  0.00  0.00    +0.000 C 
ATOM     12  C   UNL     1      57.412  36.257  69.348  0.00  0.00    +0.000 A 
ATOM     13  C   UNL     1      61.187  31.687  67.858  0.00  0.00    +0.000 C 
ATOM     14  C   UNL     1      62.129  32.784  69.895  0.00  0.00    +0.000 C 
ATOM     15  C   UNL     1      62.179  31.827  68.748  0.00  0.00    +0.000 C 
ATOM     16  C   UNL     1      58.801  35.717  71.283  0.00  0.00    +0.000 A 
ATOM     17  C   UNL     1      55.893  35.911  67.480  0.00  0.00    +0.000 C 
ATOM     18  C   UNL     1      56.618  37.078  70.125  0.00  0.00    +0.000 A 
ATOM     19  C   UNL     1      58.007  36.542  72.104  0.00  0.00    +0.000 A 
ATOM     20  C   UNL     1      56.917  37.226  71.489  0.00  0.00    +0.000 A 
ENDROOT
BRANCH  19  23
ATOM     21  N   UNL     1      58.504  37.038  77.942  0.00  0.00    +0.000 NA
ATOM     22  N   UNL     1      59.584  34.548  73.422  0.00  0.00    +0.000 N 
ATOM     23  C   UNL     1      58.312  36.731  73.644  0.00  0.00    +0.000 C 
ATOM     24  C   UNL     1      57.016  36.443  74.532  0.00  0.00    +0.000 C 
ATOM     25  C   UNL     1      59.423  35.734  74.118  0.00  0.00    +0.000 A 
ATOM     26  C   UNL     1      57.237  36.246  76.041  0.00  0.00    +0.000 C 
ATOM     27  C   UNL     1      55.995  35.819  76.822  0.00  0.00    +0.000 C 
ATOM     28  C   UNL     1      57.789  37.471  76.755  0.00  0.00    +0.000 C 
ATOM     29  C   UNL     1      60.315  35.672  75.204  0.00  0.00    +0.000 A 
ATOM     30  C   UNL     1      56.312  35.606  78.332  0.00  0.00    +0.000 C 
ATOM     31  C   UNL     1      57.602  36.340  78.884  0.00  0.00    +0.000 C 
ATOM     32  C   UNL     1      60.550  36.624  76.366  0.00  0.00    +0.000 C 
ATOM     33  C   UNL     1      59.742  36.269  77.651  0.00  0.00    +0.000 C 
ATOM     34  C   UNL     1      61.039  34.428  75.083  0.00  0.00    +0.000 A 
ATOM     35  C   UNL     1      60.559  33.760  73.966  0.00  0.00    +0.000 A 
ATOM     36  C   UNL     1      62.054  33.804  75.843  0.00  0.00    +0.000 A 
ATOM     37  C   UNL     1      61.037  32.509  73.556  0.00  0.00    +0.000 A 
ATOM     38  C   UNL     1      62.547  32.555  75.451  0.00  0.00    +0.000 A 
ATOM     39  C   UNL     1      62.044  31.918  74.322  0.00  0.00    +0.000 A 
ATOM     40  H   UNL     1      59.061  34.294  72.594  0.00  0.00    +0.000 HD
BRANCH  23  42
ATOM     41  O   UNL     1      58.056  39.178  74.117  0.00  0.00    +0.000 OA
ATOM     42  C   UNL     1      58.753  38.225  73.791  0.00  0.00    +0.000 C 
BRANCH  42  43
ATOM     43  O   UNL     1      60.097  38.344  73.526  0.00  0.00    +0.000 OA
ATOM     44  C   UNL     1      60.743  39.382  74.263  0.00  0.00    +0.000 C 
ENDBRANCH  42  43
ENDBRANCH  23  42
BRANCH  30  45
ATOM     45  O   UNL     1      55.172  36.151  79.042  0.00  0.00    +0.000 OA
ATOM     46  H   UNL     1      55.493  36.474  79.903  0.00  0.00    +0.000 HD
ENDBRANCH  30  45
BRANCH  30  47
ATOM     47  C   UNL     1      56.299  34.105  78.709  0.00  0.00    +0.000 C 
ATOM     48  C   UNL     1      57.412  33.625  79.624  0.00  0.00    +0.000 C 
ENDBRANCH  30  47
ENDBRANCH  19  23
BRANCH   7  49
ATOM     49  O   UNL     1      57.282  33.307  66.108  0.00  0.00    +0.000 OA
ATOM     50  H   UNL     1      56.821  33.094  66.945  0.00  0.00    +0.000 HD
ENDBRANCH   7  49
BRANCH   7  52
ATOM     51  O   UNL     1      59.166  36.324  65.545  0.00  0.00    +0.000 OA
ATOM     52  C   UNL     1      58.576  35.261  65.414  0.00  0.00    +0.000 C 
BRANCH  52  53
ATOM     53  O   UNL     1      58.010  34.848  64.232  0.00  0.00    +0.000 OA
ATOM     54  C   UNL     1      58.718  35.281  63.068  0.00  0.00    +0.000 C 
ENDBRANCH  52  53
ENDBRANCH   7  52
BRANCH  20  55
ATOM     55  O   UNL     1      56.123  37.997  72.300  0.00  0.00    +0.000 OA
ATOM     56  C   UNL     1      55.312  38.954  71.624  0.00  0.00    +0.000 C 
ENDBRANCH  20  55
BRANCH   6  57
ATOM     57  C   UNL     1      58.738  31.407  68.131  0.00  0.00    +0.000 C 
ATOM     58  C   UNL     1      58.767  30.200  67.192  0.00  0.00    +0.000 C 
ENDBRANCH   6  57
BRANCH   9  59
ATOM     59  O   UNL     1      60.889  33.877  66.182  0.00  0.00    +0.000 OA
BRANCH  59  61
ATOM     60  O   UNL     1      61.021  32.818  64.155  0.00  0.00    +0.000 OA
ATOM     61  C   UNL     1      61.536  33.455  65.063  0.00  0.00    +0.000 C 
ATOM     62  C   UNL     1      62.961  33.914  65.087  0.00  0.00    +0.000 C 
ENDBRANCH  59  61
ENDBRANCH   9  59
TORSDOF 12
ENDMDL
MODEL 2
REMARK VINA RESULT:      -6.8     59.764     63.628
REMARK  Name = 
REMARK  19 active torsions:
REMARK  status: ('A' for Active; 'I' for Inactive)
REMARK    1  A    between atoms: O_1  and  C_20
REMARK    2  A    between atoms: O_1  and  C_36
REMARK    3  A    between atoms: O_2  and  C_18
REMARK    4  A    between atoms: O_3  and  C_28
REMARK    5  A    between atoms: O_3  and  C_42
REMARK    6  A    between atoms: O_5  and  C_34
REMARK    7  A    between atoms: O_5  and  C_50
REMARK    8  A    between atoms: O_7  and  C_40
REMARK    9  A    between atoms: O_7  and  C_56
REMARK   10  A    between atoms: O_9  and  C_46
REMARK   11  A    between atoms: N_11  and  C_30
REMARK   12  A    between atoms: C_17  and  C_23
REMARK   13  A    between atoms: C_18  and  C_28
REMARK   14  A    between atoms: C_23  and  C_32
REMARK   15  A    between atoms: C_33  and  C_35
REMARK   16  A    between atoms: C_35  and  C_40
REMARK   17  A    between atoms: C_36  and  C_41
REMARK   18  A    between atoms: C_46  and  C_53
REMARK   19  A    between atoms: C_53  and  C_57
REMARK                            x       y       z     vdW  Elec       q    Type
REMARK                         _______ _______ _______ _____ _____    ______ ____
ROOT
ATOM      1  N   UNL     1      13.002   0.508  99.962  0.00  0.00    +0.000 NA
ATOM      2  N   UNL     1      13.435   4.406  97.242  0.00  0.00    +0.000 N 
ATOM      3  C   UNL     1      13.242   2.425  98.657  0.00  0.00    +0.000 C 
ATOM      4  C   UNL     1      14.002   1.553  99.671  0.00  0.00    +0.000 C 
ATOM      5  C   UNL     1      13.913   3.807  98.524  0.00  0.00    +0.000 C 
ATOM      6  C   UNL     1      14.585   2.372 100.913  0.00  0.00    +0.000 C 
ATOM      7  C   UNL     1      13.910   4.679  99.790  0.00  0.00    +0.000 C 
ATOM      8  C   UNL     1      11.761   2.320  99.069  0.00  0.00    +0.000 C 
ATOM      9  C   UNL     1      13.917   3.807 101.088  0.00  0.00    +0.000 C 
ATOM     10  C   UNL     1      13.309   2.057  97.187  0.00  0.00    +0.000 A 
ATOM     11  C   UNL     1      11.691   1.140 100.035  0.00  0.00    +0.000 C 
ATOM     12  C   UNL     1      13.358   3.234  96.428  0.00  0.00    +0.000 A 
ATOM     13  C   UNL     1      14.397   1.610 102.227  0.00  0.00    +0.000 C 
ATOM     14  C   UNL     1      13.318  -0.340 101.101  0.00  0.00    +0.000 C 
ATOM     15  C   UNL     1      13.841   0.392 102.294  0.00  0.00    +0.000 C 
ATOM     16  C   UNL     1      13.270   0.799  96.594  0.00  0.00    +0.000 A 
ATOM     17  C   UNL     1      14.227   5.493  96.669  0.00  0.00    +0.000 C 
ATOM     18  C   UNL     1      13.328   3.158  95.049  0.00  0.00    +0.000 A 
ATOM     19  C   UNL     1      13.243   0.687  95.190  0.00  0.00    +0.000 A 
ATOM     20  C   UNL     1      13.262   1.897  94.435  0.00  0.00    +0.000 A 
ENDROOT
BRANCH  19  23
ATOM     21  N   UNL     1      12.777  -4.782  93.083  0.00  0.00    +0.000 NA
ATOM     22  N   UNL     1      11.010   0.169  93.474  0.00  0.00    +0.000 N 
ATOM     23  C   UNL     1      13.172  -0.715  94.464  0.00  0.00    +0.000 C 
ATOM     24  C   UNL     1      12.789  -1.881  95.487  0.00  0.00    +0.000 C 
ATOM     25  C   UNL     1      12.074  -0.708  93.346  0.00  0.00    +0.000 A 
ATOM     26  C   UNL     1      12.345  -3.221  94.879  0.00  0.00    +0.000 C 
ATOM     27  C   UNL     1      11.841  -4.250  95.890  0.00  0.00    +0.000 C 
ATOM     28  C   UNL     1      13.420  -3.920  94.059  0.00  0.00    +0.000 C 
ATOM     29  C   UNL     1      11.808  -1.478  92.199  0.00  0.00    +0.000 A 
ATOM     30  C   UNL     1      11.376  -5.563  95.191  0.00  0.00    +0.000 C 
ATOM     31  C   UNL     1      11.968  -5.829  93.746  0.00  0.00    +0.000 C 
ATOM     32  C   UNL     1      12.551  -2.652  91.583  0.00  0.00    +0.000 C 
ATOM     33  C   UNL     1      12.022  -4.047  92.035  0.00  0.00    +0.000 C 
ATOM     34  C   UNL     1      10.575  -0.979  91.635  0.00  0.00    +0.000 A 
ATOM     35  C   UNL     1      10.112   0.042  92.452  0.00  0.00    +0.000 A 
ATOM     36  C   UNL     1       9.803  -1.324  90.503  0.00  0.00    +0.000 A 
ATOM     37  C   UNL     1       8.927   0.747  92.203  0.00  0.00    +0.000 A 
ATOM     38  C   UNL     1       8.616  -0.632  90.234  0.00  0.00    +0.000 A 
ATOM     39  C   UNL     1       8.186   0.389  91.074  0.00  0.00    +0.000 A 
ATOM     40  H   UNL     1      10.911   0.845  94.221  0.00  0.00    +0.000 HD
BRANCH  23  42
ATOM     41  O   UNL     1      14.967  -0.826  92.720  0.00  0.00    +0.000 OA
ATOM     42  C   UNL     1      14.607  -0.947  93.884  0.00  0.00    +0.000 C 
BRANCH  42  43
ATOM     43  O   UNL     1      15.471  -1.291  94.898  0.00  0.00    +0.000 OA
ATOM     44  C   UNL     1      16.698  -1.861  94.444  0.00  0.00    +0.000 C 
ENDBRANCH  42  43
ENDBRANCH  23  42
BRANCH  30  45
ATOM     45  O   UNL     1      11.839  -6.636  96.048  0.00  0.00    +0.000 OA
ATOM     46  H   UNL     1      11.380  -7.448  95.770  0.00  0.00    +0.000 HD
ENDBRANCH  30  45
BRANCH  30  47
ATOM     47  C   UNL     1       9.837  -5.706  95.217  0.00  0.00    +0.000 C 
ATOM     48  C   UNL     1       9.040  -4.601  94.544  0.00  0.00    +0.000 C 
ENDBRANCH  30  47
ENDBRANCH  19  23
BRANCH   7  49
ATOM     49  O   UNL     1      15.190   5.391  99.776  0.00  0.00    +0.000 OA
ATOM     50  H   UNL     1      15.882   4.701  99.845  0.00  0.00    +0.000 HD
ENDBRANCH   7  49
BRANCH   7  52
ATOM     51  O   UNL     1      11.578   5.511  99.607  0.00  0.00    +0.000 OA
ATOM     52  C   UNL     1      12.769   5.726  99.785  0.00  0.00    +0.000 C 
BRANCH  52  53
ATOM     53  O   UNL     1      13.278   6.964 100.096  0.00  0.00    +0.000 OA
ATOM     54  C   UNL     1      12.953   7.981  99.145  0.00  0.00    +0.000 C 
ENDBRANCH  52  53
ENDBRANCH   7  52
BRANCH  20  55
ATOM     55  O   UNL     1      13.277   1.782  93.068  0.00  0.00    +0.000 OA
ATOM     56  C   UNL     1      13.319   3.016  92.356  0.00  0.00    +0.000 C 
ENDBRANCH  20  55
BRANCH   6  57
ATOM     57  C   UNL     1      16.137   2.563 100.739  0.00  0.00    +0.000 C 
ATOM     58  C   UNL     1      16.917   1.361 100.203  0.00  0.00    +0.000 C 
ENDBRANCH   6  57
BRANCH   9  59
ATOM     59  O   UNL     1      12.585   3.622 101.627  0.00  0.00    +0.000 OA
BRANCH  59  61
ATOM     60  O   UNL     1      12.781   5.223 103.254  0.00  0.00    +0.000 OA
ATOM     61  C   UNL     1      12.329   4.161 102.849  0.00  0.00    +0.000 C 
ATOM     62  C   UNL     1      11.385   3.285 103.612  0.00  0.00    +0.000 C 
ENDBRANCH  59  61
ENDBRANCH   9  59
TORSDOF 12
ENDMDL
MODEL 3
REMARK VINA RESULT:      -6.5      2.627     10.058
REMARK  Name = 
REMARK  19 active torsions:
REMARK  status: ('A' for Active; 'I' for Inactive)
REMARK    1  A    between atoms: O_1  and  C_20
REMARK    2  A    between atoms: O_1  and  C_36
REMARK    3  A    between atoms: O_2  and  C_18
REMARK    4  A    between atoms: O_3  and  C_28
REMARK    5  A    between atoms: O_3  and  C_42
REMARK    6  A    between atoms: O_5  and  C_34
REMARK    7  A    between atoms: O_5  and  C_50
REMARK    8  A    between atoms: O_7  and  C_40
REMARK    9  A    between atoms: O_7  and  C_56
REMARK   10  A    between atoms: O_9  and  C_46
REMARK   11  A    between atoms: N_11  and  C_30
REMARK   12  A    between atoms: C_17  and  C_23
REMARK   13  A    between atoms: C_18  and  C_28
REMARK   14  A    between atoms: C_23  and  C_32
REMARK   15  A    between atoms: C_33  and  C_35
REMARK   16  A    between atoms: C_35  and  C_40
REMARK   17  A    between atoms: C_36  and  C_41
REMARK   18  A    between atoms: C_46  and  C_53
REMARK   19  A    between atoms: C_53  and  C_57
REMARK                            x       y       z     vdW  Elec       q    Type
REMARK                         _______ _______ _______ _____ _____    ______ ____
ROOT
ATOM      1  N   UNL     1      61.895  34.327  74.422  0.00  0.00    +0.000 NA
ATOM      2  N   UNL     1      58.166  36.235  72.135  0.00  0.00    +0.000 N 
ATOM      3  C   UNL     1      60.077  35.292  73.326  0.00  0.00    +0.000 C 
ATOM      4  C   UNL     1      61.338  35.661  74.127  0.00  0.00    +0.000 C 
ATOM      5  C   UNL     1      59.106  36.488  73.267  0.00  0.00    +0.000 C 
ATOM      6  C   UNL     1      61.051  36.625  75.369  0.00  0.00    +0.000 C 
ATOM      7  C   UNL     1      58.528  36.950  74.615  0.00  0.00    +0.000 C 
ATOM      8  C   UNL     1      59.611  33.944  73.911  0.00  0.00    +0.000 C 
ATOM      9  C   UNL     1      59.516  36.662  75.793  0.00  0.00    +0.000 C 
ATOM     10  C   UNL     1      60.201  35.094  71.827  0.00  0.00    +0.000 A 
ATOM     11  C   UNL     1      60.789  33.431  74.736  0.00  0.00    +0.000 C 
ATOM     12  C   UNL     1      59.050  35.601  71.209  0.00  0.00    +0.000 A 
ATOM     13  C   UNL     1      61.860  36.211  76.601  0.00  0.00    +0.000 C 
ATOM     14  C   UNL     1      62.966  34.317  75.406  0.00  0.00    +0.000 C 
ATOM     15  C   UNL     1      62.723  35.185  76.598  0.00  0.00    +0.000 C 
ATOM     16  C   UNL     1      61.212  34.470  71.104  0.00  0.00    +0.000 A 
ATOM     17  C   UNL     1      57.439  37.382  71.592  0.00  0.00    +0.000 C 
ATOM     18  C   UNL     1      58.885  35.449  69.845  0.00  0.00    +0.000 A 
ATOM     19  C   UNL     1      61.077  34.304  69.712  0.00  0.00    +0.000 A 
ATOM     20  C   UNL     1      59.885  34.799  69.104  0.00  0.00    +0.000 A 
ENDROOT
BRANCH  19  23
ATOM     21  N   UNL     1      64.681  31.369  66.111  0.00  0.00    +0.000 NA
ATOM     22  N   UNL     1      62.564  35.877  67.837  0.00  0.00    +0.000 N 
ATOM     23  C   UNL     1      62.183  33.581  68.844  0.00  0.00    +0.000 C 
ATOM     24  C   UNL     1      61.527  32.664  67.713  0.00  0.00    +0.000 C 
ATOM     25  C   UNL     1      63.092  34.628  68.115  0.00  0.00    +0.000 A 
ATOM     26  C   UNL     1      62.453  32.180  66.586  0.00  0.00    +0.000 C 
ATOM     27  C   UNL     1      61.750  31.440  65.449  0.00  0.00    +0.000 C 
ATOM     28  C   UNL     1      63.580  31.270  67.053  0.00  0.00    +0.000 C 
ATOM     29  C   UNL     1      64.375  34.611  67.538  0.00  0.00    +0.000 A 
ATOM     30  C   UNL     1      62.752  31.018  64.332  0.00  0.00    +0.000 C 
ATOM     31  C   UNL     1      64.272  30.917  64.763  0.00  0.00    +0.000 C 
ATOM     32  C   UNL     1      65.413  33.505  67.430  0.00  0.00    +0.000 C 
ATOM     33  C   UNL     1      65.346  32.698  66.098  0.00  0.00    +0.000 C 
ATOM     34  C   UNL     1      64.593  35.916  66.960  0.00  0.00    +0.000 A 
ATOM     35  C   UNL     1      63.450  36.673  67.167  0.00  0.00    +0.000 A 
ATOM     36  C   UNL     1      65.666  36.513  66.260  0.00  0.00    +0.000 A 
ATOM     37  C   UNL     1      63.314  37.996  66.725  0.00  0.00    +0.000 A 
ATOM     38  C   UNL     1      65.553  37.834  65.811  0.00  0.00    +0.000 A 
ATOM     39  C   UNL     1      64.392  38.563  66.041  0.00  0.00    +0.000 A 
ATOM     40  H   UNL     1      61.639  36.183  68.113  0.00  0.00    +0.000 HD
BRANCH  23  42
ATOM     41  O   UNL     1      64.051  32.978  70.401  0.00  0.00    +0.000 OA
ATOM     42  C   UNL     1      62.987  32.703  69.860  0.00  0.00    +0.000 C 
BRANCH  42  43
ATOM     43  O   UNL     1      62.306  31.534  70.110  0.00  0.00    +0.000 OA
ATOM     44  C   UNL     1      63.096  30.529  70.744  0.00  0.00    +0.000 C 
ENDBRANCH  42  43
ENDBRANCH  23  42
BRANCH  30  45
ATOM     45  O   UNL     1      62.333  29.691  63.926  0.00  0.00    +0.000 OA
ATOM     46  H   UNL     1      62.991  29.361  63.288  0.00  0.00    +0.000 HD
ENDBRANCH  30  45
BRANCH  30  47
ATOM     47  C   UNL     1      62.570  31.870  63.054  0.00  0.00    +0.000 C 
ATOM     48  C   UNL     1      61.353  32.777  63.011  0.00  0.00    +0.000 C 
ENDBRANCH  30  47
ENDBRANCH  19  23
BRANCH   7  49
ATOM     49  O   UNL     1      58.431  38.408  74.517  0.00  0.00    +0.000 OA
ATOM     50  H   UNL     1      59.336  38.726  74.321  0.00  0.00    +0.000 HD
ENDBRANCH   7  49
BRANCH   7  52
ATOM     51  O   UNL     1      56.693  35.278  74.556  0.00  0.00    +0.000 OA
ATOM     52  C   UNL     1      57.110  36.382  74.876  0.00  0.00    +0.000 C 
BRANCH  52  53
ATOM     53  O   UNL     1      56.381  37.285  75.612  0.00  0.00    +0.000 OA
ATOM     54  C   UNL     1      55.021  36.900  75.819  0.00  0.00    +0.000 C 
ENDBRANCH  52  53
ENDBRANCH   7  52
BRANCH  20  55
ATOM     55  O   UNL     1      59.776  34.671  67.742  0.00  0.00    +0.000 OA
ATOM     56  C   UNL     1      58.673  35.355  67.155  0.00  0.00    +0.000 C 
ENDBRANCH  20  55
BRANCH   6  57
ATOM     57  C   UNL     1      61.507  38.089  75.020  0.00  0.00    +0.000 C 
ATOM     58  C   UNL     1      62.900  38.241  74.406  0.00  0.00    +0.000 C 
ENDBRANCH   6  57
BRANCH   9  59
ATOM     59  O   UNL     1      59.204  35.423  76.473  0.00  0.00    +0.000 OA
BRANCH  59  61
ATOM     60  O   UNL     1      59.349  34.549  78.586  0.00  0.00    +0.000 OA
ATOM     61  C   UNL     1      59.083  35.470  77.827  0.00  0.00    +0.000 C 
ATOM     62  C   UNL     1      58.611  36.825  78.256  0.00  0.00    +0.000 C 
ENDBRANCH  59  61
ENDBRANCH   9  59
TORSDOF 12
ENDMDL
MODEL 4
REMARK VINA RESULT:      -6.4     59.896     63.152
REMARK  Name = 
REMARK  19 active torsions:
REMARK  status: ('A' for Active; 'I' for Inactive)
REMARK    1  A    between atoms: O_1  and  C_20
REMARK    2  A    between atoms: O_1  and  C_36
REMARK    3  A    between atoms: O_2  and  C_18
REMARK    4  A    between atoms: O_3  and  C_28
REMARK    5  A    between atoms: O_3  and  C_42
REMARK    6  A    between atoms: O_5  and  C_34
REMARK    7  A    between atoms: O_5  and  C_50
REMARK    8  A    between atoms: O_7  and  C_40
REMARK    9  A    between atoms: O_7  and  C_56
REMARK   10  A    between atoms: O_9  and  C_46
REMARK   11  A    between atoms: N_11  and  C_30
REMARK   12  A    between atoms: C_17  and  C_23
REMARK   13  A    between atoms: C_18  and  C_28
REMARK   14  A    between atoms: C_23  and  C_32
REMARK   15  A    between atoms: C_33  and  C_35
REMARK   16  A    between atoms: C_35  and  C_40
REMARK   17  A    between atoms: C_36  and  C_41
REMARK   18  A    between atoms: C_46  and  C_53
REMARK   19  A    between atoms: C_53  and  C_57
REMARK                            x       y       z     vdW  Elec       q    Type
REMARK                         _______ _______ _______ _____ _____    ______ ____
ROOT
ATOM      1  N   UNL     1      13.140   0.642 100.467  0.00  0.00    +0.000 NA
ATOM      2  N   UNL     1      13.434   4.315  97.434  0.00  0.00    +0.000 N 
ATOM      3  C   UNL     1      13.312   2.451  99.007  0.00  0.00    +0.000 C 
ATOM      4  C   UNL     1      14.120   1.664 100.054  0.00  0.00    +0.000 C 
ATOM      5  C   UNL     1      13.968   3.820  98.738  0.00  0.00    +0.000 C 
ATOM      6  C   UNL     1      14.749   2.580 101.202  0.00  0.00    +0.000 C 
ATOM      7  C   UNL     1      14.013   4.789  99.931  0.00  0.00    +0.000 C 
ATOM      8  C   UNL     1      11.851   2.374  99.488  0.00  0.00    +0.000 C 
ATOM      9  C   UNL     1      14.079   4.022 101.292  0.00  0.00    +0.000 C 
ATOM     10  C   UNL     1      13.321   1.968  97.569  0.00  0.00    +0.000 A 
ATOM     11  C   UNL     1      11.828   1.274 100.546  0.00  0.00    +0.000 C 
ATOM     12  C   UNL     1      13.331   3.083  96.719  0.00  0.00    +0.000 A 
ATOM     13  C   UNL     1      14.621   1.923 102.579  0.00  0.00    +0.000 C 
ATOM     14  C   UNL     1      13.508  -0.113 101.655  0.00  0.00    +0.000 C 
ATOM     15  C   UNL     1      14.076   0.713 102.764  0.00  0.00    +0.000 C 
ATOM     16  C   UNL     1      13.265   0.668  97.079  0.00  0.00    +0.000 A 
ATOM     17  C   UNL     1      14.195   5.356  96.744  0.00  0.00    +0.000 C 
ATOM     18  C   UNL     1      13.243   2.898  95.352  0.00  0.00    +0.000 A 
ATOM     19  C   UNL     1      13.180   0.446  95.691  0.00  0.00    +0.000 A 
ATOM     20  C   UNL     1      13.160   1.592  94.842  0.00  0.00    +0.000 A 
ENDROOT
BRANCH  19  23
ATOM     21  N   UNL     1      12.972  -4.681  92.819  0.00  0.00    +0.000 NA
ATOM     22  N   UNL     1      15.399  -1.322  96.077  0.00  0.00    +0.000 N 
ATOM     23  C   UNL     1      13.088  -1.009  95.080  0.00  0.00    +0.000 C 
ATOM     24  C   UNL     1      13.251  -0.984  93.491  0.00  0.00    +0.000 C 
ATOM     25  C   UNL     1      14.230  -1.923  95.643  0.00  0.00    +0.000 A 
ATOM     26  C   UNL     1      13.531  -2.329  92.799  0.00  0.00    +0.000 C 
ATOM     27  C   UNL     1      13.833  -2.232  91.305  0.00  0.00    +0.000 C 
ATOM     28  C   UNL     1      12.409  -3.348  92.942  0.00  0.00    +0.000 C 
ATOM     29  C   UNL     1      14.441  -3.309  95.752  0.00  0.00    +0.000 A 
ATOM     30  C   UNL     1      14.141  -3.630  90.690  0.00  0.00    +0.000 C 
ATOM     31  C   UNL     1      13.590  -4.880  91.490  0.00  0.00    +0.000 C 
ATOM     32  C   UNL     1      13.570  -4.491  95.358  0.00  0.00    +0.000 C 
ATOM     33  C   UNL     1      13.873  -5.059  93.938  0.00  0.00    +0.000 C 
ATOM     34  C   UNL     1      15.758  -3.491  96.316  0.00  0.00    +0.000 A 
ATOM     35  C   UNL     1      16.320  -2.237  96.505  0.00  0.00    +0.000 A 
ATOM     36  C   UNL     1      16.529  -4.622  96.667  0.00  0.00    +0.000 A 
ATOM     37  C   UNL     1      17.603  -2.042  97.032  0.00  0.00    +0.000 A 
ATOM     38  C   UNL     1      17.813  -4.451  97.196  0.00  0.00    +0.000 A 
ATOM     39  C   UNL     1      18.341  -3.177  97.376  0.00  0.00    +0.000 A 
ATOM     40  H   UNL     1      15.556  -0.322  96.100  0.00  0.00    +0.000 HD
BRANCH  23  42
ATOM     41  O   UNL     1      11.363  -2.196  96.455  0.00  0.00    +0.000 OA
ATOM     42  C   UNL     1      11.665  -1.527  95.475  0.00  0.00    +0.000 C 
BRANCH  42  43
ATOM     43  O   UNL     1      10.738  -1.093  94.557  0.00  0.00    +0.000 OA
ATOM     44  C   UNL     1       9.552  -1.885  94.513  0.00  0.00    +0.000 C 
ENDBRANCH  42  43
ENDBRANCH  23  42
BRANCH  30  45
ATOM     45  O   UNL     1      13.489  -3.629  89.395  0.00  0.00    +0.000 OA
ATOM     46  H   UNL     1      14.138  -3.949  88.743  0.00  0.00    +0.000 HD
ENDBRANCH  30  45
BRANCH  30  47
ATOM     47  C   UNL     1      15.642  -3.781  90.348  0.00  0.00    +0.000 C 
ATOM     48  C   UNL     1      16.577  -4.073  91.509  0.00  0.00    +0.000 C 
ENDBRANCH  30  47
ENDBRANCH  19  23
BRANCH   7  49
ATOM     49  O   UNL     1      15.287   5.501  99.807  0.00  0.00    +0.000 OA
ATOM     50  H   UNL     1      15.705   5.461 100.692  0.00  0.00    +0.000 HD
ENDBRANCH   7  49
BRANCH   7  52
ATOM     51  O   UNL     1      11.674   5.600  99.741  0.00  0.00    +0.000 OA
ATOM     52  C   UNL     1      12.866   5.830  99.891  0.00  0.00    +0.000 C 
BRANCH  52  53
ATOM     53  O   UNL     1      13.372   7.083 100.135  0.00  0.00    +0.000 OA
ATOM     54  C   UNL     1      12.983   8.064  99.172  0.00  0.00    +0.000 C 
ENDBRANCH  52  53
ENDBRANCH   7  52
BRANCH  20  55
ATOM     55  O   UNL     1      13.119   1.371  93.489  0.00  0.00    +0.000 OA
ATOM     56  C   UNL     1      13.227   2.538  92.679  0.00  0.00    +0.000 C 
ENDBRANCH  20  55
BRANCH   6  57
ATOM     57  C   UNL     1      16.291   2.761 100.948  0.00  0.00    +0.000 C 
ATOM     58  C   UNL     1      17.000   1.624 100.209  0.00  0.00    +0.000 C 
ENDBRANCH   6  57
BRANCH   9  59
ATOM     59  O   UNL     1      12.773   3.876 101.899  0.00  0.00    +0.000 OA
BRANCH  59  61
ATOM     60  O   UNL     1      13.230   5.474 103.476  0.00  0.00    +0.000 OA
ATOM     61  C   UNL     1      12.549   4.546 103.061  0.00  0.00    +0.000 C 
ATOM     62  C   UNL     1      11.328   4.008 103.740  0.00  0.00    +0.000 C 
ENDBRANCH  59  61
ENDBRANCH   9  59
TORSDOF 12
ENDMDL
MODEL 5
REMARK VINA RESULT:      -6.1     20.408     24.684
REMARK  Name = 
REMARK  19 active torsions:
REMARK  status: ('A' for Active; 'I' for Inactive)
REMARK    1  A    between atoms: O_1  and  C_20
REMARK    2  A    between atoms: O_1  and  C_36
REMARK    3  A    between atoms: O_2  and  C_18
REMARK    4  A    between atoms: O_3  and  C_28
REMARK    5  A    between atoms: O_3  and  C_42
REMARK    6  A    between atoms: O_5  and  C_34
REMARK    7  A    between atoms: O_5  and  C_50
REMARK    8  A    between atoms: O_7  and  C_40
REMARK    9  A    between atoms: O_7  and  C_56
REMARK   10  A    between atoms: O_9  and  C_46
REMARK   11  A    between atoms: N_11  and  C_30
REMARK   12  A    between atoms: C_17  and  C_23
REMARK   13  A    between atoms: C_18  and  C_28
REMARK   14  A    between atoms: C_23  and  C_32
REMARK   15  A    between atoms: C_33  and  C_35
REMARK   16  A    between atoms: C_35  and  C_40
REMARK   17  A    between atoms: C_36  and  C_41
REMARK   18  A    between atoms: C_46  and  C_53
REMARK   19  A    between atoms: C_53  and  C_57
REMARK                            x       y       z     vdW  Elec       q    Type
REMARK                         _______ _______ _______ _____ _____    ______ ____
ROOT
ATOM      1  N   UNL     1      40.414  22.415  86.574  0.00  0.00    +0.000 NA
ATOM      2  N   UNL     1      41.841  23.030  82.061  0.00  0.00    +0.000 N 
ATOM      3  C   UNL     1      41.075  22.723  84.359  0.00  0.00    +0.000 C 
ATOM      4  C   UNL     1      39.953  23.090  85.346  0.00  0.00    +0.000 C 
ATOM      5  C   UNL     1      40.613  22.956  82.907  0.00  0.00    +0.000 C 
ATOM      6  C   UNL     1      38.488  22.727  84.819  0.00  0.00    +0.000 C 
ATOM      7  C   UNL     1      39.441  22.085  82.427  0.00  0.00    +0.000 C 
ATOM      8  C   UNL     1      41.559  21.329  84.803  0.00  0.00    +0.000 C 
ATOM      9  C   UNL     1      38.496  21.691  83.610  0.00  0.00    +0.000 C 
ATOM     10  C   UNL     1      42.304  23.608  84.295  0.00  0.00    +0.000 A 
ATOM     11  C   UNL     1      40.975  21.122  86.199  0.00  0.00    +0.000 C 
ATOM     12  C   UNL     1      42.728  23.696  82.962  0.00  0.00    +0.000 A 
ATOM     13  C   UNL     1      37.620  22.135  85.931  0.00  0.00    +0.000 C 
ATOM     14  C   UNL     1      39.428  22.347  87.642  0.00  0.00    +0.000 C 
ATOM     15  C   UNL     1      38.050  21.983  87.192  0.00  0.00    +0.000 C 
ATOM     16  C   UNL     1      43.001  24.220  85.332  0.00  0.00    +0.000 A 
ATOM     17  C   UNL     1      41.721  23.663  80.749  0.00  0.00    +0.000 C 
ATOM     18  C   UNL     1      43.894  24.375  82.661  0.00  0.00    +0.000 A 
ATOM     19  C   UNL     1      44.190  24.924  85.057  0.00  0.00    +0.000 A 
ATOM     20  C   UNL     1      44.623  24.976  83.699  0.00  0.00    +0.000 A 
ENDROOT
BRANCH  19  23
ATOM     21  N   UNL     1      46.911  27.204  89.745  0.00  0.00    +0.000 NA
ATOM     22  N   UNL     1      46.720  23.774  85.746  0.00  0.00    +0.000 N 
ATOM     23  C   UNL     1      45.036  25.615  86.200  0.00  0.00    +0.000 C 
ATOM     24  C   UNL     1      44.402  25.341  87.640  0.00  0.00    +0.000 C 
ATOM     25  C   UNL     1      46.498  25.053  86.228  0.00  0.00    +0.000 A 
ATOM     26  C   UNL     1      45.288  25.646  88.859  0.00  0.00    +0.000 C 
ATOM     27  C   UNL     1      44.698  25.221  90.203  0.00  0.00    +0.000 C 
ATOM     28  C   UNL     1      45.665  27.113  89.004  0.00  0.00    +0.000 C 
ATOM     29  C   UNL     1      47.732  25.497  86.736  0.00  0.00    +0.000 A 
ATOM     30  C   UNL     1      45.671  25.531  91.380  0.00  0.00    +0.000 C 
ATOM     31  C   UNL     1      46.764  26.644  91.106  0.00  0.00    +0.000 C 
ATOM     32  C   UNL     1      48.117  26.775  87.464  0.00  0.00    +0.000 C 
ATOM     33  C   UNL     1      48.085  26.655  89.018  0.00  0.00    +0.000 C 
ATOM     34  C   UNL     1      48.693  24.449  86.482  0.00  0.00    +0.000 A 
ATOM     35  C   UNL     1      48.029  23.398  85.867  0.00  0.00    +0.000 A 
ATOM     36  C   UNL     1      50.074  24.299  86.743  0.00  0.00    +0.000 A 
ATOM     37  C   UNL     1      48.662  22.208  85.486  0.00  0.00    +0.000 A 
ATOM     38  C   UNL     1      50.727  23.118  86.369  0.00  0.00    +0.000 A 
ATOM     39  C   UNL     1      50.028  22.088  85.749  0.00  0.00    +0.000 A 
ATOM     40  H   UNL     1      46.009  23.186  85.331  0.00  0.00    +0.000 HD
BRANCH  23  42
ATOM     41  O   UNL     1      45.933  27.857  85.532  0.00  0.00    +0.000 OA
ATOM     42  C   UNL     1      44.996  27.144  85.868  0.00  0.00    +0.000 C 
BRANCH  42  43
ATOM     43  O   UNL     1      43.707  27.612  85.974  0.00  0.00    +0.000 OA
ATOM     44  C   UNL     1      43.219  28.239  84.789  0.00  0.00    +0.000 C 
ENDBRANCH  42  43
ENDBRANCH  23  42
BRANCH  30  45
ATOM     45  O   UNL     1      44.828  26.014  92.456  0.00  0.00    +0.000 OA
ATOM     46  H   UNL     1      45.203  26.859  92.762  0.00  0.00    +0.000 HD
ENDBRANCH  30  45
BRANCH  30  47
ATOM     47  C   UNL     1      46.298  24.238  91.954  0.00  0.00    +0.000 C 
ATOM     48  C   UNL     1      46.978  23.314  90.959  0.00  0.00    +0.000 C 
ENDBRANCH  30  47
ENDBRANCH  19  23
BRANCH   7  49
ATOM     49  O   UNL     1      38.648  22.947  81.548  0.00  0.00    +0.000 OA
ATOM     50  H   UNL     1      39.293  23.423  80.985  0.00  0.00    +0.000 HD
ENDBRANCH   7  49
BRANCH   7  52
ATOM     51  O   UNL     1      40.853  20.119  81.873  0.00  0.00    +0.000 OA
ATOM     52  C   UNL     1      39.913  20.856  81.610  0.00  0.00    +0.000 C 
BRANCH  52  53
ATOM     53  O   UNL     1      39.056  20.647  80.556  0.00  0.00    +0.000 OA
ATOM     54  C   UNL     1      39.662  19.996  79.437  0.00  0.00    +0.000 C 
ENDBRANCH  52  53
ENDBRANCH   7  52
BRANCH  20  55
ATOM     55  O   UNL     1      45.760  25.696  83.431  0.00  0.00    +0.000 OA
ATOM     56  C   UNL     1      46.718  25.035  82.610  0.00  0.00    +0.000 C 
ENDBRANCH  20  55
BRANCH   6  57
ATOM     57  C   UNL     1      37.757  24.038  84.347  0.00  0.00    +0.000 C 
ATOM     58  C   UNL     1      36.238  23.951  84.184  0.00  0.00    +0.000 C 
ENDBRANCH   6  57
BRANCH   9  59
ATOM     59  O   UNL     1      38.806  20.380  84.141  0.00  0.00    +0.000 OA
BRANCH  59  61
ATOM     60  O   UNL     1      36.965  19.427  83.165  0.00  0.00    +0.000 OA
ATOM     61  C   UNL     1      37.862  19.411  83.995  0.00  0.00    +0.000 C 
ATOM     62  C   UNL     1      38.103  18.305  84.976  0.00  0.00    +0.000 C 
ENDBRANCH  59  61
ENDBRANCH   9  59
TORSDOF 12
ENDMDL
MODEL 6
REMARK VINA RESULT:      -6.1      4.233     11.392
REMARK  Name = 
REMARK  19 active torsions:
REMARK  status: ('A' for Active; 'I' for Inactive)
REMARK    1  A    between atoms: O_1  and  C_20
REMARK    2  A    between atoms: O_1  and  C_36
REMARK    3  A    between atoms: O_2  and  C_18
REMARK    4  A    between atoms: O_3  and  C_28
REMARK    5  A    between atoms: O_3  and  C_42
REMARK    6  A    between atoms: O_5  and  C_34
REMARK    7  A    between atoms: O_5  and  C_50
REMARK    8  A    between atoms: O_7  and  C_40
REMARK    9  A    between atoms: O_7  and  C_56
REMARK   10  A    between atoms: O_9  and  C_46
REMARK   11  A    between atoms: N_11  and  C_30
REMARK   12  A    between atoms: C_17  and  C_23
REMARK   13  A    between atoms: C_18  and  C_28
REMARK   14  A    between atoms: C_23  and  C_32
REMARK   15  A    between atoms: C_33  and  C_35
REMARK   16  A    between atoms: C_35  and  C_40
REMARK   17  A    between atoms: C_36  and  C_41
REMARK   18  A    between atoms: C_46  and  C_53
REMARK   19  A    between atoms: C_53  and  C_57
REMARK                            x       y       z     vdW  Elec       q    Type
REMARK                         _______ _______ _______ _____ _____    ______ ____
ROOT
ATOM      1  N   UNL     1      62.738  30.492  69.491  0.00  0.00    +0.000 NA
ATOM      2  N   UNL     1      59.250  33.749  69.396  0.00  0.00    +0.000 N 
ATOM      3  C   UNL     1      61.056  32.107  69.466  0.00  0.00    +0.000 C 
ATOM      4  C   UNL     1      62.574  31.948  69.665  0.00  0.00    +0.000 C 
ATOM      5  C   UNL     1      60.580  33.467  70.014  0.00  0.00    +0.000 C 
ATOM      6  C   UNL     1      63.114  32.587  71.026  0.00  0.00    +0.000 C 
ATOM      7  C   UNL     1      60.747  33.677  71.528  0.00  0.00    +0.000 C 
ATOM      8  C   UNL     1      60.443  30.799  70.002  0.00  0.00    +0.000 C 
ATOM      9  C   UNL     1      61.961  32.866  72.089  0.00  0.00    +0.000 C 
ATOM     10  C   UNL     1      60.523  32.289  68.058  0.00  0.00    +0.000 A 
ATOM     11  C   UNL     1      61.613  29.827  70.136  0.00  0.00    +0.000 C 
ATOM     12  C   UNL     1      59.453  33.195  68.094  0.00  0.00    +0.000 A 
ATOM     13  C   UNL     1      64.154  31.686  71.696  0.00  0.00    +0.000 C 
ATOM     14  C   UNL     1      64.039  29.973  69.882  0.00  0.00    +0.000 C 
ATOM     15  C   UNL     1      64.567  30.527  71.166  0.00  0.00    +0.000 C 
ATOM     16  C   UNL     1      60.918  31.663  66.881  0.00  0.00    +0.000 A 
ATOM     17  C   UNL     1      58.783  35.134  69.400  0.00  0.00    +0.000 C 
ATOM     18  C   UNL     1      58.738  33.452  66.941  0.00  0.00    +0.000 A 
ATOM     19  C   UNL     1      60.212  31.907  65.686  0.00  0.00    +0.000 A 
ATOM     20  C   UNL     1      59.108  32.807  65.749  0.00  0.00    +0.000 A 
ENDROOT
BRANCH  19  23
ATOM     21  N   UNL     1      62.207  29.052  60.949  0.00  0.00    +0.000 NA
ATOM     22  N   UNL     1      58.812  29.519  64.955  0.00  0.00    +0.000 N 
ATOM     23  C   UNL     1      60.602  31.203  64.325  0.00  0.00    +0.000 C 
ATOM     24  C   UNL     1      62.014  30.466  64.436  0.00  0.00    +0.000 C 
ATOM     25  C   UNL     1      59.545  30.113  63.941  0.00  0.00    +0.000 A 
ATOM     26  C   UNL     1      62.361  29.459  63.328  0.00  0.00    +0.000 C 
ATOM     27  C   UNL     1      63.647  28.666  63.559  0.00  0.00    +0.000 C 
ATOM     28  C   UNL     1      62.485  30.075  61.942  0.00  0.00    +0.000 C 
ATOM     29  C   UNL     1      59.171  29.455  62.755  0.00  0.00    +0.000 A 
ATOM     30  C   UNL     1      63.906  27.644  62.412  0.00  0.00    +0.000 C 
ATOM     31  C   UNL     1      63.186  27.946  61.034  0.00  0.00    +0.000 C 
ATOM     32  C   UNL     1      59.677  29.593  61.328  0.00  0.00    +0.000 C 
ATOM     33  C   UNL     1      60.798  28.579  60.950  0.00  0.00    +0.000 C 
ATOM     34  C   UNL     1      58.154  28.492  63.111  0.00  0.00    +0.000 A 
ATOM     35  C   UNL     1      57.958  28.563  64.482  0.00  0.00    +0.000 A 
ATOM     36  C   UNL     1      57.395  27.551  62.380  0.00  0.00    +0.000 A 
ATOM     37  C   UNL     1      57.042  27.756  65.169  0.00  0.00    +0.000 A 
ATOM     38  C   UNL     1      56.472  26.736  63.045  0.00  0.00    +0.000 A 
ATOM     39  C   UNL     1      56.300  26.839  64.421  0.00  0.00    +0.000 A 
ATOM     40  H   UNL     1      58.878  29.772  65.933  0.00  0.00    +0.000 HD
BRANCH  23  42
ATOM     41  O   UNL     1      59.934  32.535  62.311  0.00  0.00    +0.000 OA
ATOM     42  C   UNL     1      60.671  32.360  63.274  0.00  0.00    +0.000 C 
BRANCH  42  43
ATOM     43  O   UNL     1      61.694  33.221  63.592  0.00  0.00    +0.000 OA
ATOM     44  C   UNL     1      62.289  33.857  62.461  0.00  0.00    +0.000 C 
ENDBRANCH  42  43
ENDBRANCH  23  42
BRANCH  30  45
ATOM     45  O   UNL     1      65.335  27.698  62.168  0.00  0.00    +0.000 OA
ATOM     46  H   UNL     1      65.720  28.295  62.833  0.00  0.00    +0.000 HD
ENDBRANCH  30  45
BRANCH  30  47
ATOM     47  C   UNL     1      63.665  26.190  62.881  0.00  0.00    +0.000 C 
ATOM     48  C   UNL     1      62.866  25.299  61.946  0.00  0.00    +0.000 C 
ENDBRANCH  30  47
ENDBRANCH  19  23
BRANCH   7  49
ATOM     49  O   UNL     1      61.097  35.090  71.689  0.00  0.00    +0.000 OA
ATOM     50  H   UNL     1      62.075  35.122  71.739  0.00  0.00    +0.000 HD
ENDBRANCH   7  49
BRANCH   7  52
ATOM     51  O   UNL     1      58.615  32.530  72.080  0.00  0.00    +0.000 OA
ATOM     52  C   UNL     1      59.439  33.405  72.311  0.00  0.00    +0.000 C 
BRANCH  52  53
ATOM     53  O   UNL     1      59.361  34.255  73.387  0.00  0.00    +0.000 OA
ATOM     54  C   UNL     1      58.173  35.050  73.414  0.00  0.00    +0.000 C 
ENDBRANCH  52  53
ENDBRANCH   7  52
BRANCH  20  55
ATOM     55  O   UNL     1      58.449  33.074  64.575  0.00  0.00    +0.000 OA
ATOM     56  C   UNL     1      57.793  34.338  64.521  0.00  0.00    +0.000 C 
ENDBRANCH  20  55
BRANCH   6  57
ATOM     57  C   UNL     1      63.847  33.945  70.718  0.00  0.00    +0.000 C 
ATOM     58  C   UNL     1      64.180  34.223  69.251  0.00  0.00    +0.000 C 
ENDBRANCH   6  57
BRANCH   9  59
ATOM     59  O   UNL     1      61.553  31.598  72.657  0.00  0.00    +0.000 OA
BRANCH  59  61
ATOM     60  O   UNL     1      61.835  30.285  74.513  0.00  0.00    +0.000 OA
ATOM     61  C   UNL     1      61.849  31.379  73.966  0.00  0.00    +0.000 C 
ATOM     62  C   UNL     1      62.228  32.665  74.632  0.00  0.00    +0.000 C 
ENDBRANCH  59  61
ENDBRANCH   9  59
TORSDOF 12
ENDMDL
MODEL 7
REMARK VINA RESULT:      -6.0     38.048     43.291
REMARK  Name = 
REMARK  19 active torsions:
REMARK  status: ('A' for Active; 'I' for Inactive)
REMARK    1  A    between atoms: O_1  and  C_20
REMARK    2  A    between atoms: O_1  and  C_36
REMARK    3  A    between atoms: O_2  and  C_18
REMARK    4  A    between atoms: O_3  and  C_28
REMARK    5  A    between atoms: O_3  and  C_42
REMARK    6  A    between atoms: O_5  and  C_34
REMARK    7  A    between atoms: O_5  and  C_50
REMARK    8  A    between atoms: O_7  and  C_40
REMARK    9  A    between atoms: O_7  and  C_56
REMARK   10  A    between atoms: O_9  and  C_46
REMARK   11  A    between atoms: N_11  and  C_30
REMARK   12  A    between atoms: C_17  and  C_23
REMARK   13  A    between atoms: C_18  and  C_28
REMARK   14  A    between atoms: C_23  and  C_32
REMARK   15  A    between atoms: C_33  and  C_35
REMARK   16  A    between atoms: C_35  and  C_40
REMARK   17  A    between atoms: C_36  and  C_41
REMARK   18  A    between atoms: C_46  and  C_53
REMARK   19  A    between atoms: C_53  and  C_57
REMARK                            x       y       z     vdW  Elec       q    Type
REMARK                         _______ _______ _______ _____ _____    ______ ____
ROOT
ATOM      1  N   UNL     1      22.941  18.670  90.364  0.00  0.00    +0.000 NA
ATOM      2  N   UNL     1      20.648  16.665  86.690  0.00  0.00    +0.000 N 
ATOM      3  C   UNL     1      21.797  17.721  88.567  0.00  0.00    +0.000 C 
ATOM      4  C   UNL     1      22.070  19.076  89.245  0.00  0.00    +0.000 C 
ATOM      5  C   UNL     1      20.577  17.823  87.630  0.00  0.00    +0.000 C 
ATOM      6  C   UNL     1      20.744  19.892  89.609  0.00  0.00    +0.000 C 
ATOM      7  C   UNL     1      19.234  18.141  88.307  0.00  0.00    +0.000 C 
ATOM      8  C   UNL     1      21.808  16.692  89.714  0.00  0.00    +0.000 C 
ATOM      9  C   UNL     1      19.432  18.989  89.606  0.00  0.00    +0.000 C 
ATOM     10  C   UNL     1      22.777  17.220  87.525  0.00  0.00    +0.000 A 
ATOM     11  C   UNL     1      22.434  17.415  90.904  0.00  0.00    +0.000 C 
ATOM     12  C   UNL     1      22.062  16.574  86.507  0.00  0.00    +0.000 A 
ATOM     13  C   UNL     1      20.850  20.551  90.986  0.00  0.00    +0.000 C 
ATOM     14  C   UNL     1      23.167  19.700  91.366  0.00  0.00    +0.000 C 
ATOM     15  C   UNL     1      21.945  20.468  91.754  0.00  0.00    +0.000 C 
ATOM     16  C   UNL     1      24.167  17.285  87.522  0.00  0.00    +0.000 A 
ATOM     17  C   UNL     1      19.880  16.756  85.449  0.00  0.00    +0.000 C 
ATOM     18  C   UNL     1      22.748  15.945  85.485  0.00  0.00    +0.000 A 
ATOM     19  C   UNL     1      24.895  16.659  86.492  0.00  0.00    +0.000 A 
ATOM     20  C   UNL     1      24.152  15.979  85.482  0.00  0.00    +0.000 A 
ENDROOT
BRANCH  19  23
ATOM     21  N   UNL     1      30.747  16.934  86.994  0.00  0.00    +0.000 NA
ATOM     22  N   UNL     1      26.279  14.157  86.646  0.00  0.00    +0.000 N 
ATOM     23  C   UNL     1      26.475  16.679  86.453  0.00  0.00    +0.000 C 
ATOM     24  C   UNL     1      27.083  17.219  87.828  0.00  0.00    +0.000 C 
ATOM     25  C   UNL     1      27.045  15.235  86.236  0.00  0.00    +0.000 A 
ATOM     26  C   UNL     1      28.581  16.972  88.070  0.00  0.00    +0.000 C 
ATOM     27  C   UNL     1      29.081  17.365  89.459  0.00  0.00    +0.000 C 
ATOM     28  C   UNL     1      29.497  17.669  87.075  0.00  0.00    +0.000 C 
ATOM     29  C   UNL     1      28.263  14.698  85.782  0.00  0.00    +0.000 A 
ATOM     30  C   UNL     1      30.597  17.048  89.635  0.00  0.00    +0.000 C 
ATOM     31  C   UNL     1      31.440  16.915  88.301  0.00  0.00    +0.000 C 
ATOM     32  C   UNL     1      29.534  15.369  85.287  0.00  0.00    +0.000 C 
ATOM     33  C   UNL     1      30.612  15.582  86.392  0.00  0.00    +0.000 C 
ATOM     34  C   UNL     1      28.156  13.261  85.894  0.00  0.00    +0.000 A 
ATOM     35  C   UNL     1      26.913  12.965  86.432  0.00  0.00    +0.000 A 
ATOM     36  C   UNL     1      29.024  12.186  85.598  0.00  0.00    +0.000 A 
ATOM     37  C   UNL     1      26.477  11.658  86.685  0.00  0.00    +0.000 A 
ATOM     38  C   UNL     1      28.610  10.871  85.842  0.00  0.00    +0.000 A 
ATOM     39  C   UNL     1      27.353  10.613  86.378  0.00  0.00    +0.000 A 
ATOM     40  H   UNL     1      25.350  14.230  87.040  0.00  0.00    +0.000 HD
BRANCH  23  42
ATOM     41  O   UNL     1      27.202  17.337  84.148  0.00  0.00    +0.000 OA
ATOM     42  C   UNL     1      26.841  17.644  85.277  0.00  0.00    +0.000 C 
BRANCH  42  43
ATOM     43  O   UNL     1      26.673  18.950  85.674  0.00  0.00    +0.000 OA
ATOM     44  C   UNL     1      25.974  19.757  84.727  0.00  0.00    +0.000 C 
ENDBRANCH  42  43
ENDBRANCH  23  42
BRANCH  30  45
ATOM     45  O   UNL     1      31.138  18.173  90.373  0.00  0.00    +0.000 OA
ATOM     46  H   UNL     1      32.018  18.366  90.003  0.00  0.00    +0.000 HD
ENDBRANCH  30  45
BRANCH  30  47
ATOM     47  C   UNL     1      30.819  15.844  90.580  0.00  0.00    +0.000 C 
ATOM     48  C   UNL     1      31.349  14.571  89.944  0.00  0.00    +0.000 C 
ENDBRANCH  30  47
ENDBRANCH  19  23
BRANCH   7  49
ATOM     49  O   UNL     1      18.517  19.005  87.366  0.00  0.00    +0.000 OA
ATOM     50  H   UNL     1      19.204  19.417  86.803  0.00  0.00    +0.000 HD
ENDBRANCH   7  49
BRANCH   7  52
ATOM     51  O   UNL     1      18.664  15.926  89.275  0.00  0.00    +0.000 OA
ATOM     52  C   UNL     1      18.380  16.871  88.552  0.00  0.00    +0.000 C 
BRANCH  52  53
ATOM     53  O   UNL     1      17.183  16.986  87.888  0.00  0.00    +0.000 OA
ATOM     54  C   UNL     1      16.759  15.783  87.244  0.00  0.00    +0.000 C 
ENDBRANCH  52  53
ENDBRANCH   7  52
BRANCH  20  55
ATOM     55  O   UNL     1      24.863  15.405  84.458  0.00  0.00    +0.000 OA
ATOM     56  C   UNL     1      24.159  14.421  83.708  0.00  0.00    +0.000 C 
ENDBRANCH  20  55
BRANCH   6  57
ATOM     57  C   UNL     1      20.545  21.064  88.579  0.00  0.00    +0.000 C 
ATOM     58  C   UNL     1      21.755  21.428  87.717  0.00  0.00    +0.000 C 
ENDBRANCH   6  57
BRANCH   9  59
ATOM     59  O   UNL     1      19.448  18.166  90.797  0.00  0.00    +0.000 OA
BRANCH  59  61
ATOM     60  O   UNL     1      17.445  18.879  91.652  0.00  0.00    +0.000 OA
ATOM     61  C   UNL     1      18.603  18.513  91.804  0.00  0.00    +0.000 C 
ATOM     62  C   UNL     1      19.283  18.349  93.128  0.00  0.00    +0.000 C 
ENDBRANCH  59  61
ENDBRANCH   9  59
TORSDOF 12
ENDMDL
MODEL 8
REMARK VINA RESULT:      -5.9     42.964     47.258
REMARK  Name = 
REMARK  19 active torsions:
REMARK  status: ('A' for Active; 'I' for Inactive)
REMARK    1  A    between atoms: O_1  and  C_20
REMARK    2  A    between atoms: O_1  and  C_36
REMARK    3  A    between atoms: O_2  and  C_18
REMARK    4  A    between atoms: O_3  and  C_28
REMARK    5  A    between atoms: O_3  and  C_42
REMARK    6  A    between atoms: O_5  and  C_34
REMARK    7  A    between atoms: O_5  and  C_50
REMARK    8  A    between atoms: O_7  and  C_40
REMARK    9  A    between atoms: O_7  and  C_56
REMARK   10  A    between atoms: O_9  and  C_46
REMARK   11  A    between atoms: N_11  and  C_30
REMARK   12  A    between atoms: C_17  and  C_23
REMARK   13  A    between atoms: C_18  and  C_28
REMARK   14  A    between atoms: C_23  and  C_32
REMARK   15  A    between atoms: C_33  and  C_35
REMARK   16  A    between atoms: C_35  and  C_40
REMARK   17  A    between atoms: C_36  and  C_41
REMARK   18  A    between atoms: C_46  and  C_53
REMARK   19  A    between atoms: C_53  and  C_57
REMARK                            x       y       z     vdW  Elec       q    Type
REMARK                         _______ _______ _______ _____ _____    ______ ____
ROOT
ATOM      1  N   UNL     1      22.092  19.334  94.011  0.00  0.00    +0.000 NA
ATOM      2  N   UNL     1      18.572  22.460  93.225  0.00  0.00    +0.000 N 
ATOM      3  C   UNL     1      20.397  20.890  93.636  0.00  0.00    +0.000 C 
ATOM      4  C   UNL     1      21.930  20.762  93.678  0.00  0.00    +0.000 C 
ATOM      5  C   UNL     1      19.977  22.371  93.724  0.00  0.00    +0.000 C 
ATOM      6  C   UNL     1      22.637  21.823  94.642  0.00  0.00    +0.000 C 
ATOM      7  C   UNL     1      20.342  23.096  95.029  0.00  0.00    +0.000 C 
ATOM      8  C   UNL     1      19.881  19.877  94.676  0.00  0.00    +0.000 C 
ATOM      9  C   UNL     1      21.632  22.497  95.678  0.00  0.00    +0.000 C 
ATOM     10  C   UNL     1      19.677  20.582  92.337  0.00  0.00    +0.000 A 
ATOM     11  C   UNL     1      21.074  18.977  94.991  0.00  0.00    +0.000 C 
ATOM     12  C   UNL     1      18.609  21.476  92.189  0.00  0.00    +0.000 A 
ATOM     13  C   UNL     1      23.771  21.183  95.446  0.00  0.00    +0.000 C 
ATOM     14  C   UNL     1      23.442  18.945  94.388  0.00  0.00    +0.000 C 
ATOM     15  C   UNL     1      24.128  19.898  95.312  0.00  0.00    +0.000 C 
ATOM     16  C   UNL     1      19.922  19.568  91.417  0.00  0.00    +0.000 A 
ATOM     17  C   UNL     1      18.088  23.772  92.800  0.00  0.00    +0.000 C 
ATOM     18  C   UNL     1      17.741  21.333  91.124  0.00  0.00    +0.000 A 
ATOM     19  C   UNL     1      19.059  19.398  90.316  0.00  0.00    +0.000 A 
ATOM     20  C   UNL     1      17.959  20.298  90.200  0.00  0.00    +0.000 A 
ENDROOT
BRANCH  19  23
ATOM     21  N   UNL     1      19.183  15.089  86.317  0.00  0.00    +0.000 NA
ATOM     22  N   UNL     1      19.877  20.136  87.674  0.00  0.00    +0.000 N 
ATOM     23  C   UNL     1      19.274  18.246  89.255  0.00  0.00    +0.000 C 
ATOM     24  C   UNL     1      17.880  17.639  88.766  0.00  0.00    +0.000 C 
ATOM     25  C   UNL     1      20.007  18.792  87.982  0.00  0.00    +0.000 A 
ATOM     26  C   UNL     1      17.907  16.769  87.498  0.00  0.00    +0.000 C 
ATOM     27  C   UNL     1      16.533  16.342  86.983  0.00  0.00    +0.000 C 
ATOM     28  C   UNL     1      18.726  15.494  87.635  0.00  0.00    +0.000 C 
ATOM     29  C   UNL     1      20.749  18.222  86.932  0.00  0.00    +0.000 A 
ATOM     30  C   UNL     1      16.647  15.497  85.678  0.00  0.00    +0.000 C 
ATOM     31  C   UNL     1      18.042  14.794  85.424  0.00  0.00    +0.000 C 
ATOM     32  C   UNL     1      21.148  16.782  86.651  0.00  0.00    +0.000 C 
ATOM     33  C   UNL     1      20.167  16.022  85.708  0.00  0.00    +0.000 C 
ATOM     34  C   UNL     1      21.090  19.295  86.027  0.00  0.00    +0.000 A 
ATOM     35  C   UNL     1      20.534  20.466  86.521  0.00  0.00    +0.000 A 
ATOM     36  C   UNL     1      21.815  19.365  84.816  0.00  0.00    +0.000 A 
ATOM     37  C   UNL     1      20.664  21.706  85.884  0.00  0.00    +0.000 A 
ATOM     38  C   UNL     1      21.958  20.594  84.162  0.00  0.00    +0.000 A 
ATOM     39  C   UNL     1      21.390  21.748  84.691  0.00  0.00    +0.000 A 
ATOM     40  H   UNL     1      19.375  20.808  88.239  0.00  0.00    +0.000 HD
BRANCH  23  42
ATOM     41  O   UNL     1      19.692  16.180  90.608  0.00  0.00    +0.000 OA
ATOM     42  C   UNL     1      20.113  17.157  90.000  0.00  0.00    +0.000 C 
BRANCH  42  43
ATOM     43  O   UNL     1      21.456  17.422  89.860  0.00  0.00    +0.000 OA
ATOM     44  C   UNL     1      22.293  16.632  90.704  0.00  0.00    +0.000 C 
ENDBRANCH  42  43
ENDBRANCH  23  42
BRANCH  30  45
ATOM     45  O   UNL     1      15.656  14.448  85.816  0.00  0.00    +0.000 OA
ATOM     46  H   UNL     1      15.903  13.916  86.594  0.00  0.00    +0.000 HD
ENDBRANCH  30  45
BRANCH  30  47
ATOM     47  C   UNL     1      16.170  16.295  84.443  0.00  0.00    +0.000 C 
ATOM     48  C   UNL     1      17.159  16.429  83.298  0.00  0.00    +0.000 C 
ENDBRANCH  30  47
ENDBRANCH  19  23
BRANCH   7  49
ATOM     49  O   UNL     1      20.687  24.463  94.633  0.00  0.00    +0.000 OA
ATOM     50  H   UNL     1      20.261  24.607  93.763  0.00  0.00    +0.000 HD
ENDBRANCH   7  49
BRANCH   7  52
ATOM     51  O   UNL     1      18.303  22.302  96.203  0.00  0.00    +0.000 OA
ATOM     52  C   UNL     1      19.154  23.161  96.022  0.00  0.00    +0.000 C 
BRANCH  52  53
ATOM     53  O   UNL     1      19.230  24.320  96.757  0.00  0.00    +0.000 OA
ATOM     54  C   UNL     1      18.678  24.211  98.070  0.00  0.00    +0.000 C 
ENDBRANCH  52  53
ENDBRANCH   7  52
BRANCH  20  55
ATOM     55  O   UNL     1      17.145  20.154  89.104  0.00  0.00    +0.000 OA
ATOM     56  C   UNL     1      15.939  20.912  89.141  0.00  0.00    +0.000 C 
ENDBRANCH  20  55
BRANCH   6  57
ATOM     57  C   UNL     1      23.301  22.960  93.781  0.00  0.00    +0.000 C 
ATOM     58  C   UNL     1      23.222  22.799  92.261  0.00  0.00    +0.000 C 
ENDBRANCH   6  57
BRANCH   9  59
ATOM     59  O   UNL     1      21.324  21.525  96.706  0.00  0.00    +0.000 OA
BRANCH  59  61
ATOM     60  O   UNL     1      22.176  22.893  98.333  0.00  0.00    +0.000 OA
ATOM     61  C   UNL     1      21.595  21.872  97.992  0.00  0.00    +0.000 C 
ATOM     62  C   UNL     1      21.050  20.842  98.932  0.00  0.00    +0.000 C 
ENDBRANCH  59  61
ENDBRANCH   9  59
TORSDOF 12
ENDMDL
MODEL 9
REMARK VINA RESULT:      -5.8      3.508     10.259
REMARK  Name = 
REMARK  19 active torsions:
REMARK  status: ('A' for Active; 'I' for Inactive)
REMARK    1  A    between atoms: O_1  and  C_20
REMARK    2  A    between atoms: O_1  and  C_36
REMARK    3  A    between atoms: O_2  and  C_18
REMARK    4  A    between atoms: O_3  and  C_28
REMARK    5  A    between atoms: O_3  and  C_42
REMARK    6  A    between atoms: O_5  and  C_34
REMARK    7  A    between atoms: O_5  and  C_50
REMARK    8  A    between atoms: O_7  and  C_40
REMARK    9  A    between atoms: O_7  and  C_56
REMARK   10  A    between atoms: O_9  and  C_46
REMARK   11  A    between atoms: N_11  and  C_30
REMARK   12  A    between atoms: C_17  and  C_23
REMARK   13  A    between atoms: C_18  and  C_28
REMARK   14  A    between atoms: C_23  and  C_32
REMARK   15  A    between atoms: C_33  and  C_35
REMARK   16  A    between atoms: C_35  and  C_40
REMARK   17  A    between atoms: C_36  and  C_41
REMARK   18  A    between atoms: C_46  and  C_53
REMARK   19  A    between atoms: C_53  and  C_57
REMARK                            x       y       z     vdW  Elec       q    Type
REMARK                         _______ _______ _______ _____ _____    ______ ____
ROOT
ATOM      1  N   UNL     1      60.528  31.629  71.503  0.00  0.00    +0.000 NA
ATOM      2  N   UNL     1      63.206  35.335  70.136  0.00  0.00    +0.000 N 
ATOM      3  C   UNL     1      61.865  33.427  70.858  0.00  0.00    +0.000 C 
ATOM      4  C   UNL     1      61.952  32.007  71.444  0.00  0.00    +0.000 C 
ATOM      5  C   UNL     1      63.183  34.190  71.093  0.00  0.00    +0.000 C 
ATOM      6  C   UNL     1      62.788  31.923  72.804  0.00  0.00    +0.000 C 
ATOM      7  C   UNL     1      63.555  34.452  72.562  0.00  0.00    +0.000 C 
ATOM      8  C   UNL     1      60.535  33.997  71.388  0.00  0.00    +0.000 C 
ATOM      9  C   UNL     1      62.989  33.339  73.505  0.00  0.00    +0.000 C 
ATOM     10  C   UNL     1      61.835  33.590  69.351  0.00  0.00    +0.000 A 
ATOM     11  C   UNL     1      59.764  32.796  71.929  0.00  0.00    +0.000 C 
ATOM     12  C   UNL     1      62.571  34.732  69.006  0.00  0.00    +0.000 A 
ATOM     13  C   UNL     1      62.117  30.995  73.820  0.00  0.00    +0.000 C 
ATOM     14  C   UNL     1      60.247  30.423  72.267  0.00  0.00    +0.000 C 
ATOM     15  C   UNL     1      60.988  30.321  73.560  0.00  0.00    +0.000 C 
ATOM     16  C   UNL     1      61.169  32.827  68.397  0.00  0.00    +0.000 A 
ATOM     17  C   UNL     1      64.501  35.950  69.848  0.00  0.00    +0.000 C 
ATOM     18  C   UNL     1      62.611  35.146  67.688  0.00  0.00    +0.000 A 
ATOM     19  C   UNL     1      61.195  33.219  67.044  0.00  0.00    +0.000 A 
ATOM     20  C   UNL     1      61.922  34.402  66.717  0.00  0.00    +0.000 A 
ENDROOT
BRANCH  19  23
ATOM     21  N   UNL     1      58.173  29.767  63.367  0.00  0.00    +0.000 NA
ATOM     22  N   UNL     1      58.708  34.258  66.076  0.00  0.00    +0.000 N 
ATOM     23  C   UNL     1      60.434  32.405  65.923  0.00  0.00    +0.000 C 
ATOM     24  C   UNL     1      59.769  31.080  66.517  0.00  0.00    +0.000 C 
ATOM     25  C   UNL     1      59.277  33.260  65.303  0.00  0.00    +0.000 A 
ATOM     26  C   UNL     1      58.718  30.377  65.642  0.00  0.00    +0.000 C 
ATOM     27  C   UNL     1      57.999  29.208  66.315  0.00  0.00    +0.000 C 
ATOM     28  C   UNL     1      59.261  29.841  64.325  0.00  0.00    +0.000 C 
ATOM     29  C   UNL     1      58.537  33.226  64.107  0.00  0.00    +0.000 A 
ATOM     30  C   UNL     1      56.928  28.577  65.377  0.00  0.00    +0.000 C 
ATOM     31  C   UNL     1      57.119  28.837  63.827  0.00  0.00    +0.000 C 
ATOM     32  C   UNL     1      58.618  32.302  62.902  0.00  0.00    +0.000 C 
ATOM     33  C   UNL     1      57.637  31.093  62.961  0.00  0.00    +0.000 C 
ATOM     34  C   UNL     1      57.551  34.278  64.193  0.00  0.00    +0.000 A 
ATOM     35  C   UNL     1      57.689  34.895  65.427  0.00  0.00    +0.000 A 
ATOM     36  C   UNL     1      56.536  34.745  63.327  0.00  0.00    +0.000 A 
ATOM     37  C   UNL     1      56.881  35.959  65.847  0.00  0.00    +0.000 A 
ATOM     38  C   UNL     1      55.718  35.809  63.725  0.00  0.00    +0.000 A 
ATOM     39  C   UNL     1      55.890  36.406  64.970  0.00  0.00    +0.000 A 
ATOM     40  H   UNL     1      59.017  34.508  67.007  0.00  0.00    +0.000 HD
BRANCH  23  42
ATOM     41  O   UNL     1      61.646  32.478  63.732  0.00  0.00    +0.000 OA
ATOM     42  C   UNL     1      61.532  32.040  64.870  0.00  0.00    +0.000 C 
BRANCH  42  43
ATOM     43  O   UNL     1      62.420  31.141  65.412  0.00  0.00    +0.000 OA
ATOM     44  C   UNL     1      63.772  31.343  65.001  0.00  0.00    +0.000 C 
ENDBRANCH  42  43
ENDBRANCH  23  42
BRANCH  30  45
ATOM     45  O   UNL     1      57.032  27.146  65.587  0.00  0.00    +0.000 OA
ATOM     46  H   UNL     1      57.970  26.945  65.757  0.00  0.00    +0.000 HD
ENDBRANCH  30  45
BRANCH  30  47
ATOM     47  C   UNL     1      55.493  28.915  65.845  0.00  0.00    +0.000 C 
ATOM     48  C   UNL     1      54.361  28.497  64.922  0.00  0.00    +0.000 C 
ENDBRANCH  30  47
ENDBRANCH  19  23
BRANCH   7  49
ATOM     49  O   UNL     1      65.013  34.329  72.624  0.00  0.00    +0.000 OA
ATOM     50  H   UNL     1      65.199  33.690  73.342  0.00  0.00    +0.000 HD
ENDBRANCH   7  49
BRANCH   7  52
ATOM     51  O   UNL     1      62.041  36.360  73.042  0.00  0.00    +0.000 OA
ATOM     52  C   UNL     1      63.164  35.877  73.026  0.00  0.00    +0.000 C 
BRANCH  52  53
ATOM     53  O   UNL     1      64.275  36.525  73.510  0.00  0.00    +0.000 OA
ATOM     54  C   UNL     1      64.389  37.882  73.078  0.00  0.00    +0.000 C 
ENDBRANCH  52  53
ENDBRANCH   7  52
BRANCH  20  55
ATOM     55  O   UNL     1      61.979  34.757  65.393  0.00  0.00    +0.000 OA
ATOM     56  C   UNL     1      61.746  36.136  65.124  0.00  0.00    +0.000 C 
ENDBRANCH  20  55
BRANCH   6  57
ATOM     57  C   UNL     1      64.205  31.303  72.517  0.00  0.00    +0.000 C 
ATOM     58  C   UNL     1      64.316  30.393  71.293  0.00  0.00    +0.000 C 
ENDBRANCH   6  57
BRANCH   9  59
ATOM     59  O   UNL     1      61.732  33.726  74.111  0.00  0.00    +0.000 OA
BRANCH  59  61
ATOM     60  O   UNL     1      62.588  33.537  76.227  0.00  0.00    +0.000 OA
ATOM     61  C   UNL     1      61.728  33.936  75.454  0.00  0.00    +0.000 C 
ATOM     62  C   UNL     1      60.537  34.755  75.845  0.00  0.00    +0.000 C 
ENDBRANCH  59  61
ENDBRANCH   9  59
TORSDOF 12
ENDMDL
