MODEL 1
REMARK VINA RESULT:      -5.3      0.000      0.000
REMARK  Name = Vorinostat.pdbqt.pdb
REMARK  6 active torsions:
REMARK  status: ('A' for Active; 'I' for Inactive)
REMARK    1  A    between atoms: C_1  and  C_2
REMARK    2  A    between atoms: C_3  and  C_4
REMARK    3  A    between atoms: C_5  and  C_8
REMARK    4  A    between atoms: N_7  and  O_10
REMARK    5  A    between atoms: C_12  and  C_15
REMARK    6  A    between atoms: N_14  and  C_17
REMARK                            x       y       z     vdW  Elec       q    Type
REMARK                         _______ _______ _______ _____ _____    ______ ____
ROOT
ATOM      1  C   UNL     1      56.012  38.396  76.093  0.00  0.00    +0.000 C 
ATOM      2  C   UNL     1      56.014  37.332  77.195  0.00  0.00    +0.000 C 
ENDROOT
BRANCH   2   5
ATOM      3  O   UNL     1      55.016  35.642  78.379  0.00  0.00    +0.000 OA
ATOM      4  N   UNL     1      57.186  36.268  78.953  0.00  0.00    +0.000 N 
ATOM      5  C   UNL     1      56.015  36.328  78.233  0.00  0.00    +0.000 C 
ATOM      6  H   UNL     1      57.922  36.915  78.699  0.00  0.00    +0.000 HD
BRANCH   4   7
ATOM      7  C   UNL     1      57.451  35.384  80.014  0.00  0.00    +0.000 A 
ATOM      8  C   UNL     1      57.706  34.049  79.701  0.00  0.00    +0.000 A 
ATOM      9  C   UNL     1      57.468  35.789  81.348  0.00  0.00    +0.000 A 
ATOM     10  C   UNL     1      57.974  33.127  80.710  0.00  0.00    +0.000 A 
ATOM     11  C   UNL     1      57.736  34.869  82.360  0.00  0.00    +0.000 A 
ATOM     12  C   UNL     1      57.989  33.538  82.041  0.00  0.00    +0.000 A 
ENDBRANCH   4   7
ENDBRANCH   2   5
BRANCH   1  13
ATOM     13  C   UNL     1      56.011  39.458  74.991  0.00  0.00    +0.000 C 
ATOM     14  C   UNL     1      56.009  40.521  73.887  0.00  0.00    +0.000 C 
BRANCH  14  15
ATOM     15  C   UNL     1      56.007  41.583  72.784  0.00  0.00    +0.000 C 
ATOM     16  C   UNL     1      56.006  42.645  71.680  0.00  0.00    +0.000 C 
BRANCH  16  19
ATOM     17  O   UNL     1      56.427  43.374  69.524  0.00  0.00    +0.000 OA
ATOM     18  N   UNL     1      55.514  44.867  70.992  0.00  0.00    +0.000 N 
ATOM     19  C   UNL     1      56.007  43.641  70.643  0.00  0.00    +0.000 C 
ATOM     20  H   UNL     1      55.126  45.095  71.899  0.00  0.00    +0.000 HD
BRANCH  18  21
ATOM     21  O   UNL     1      55.467  45.863  69.992  0.00  0.00    +0.000 OA
ATOM     22  H   UNL     1      56.415  45.981  69.761  0.00  0.00    +0.000 HD
ENDBRANCH  18  21
ENDBRANCH  16  19
ENDBRANCH  14  15
ENDBRANCH   1  13
TORSDOF 6
ENDMDL
MODEL 2
REMARK VINA RESULT:      -5.3      2.752     11.705
REMARK  Name = Vorinostat.pdbqt.pdb
REMARK  6 active torsions:
REMARK  status: ('A' for Active; 'I' for Inactive)
REMARK    1  A    between atoms: C_1  and  C_2
REMARK    2  A    between atoms: C_3  and  C_4
REMARK    3  A    between atoms: C_5  and  C_8
REMARK    4  A    between atoms: N_7  and  O_10
REMARK    5  A    between atoms: C_12  and  C_15
REMARK    6  A    between atoms: N_14  and  C_17
REMARK                            x       y       z     vdW  Elec       q    Type
REMARK                         _______ _______ _______ _____ _____    ______ ____
ROOT
ATOM      1  C   UNL     1      56.160  39.074  75.183  0.00  0.00    +0.000 C 
ATOM      2  C   UNL     1      55.831  39.798  73.875  0.00  0.00    +0.000 C 
ENDROOT
BRANCH   2   5
ATOM      3  O   UNL     1      54.356  40.510  72.271  0.00  0.00    +0.000 OA
ATOM      4  N   UNL     1      56.614  41.028  72.011  0.00  0.00    +0.000 N 
ATOM      5  C   UNL     1      55.520  40.479  72.639  0.00  0.00    +0.000 C 
ATOM      6  H   UNL     1      57.515  40.908  72.458  0.00  0.00    +0.000 HD
BRANCH   4   7
ATOM      7  C   UNL     1      56.590  41.741  70.800  0.00  0.00    +0.000 A 
ATOM      8  C   UNL     1      56.316  43.108  70.855  0.00  0.00    +0.000 A 
ATOM      9  C   UNL     1      56.827  41.141  69.564  0.00  0.00    +0.000 A 
ATOM     10  C   UNL     1      56.279  43.867  69.688  0.00  0.00    +0.000 A 
ATOM     11  C   UNL     1      56.791  41.898  68.395  0.00  0.00    +0.000 A 
ATOM     12  C   UNL     1      56.517  43.261  68.457  0.00  0.00    +0.000 A 
ENDBRANCH   4   7
ENDBRANCH   2   5
BRANCH   1  13
ATOM     13  C   UNL     1      56.488  38.350  76.493  0.00  0.00    +0.000 C 
ATOM     14  C   UNL     1      56.816  37.627  77.802  0.00  0.00    +0.000 C 
BRANCH  14  15
ATOM     15  C   UNL     1      57.145  36.903  79.111  0.00  0.00    +0.000 C 
ATOM     16  C   UNL     1      57.474  36.180  80.421  0.00  0.00    +0.000 C 
BRANCH  16  19
ATOM     17  O   UNL     1      57.048  35.615  82.625  0.00  0.00    +0.000 OA
ATOM     18  N   UNL     1      58.921  34.745  81.647  0.00  0.00    +0.000 N 
ATOM     19  C   UNL     1      57.783  35.503  81.652  0.00  0.00    +0.000 C 
ATOM     20  H   UNL     1      59.519  34.609  80.841  0.00  0.00    +0.000 HD
BRANCH  18  21
ATOM     21  O   UNL     1      59.241  34.038  82.827  0.00  0.00    +0.000 OA
ATOM     22  H   UNL     1      58.729  34.519  83.513  0.00  0.00    +0.000 HD
ENDBRANCH  18  21
ENDBRANCH  16  19
ENDBRANCH  14  15
ENDBRANCH   1  13
TORSDOF 6
ENDMDL
MODEL 3
REMARK VINA RESULT:      -5.0      2.909     11.639
REMARK  Name = Vorinostat.pdbqt.pdb
REMARK  6 active torsions:
REMARK  status: ('A' for Active; 'I' for Inactive)
REMARK    1  A    between atoms: C_1  and  C_2
REMARK    2  A    between atoms: C_3  and  C_4
REMARK    3  A    between atoms: C_5  and  C_8
REMARK    4  A    between atoms: N_7  and  O_10
REMARK    5  A    between atoms: C_12  and  C_15
REMARK    6  A    between atoms: N_14  and  C_17
REMARK                            x       y       z     vdW  Elec       q    Type
REMARK                         _______ _______ _______ _____ _____    ______ ____
ROOT
ATOM      1  C   UNL     1      56.465  38.954  75.173  0.00  0.00    +0.000 C 
ATOM      2  C   UNL     1      55.934  39.860  74.059  0.00  0.00    +0.000 C 
ENDROOT
BRANCH   2   5
ATOM      3  O   UNL     1      55.098  40.204  71.952  0.00  0.00    +0.000 OA
ATOM      4  N   UNL     1      55.395  42.050  73.344  0.00  0.00    +0.000 N 
ATOM      5  C   UNL     1      55.433  40.716  73.009  0.00  0.00    +0.000 C 
ATOM      6  H   UNL     1      55.712  42.306  74.271  0.00  0.00    +0.000 HD
BRANCH   4   7
ATOM      7  C   UNL     1      54.952  43.092  72.510  0.00  0.00    +0.000 A 
ATOM      8  C   UNL     1      53.606  43.453  72.578  0.00  0.00    +0.000 A 
ATOM      9  C   UNL     1      55.798  43.767  71.631  0.00  0.00    +0.000 A 
ATOM     10  C   UNL     1      53.110  44.477  71.775  0.00  0.00    +0.000 A 
ATOM     11  C   UNL     1      55.304  44.793  70.827  0.00  0.00    +0.000 A 
ATOM     12  C   UNL     1      53.960  45.148  70.899  0.00  0.00    +0.000 A 
ENDBRANCH   4   7
ENDBRANCH   2   5
BRANCH   1  13
ATOM     13  C   UNL     1      56.997  38.049  76.288  0.00  0.00    +0.000 C 
ATOM     14  C   UNL     1      57.529  37.144  77.404  0.00  0.00    +0.000 C 
BRANCH  14  15
ATOM     15  C   UNL     1      58.061  36.240  78.519  0.00  0.00    +0.000 C 
ATOM     16  C   UNL     1      58.593  35.334  79.634  0.00  0.00    +0.000 C 
BRANCH  16  19
ATOM     17  O   UNL     1      59.718  33.465  80.408  0.00  0.00    +0.000 OA
ATOM     18  N   UNL     1      58.829  34.888  81.958  0.00  0.00    +0.000 N 
ATOM     19  C   UNL     1      59.093  34.483  80.680  0.00  0.00    +0.000 C 
ATOM     20  H   UNL     1      58.349  35.746  82.203  0.00  0.00    +0.000 HD
BRANCH  18  21
ATOM     21  O   UNL     1      59.331  34.096  83.013  0.00  0.00    +0.000 OA
ATOM     22  H   UNL     1      59.821  33.389  82.538  0.00  0.00    +0.000 HD
ENDBRANCH  18  21
ENDBRANCH  16  19
ENDBRANCH  14  15
ENDBRANCH   1  13
TORSDOF 6
ENDMDL
MODEL 4
REMARK VINA RESULT:      -4.9     18.452     19.065
REMARK  Name = Vorinostat.pdbqt.pdb
REMARK  6 active torsions:
REMARK  status: ('A' for Active; 'I' for Inactive)
REMARK    1  A    between atoms: C_1  and  C_2
REMARK    2  A    between atoms: C_3  and  C_4
REMARK    3  A    between atoms: C_5  and  C_8
REMARK    4  A    between atoms: N_7  and  O_10
REMARK    5  A    between atoms: C_12  and  C_15
REMARK    6  A    between atoms: N_14  and  C_17
REMARK                            x       y       z     vdW  Elec       q    Type
REMARK                         _______ _______ _______ _____ _____    ______ ____
ROOT
ATOM      1  C   UNL     1      50.183  23.926  85.771  0.00  0.00    +0.000 C 
ATOM      2  C   UNL     1      51.464  23.188  86.170  0.00  0.00    +0.000 C 
ENDROOT
BRANCH   2   5
ATOM      3  O   UNL     1      52.850  22.230  87.725  0.00  0.00    +0.000 OA
ATOM      4  N   UNL     1      53.505  22.204  85.489  0.00  0.00    +0.000 N 
ATOM      5  C   UNL     1      52.673  22.493  86.546  0.00  0.00    +0.000 C 
ATOM      6  H   UNL     1      53.203  22.496  84.567  0.00  0.00    +0.000 HD
BRANCH   4   7
ATOM      7  C   UNL     1      54.739  21.537  85.576  0.00  0.00    +0.000 A 
ATOM      8  C   UNL     1      55.883  22.309  85.779  0.00  0.00    +0.000 A 
ATOM      9  C   UNL     1      54.859  20.152  85.470  0.00  0.00    +0.000 A 
ATOM     10  C   UNL     1      57.134  21.704  85.874  0.00  0.00    +0.000 A 
ATOM     11  C   UNL     1      56.109  19.544  85.565  0.00  0.00    +0.000 A 
ATOM     12  C   UNL     1      57.247  20.321  85.767  0.00  0.00    +0.000 A 
ENDBRANCH   4   7
ENDBRANCH   2   5
BRANCH   1  13
ATOM     13  C   UNL     1      48.903  24.665  85.371  0.00  0.00    +0.000 C 
ATOM     14  C   UNL     1      47.621  25.404  84.972  0.00  0.00    +0.000 C 
BRANCH  14  15
ATOM     15  C   UNL     1      46.341  26.142  84.573  0.00  0.00    +0.000 C 
ATOM     16  C   UNL     1      45.059  26.880  84.172  0.00  0.00    +0.000 C 
BRANCH  16  19
ATOM     17  O   UNL     1      42.974  26.991  83.172  0.00  0.00    +0.000 OA
ATOM     18  N   UNL     1      43.774  28.880  84.178  0.00  0.00    +0.000 N 
ATOM     19  C   UNL     1      43.856  27.571  83.795  0.00  0.00    +0.000 C 
ATOM     20  H   UNL     1      44.473  29.365  84.726  0.00  0.00    +0.000 HD
BRANCH  18  21
ATOM     21  O   UNL     1      42.593  29.584  83.854  0.00  0.00    +0.000 OA
ATOM     22  H   UNL     1      42.548  29.493  82.877  0.00  0.00    +0.000 HD
ENDBRANCH  18  21
ENDBRANCH  16  19
ENDBRANCH  14  15
ENDBRANCH   1  13
TORSDOF 6
ENDMDL
MODEL 5
REMARK VINA RESULT:      -4.8      1.723      2.140
REMARK  Name = Vorinostat.pdbqt.pdb
REMARK  6 active torsions:
REMARK  status: ('A' for Active; 'I' for Inactive)
REMARK    1  A    between atoms: C_1  and  C_2
REMARK    2  A    between atoms: C_3  and  C_4
REMARK    3  A    between atoms: C_5  and  C_8
REMARK    4  A    between atoms: N_7  and  O_10
REMARK    5  A    between atoms: C_12  and  C_15
REMARK    6  A    between atoms: N_14  and  C_17
REMARK                            x       y       z     vdW  Elec       q    Type
REMARK                         _______ _______ _______ _____ _____    ______ ____
ROOT
ATOM      1  C   UNL     1      56.057  39.020  74.639  0.00  0.00    +0.000 C 
ATOM      2  C   UNL     1      56.278  37.721  75.420  0.00  0.00    +0.000 C 
ENDROOT
BRANCH   2   5
ATOM      3  O   UNL     1      56.248  35.436  75.603  0.00  0.00    +0.000 OA
ATOM      4  N   UNL     1      56.946  36.688  77.442  0.00  0.00    +0.000 N 
ATOM      5  C   UNL     1      56.487  36.497  76.158  0.00  0.00    +0.000 C 
ATOM      6  H   UNL     1      57.091  37.643  77.746  0.00  0.00    +0.000 HD
BRANCH   4   7
ATOM      7  C   UNL     1      57.230  35.671  78.369  0.00  0.00    +0.000 A 
ATOM      8  C   UNL     1      58.570  35.408  78.657  0.00  0.00    +0.000 A 
ATOM      9  C   UNL     1      56.235  34.927  79.003  0.00  0.00    +0.000 A 
ATOM     10  C   UNL     1      58.912  34.411  79.568  0.00  0.00    +0.000 A 
ATOM     11  C   UNL     1      56.575  33.930  79.916  0.00  0.00    +0.000 A 
ATOM     12  C   UNL     1      57.914  33.672  80.198  0.00  0.00    +0.000 A 
ENDBRANCH   4   7
ENDBRANCH   2   5
BRANCH   1  13
ATOM     13  C   UNL     1      55.835  40.319  73.859  0.00  0.00    +0.000 C 
ATOM     14  C   UNL     1      55.614  41.618  73.079  0.00  0.00    +0.000 C 
BRANCH  14  15
ATOM     15  C   UNL     1      55.392  42.918  72.301  0.00  0.00    +0.000 C 
ATOM     16  C   UNL     1      55.171  44.218  71.520  0.00  0.00    +0.000 C 
BRANCH  16  19
ATOM     17  O   UNL     1      54.364  46.375  71.295  0.00  0.00    +0.000 OA
ATOM     18  N   UNL     1      55.479  45.466  69.520  0.00  0.00    +0.000 N 
ATOM     19  C   UNL     1      54.964  45.437  70.786  0.00  0.00    +0.000 C 
ATOM     20  H   UNL     1      56.012  44.716  69.097  0.00  0.00    +0.000 HD
BRANCH  18  21
ATOM     21  O   UNL     1      55.325  46.658  68.778  0.00  0.00    +0.000 OA
ATOM     22  H   UNL     1      54.456  46.528  68.339  0.00  0.00    +0.000 HD
ENDBRANCH  18  21
ENDBRANCH  16  19
ENDBRANCH  14  15
ENDBRANCH   1  13
TORSDOF 6
ENDMDL
MODEL 6
REMARK VINA RESULT:      -4.6      2.498      3.624
REMARK  Name = Vorinostat.pdbqt.pdb
REMARK  6 active torsions:
REMARK  status: ('A' for Active; 'I' for Inactive)
REMARK    1  A    between atoms: C_1  and  C_2
REMARK    2  A    between atoms: C_3  and  C_4
REMARK    3  A    between atoms: C_5  and  C_8
REMARK    4  A    between atoms: N_7  and  O_10
REMARK    5  A    between atoms: C_12  and  C_15
REMARK    6  A    between atoms: N_14  and  C_17
REMARK                            x       y       z     vdW  Elec       q    Type
REMARK                         _______ _______ _______ _____ _____    ______ ____
ROOT
ATOM      1  C   UNL     1      55.996  40.043  73.574  0.00  0.00    +0.000 C 
ATOM      2  C   UNL     1      55.772  39.297  74.892  0.00  0.00    +0.000 C 
ENDROOT
BRANCH   2   5
ATOM      3  O   UNL     1      54.569  38.870  76.797  0.00  0.00    +0.000 OA
ATOM      4  N   UNL     1      56.532  37.667  76.430  0.00  0.00    +0.000 N 
ATOM      5  C   UNL     1      55.558  38.594  76.136  0.00  0.00    +0.000 C 
ATOM      6  H   UNL     1      57.290  37.564  75.767  0.00  0.00    +0.000 HD
BRANCH   4   7
ATOM      7  C   UNL     1      56.566  36.850  77.573  0.00  0.00    +0.000 A 
ATOM      8  C   UNL     1      57.418  37.221  78.613  0.00  0.00    +0.000 A 
ATOM      9  C   UNL     1      55.789  35.699  77.703  0.00  0.00    +0.000 A 
ATOM     10  C   UNL     1      57.495  36.450  79.771  0.00  0.00    +0.000 A 
ATOM     11  C   UNL     1      55.863  34.926  78.861  0.00  0.00    +0.000 A 
ATOM     12  C   UNL     1      56.716  35.303  79.895  0.00  0.00    +0.000 A 
ENDBRANCH   4   7
ENDBRANCH   2   5
BRANCH   1  13
ATOM     13  C   UNL     1      56.219  40.788  72.255  0.00  0.00    +0.000 C 
ATOM     14  C   UNL     1      56.443  41.533  70.935  0.00  0.00    +0.000 C 
BRANCH  14  15
ATOM     15  C   UNL     1      56.666  42.279  69.617  0.00  0.00    +0.000 C 
ATOM     16  C   UNL     1      56.888  43.025  68.297  0.00  0.00    +0.000 C 
BRANCH  16  19
ATOM     17  O   UNL     1      56.139  44.091  66.384  0.00  0.00    +0.000 OA
ATOM     18  N   UNL     1      58.396  43.951  66.709  0.00  0.00    +0.000 N 
ATOM     19  C   UNL     1      57.094  43.726  67.058  0.00  0.00    +0.000 C 
ATOM     20  H   UNL     1      59.197  43.693  67.273  0.00  0.00    +0.000 HD
BRANCH  18  21
ATOM     21  O   UNL     1      58.640  44.666  65.516  0.00  0.00    +0.000 OA
ATOM     22  H   UNL     1      59.294  45.342  65.799  0.00  0.00    +0.000 HD
ENDBRANCH  18  21
ENDBRANCH  16  19
ENDBRANCH  14  15
ENDBRANCH   1  13
TORSDOF 6
ENDMDL
MODEL 7
REMARK VINA RESULT:      -4.6     56.591     59.718
REMARK  Name = Vorinostat.pdbqt.pdb
REMARK  6 active torsions:
REMARK  status: ('A' for Active; 'I' for Inactive)
REMARK    1  A    between atoms: C_1  and  C_2
REMARK    2  A    between atoms: C_3  and  C_4
REMARK    3  A    between atoms: C_5  and  C_8
REMARK    4  A    between atoms: N_7  and  O_10
REMARK    5  A    between atoms: C_12  and  C_15
REMARK    6  A    between atoms: N_14  and  C_17
REMARK                            x       y       z     vdW  Elec       q    Type
REMARK                         _______ _______ _______ _____ _____    ______ ____
ROOT
ATOM      1  C   UNL     1      13.425   3.169  96.003  0.00  0.00    +0.000 C 
ATOM      2  C   UNL     1      13.772   4.272  97.007  0.00  0.00    +0.000 C 
ENDROOT
BRANCH   2   5
ATOM      3  O   UNL     1      14.936   5.075  98.812  0.00  0.00    +0.000 OA
ATOM      4  N   UNL     1      13.401   6.483  97.766  0.00  0.00    +0.000 N 
ATOM      5  C   UNL     1      14.099   5.312  97.955  0.00  0.00    +0.000 C 
ATOM      6  H   UNL     1      12.737   6.510  97.001  0.00  0.00    +0.000 HD
BRANCH   4   7
ATOM      7  C   UNL     1      13.527   7.646  98.545  0.00  0.00    +0.000 A 
ATOM      8  C   UNL     1      14.561   8.529  98.232  0.00  0.00    +0.000 A 
ATOM      9  C   UNL     1      12.669   7.945  99.602  0.00  0.00    +0.000 A 
ATOM     10  C   UNL     1      14.736   9.699  98.969  0.00  0.00    +0.000 A 
ATOM     11  C   UNL     1      12.841   9.114 100.341  0.00  0.00    +0.000 A 
ATOM     12  C   UNL     1      13.875   9.991 100.023  0.00  0.00    +0.000 A 
ENDBRANCH   4   7
ENDBRANCH   2   5
BRANCH   1  13
ATOM     13  C   UNL     1      13.081   2.065  95.000  0.00  0.00    +0.000 C 
ATOM     14  C   UNL     1      12.737   0.961  93.995  0.00  0.00    +0.000 C 
BRANCH  14  15
ATOM     15  C   UNL     1      12.394  -0.143  92.991  0.00  0.00    +0.000 C 
ATOM     16  C   UNL     1      12.051  -1.247  91.986  0.00  0.00    +0.000 C 
BRANCH  16  19
ATOM     17  O   UNL     1      10.681  -2.253  90.415  0.00  0.00    +0.000 OA
ATOM     18  N   UNL     1      12.664  -3.275  90.905  0.00  0.00    +0.000 N 
ATOM     19  C   UNL     1      11.731  -2.286  91.043  0.00  0.00    +0.000 C 
ATOM     20  H   UNL     1      13.555  -3.298  91.386  0.00  0.00    +0.000 HD
BRANCH  18  21
ATOM     21  O   UNL     1      12.402  -4.295  89.965  0.00  0.00    +0.000 OA
ATOM     22  H   UNL     1      12.219  -3.790  89.143  0.00  0.00    +0.000 HD
ENDBRANCH  18  21
ENDBRANCH  16  19
ENDBRANCH  14  15
ENDBRANCH   1  13
TORSDOF 6
ENDMDL
MODEL 8
REMARK VINA RESULT:      -4.4     19.394     21.096
REMARK  Name = Vorinostat.pdbqt.pdb
REMARK  6 active torsions:
REMARK  status: ('A' for Active; 'I' for Inactive)
REMARK    1  A    between atoms: C_1  and  C_2
REMARK    2  A    between atoms: C_3  and  C_4
REMARK    3  A    between atoms: C_5  and  C_8
REMARK    4  A    between atoms: N_7  and  O_10
REMARK    5  A    between atoms: C_12  and  C_15
REMARK    6  A    between atoms: N_14  and  C_17
REMARK                            x       y       z     vdW  Elec       q    Type
REMARK                         _______ _______ _______ _____ _____    ______ ____
ROOT
ATOM      1  C   UNL     1      47.309  22.246  83.124  0.00  0.00    +0.000 C 
ATOM      2  C   UNL     1      48.207  21.038  82.841  0.00  0.00    +0.000 C 
ENDROOT
BRANCH   2   5
ATOM      3  O   UNL     1      50.150  19.851  83.110  0.00  0.00    +0.000 OA
ATOM      4  N   UNL     1      48.499  18.978  81.714  0.00  0.00    +0.000 N 
ATOM      5  C   UNL     1      49.054  19.899  82.573  0.00  0.00    +0.000 C 
ATOM      6  H   UNL     1      47.573  19.176  81.356  0.00  0.00    +0.000 HD
BRANCH   4   7
ATOM      7  C   UNL     1      49.108  17.785  81.289  0.00  0.00    +0.000 A 
ATOM      8  C   UNL     1      49.849  17.818  80.106  0.00  0.00    +0.000 A 
ATOM      9  C   UNL     1      49.001  16.588  81.995  0.00  0.00    +0.000 A 
ATOM     10  C   UNL     1      50.475  16.667  79.634  0.00  0.00    +0.000 A 
ATOM     11  C   UNL     1      49.627  15.435  81.526  0.00  0.00    +0.000 A 
ATOM     12  C   UNL     1      50.364  15.474  80.345  0.00  0.00    +0.000 A 
ENDBRANCH   4   7
ENDBRANCH   2   5
BRANCH   1  13
ATOM     13  C   UNL     1      46.412  23.454  83.406  0.00  0.00    +0.000 C 
ATOM     14  C   UNL     1      45.515  24.663  83.689  0.00  0.00    +0.000 C 
BRANCH  14  15
ATOM     15  C   UNL     1      44.618  25.871  83.972  0.00  0.00    +0.000 C 
ATOM     16  C   UNL     1      43.719  27.080  84.255  0.00  0.00    +0.000 C 
BRANCH  16  19
ATOM     17  O   UNL     1      42.084  28.195  85.456  0.00  0.00    +0.000 OA
ATOM     18  N   UNL     1      43.022  29.278  83.675  0.00  0.00    +0.000 N 
ATOM     19  C   UNL     1      42.874  28.213  84.519  0.00  0.00    +0.000 C 
ATOM     20  H   UNL     1      43.696  29.327  82.922  0.00  0.00    +0.000 HD
BRANCH  18  21
ATOM     21  O   UNL     1      42.233  30.423  83.922  0.00  0.00    +0.000 OA
ATOM     22  H   UNL     1      42.782  31.148  83.550  0.00  0.00    +0.000 HD
ENDBRANCH  18  21
ENDBRANCH  16  19
ENDBRANCH  14  15
ENDBRANCH   1  13
TORSDOF 6
ENDMDL
MODEL 9
REMARK VINA RESULT:      -4.4      6.145      6.276
REMARK  Name = Vorinostat.pdbqt.pdb
REMARK  6 active torsions:
REMARK  status: ('A' for Active; 'I' for Inactive)
REMARK    1  A    between atoms: C_1  and  C_2
REMARK    2  A    between atoms: C_3  and  C_4
REMARK    3  A    between atoms: C_5  and  C_8
REMARK    4  A    between atoms: N_7  and  O_10
REMARK    5  A    between atoms: C_12  and  C_15
REMARK    6  A    between atoms: N_14  and  C_17
REMARK                            x       y       z     vdW  Elec       q    Type
REMARK                         _______ _______ _______ _____ _____    ______ ____
ROOT
ATOM      1  C   UNL     1      61.720  37.679  75.289  0.00  0.00    +0.000 C 
ATOM      2  C   UNL     1      61.024  36.580  76.098  0.00  0.00    +0.000 C 
ENDROOT
BRANCH   2   5
ATOM      3  O   UNL     1      60.557  34.380  76.543  0.00  0.00    +0.000 OA
ATOM      4  N   UNL     1      59.580  36.016  77.886  0.00  0.00    +0.000 N 
ATOM      5  C   UNL     1      60.367  35.544  76.860  0.00  0.00    +0.000 C 
ATOM      6  H   UNL     1      59.533  37.020  78.011  0.00  0.00    +0.000 HD
BRANCH   4   7
ATOM      7  C   UNL     1      58.834  35.225  78.776  0.00  0.00    +0.000 A 
ATOM      8  C   UNL     1      57.484  35.017  78.488  0.00  0.00    +0.000 A 
ATOM      9  C   UNL     1      59.386  34.649  79.920  0.00  0.00    +0.000 A 
ATOM     10  C   UNL     1      56.694  34.242  79.334  0.00  0.00    +0.000 A 
ATOM     11  C   UNL     1      58.597  33.872  80.767  0.00  0.00    +0.000 A 
ATOM     12  C   UNL     1      57.252  33.669  80.474  0.00  0.00    +0.000 A 
ENDBRANCH   4   7
ENDBRANCH   2   5
BRANCH   1  13
ATOM     13  C   UNL     1      62.415  38.777  74.479  0.00  0.00    +0.000 C 
ATOM     14  C   UNL     1      63.111  39.874  73.668  0.00  0.00    +0.000 C 
BRANCH  14  15
ATOM     15  C   UNL     1      63.807  40.970  72.857  0.00  0.00    +0.000 C 
ATOM     16  C   UNL     1      64.502  42.068  72.046  0.00  0.00    +0.000 C 
BRANCH  16  19
ATOM     17  O   UNL     1      65.644  42.851  70.191  0.00  0.00    +0.000 OA
ATOM     18  N   UNL     1      65.176  44.341  71.858  0.00  0.00    +0.000 N 
ATOM     19  C   UNL     1      65.154  43.101  71.285  0.00  0.00    +0.000 C 
ATOM     20  H   UNL     1      64.742  44.575  72.742  0.00  0.00    +0.000 HD
BRANCH  18  21
ATOM     21  O   UNL     1      65.778  45.389  71.128  0.00  0.00    +0.000 OA
ATOM     22  H   UNL     1      65.339  46.188  71.495  0.00  0.00    +0.000 HD
ENDBRANCH  18  21
ENDBRANCH  16  19
ENDBRANCH  14  15
ENDBRANCH   1  13
TORSDOF 6
ENDMDL
