MODEL 1
REMARK VINA RESULT:      -6.3      0.000      0.000
REMARK  Name = 10074640_Masitinib.pdbqt.pdb
REMARK  6 active torsions:
REMARK  status: ('A' for Active; 'I' for Inactive)
REMARK    1  A    between atoms: C_1  and  N_22
REMARK    2  A    between atoms: C_2  and  N_9
REMARK    3  A    between atoms: C_12  and  C_16
REMARK    4  A    between atoms: C_23  and  C_30
REMARK    5  A    between atoms: C_25  and  C_31
REMARK    6  A    between atoms: C_31  and  N_32
REMARK                            x       y       z     vdW  Elec       q    Type
REMARK                         _______ _______ _______ _____ _____    ______ ____
ROOT
ATOM      1  C   UNL     1      44.756 241.326 328.579  0.00  0.00    +0.000 A 
ATOM      2  C   UNL     1      44.170 242.549 330.619  0.00  0.00    +0.000 A 
ATOM      3  C   UNL     1      44.903 241.561 329.947  0.00  0.00    +0.000 A 
ATOM      4  C   UNL     1      43.264 243.309 329.854  0.00  0.00    +0.000 A 
ATOM      5  C   UNL     1      43.868 242.111 327.847  0.00  0.00    +0.000 A 
ATOM      6  C   UNL     1      43.115 243.094 328.483  0.00  0.00    +0.000 A 
ATOM      7  C   UNL     1      42.422 244.389 330.503  0.00  0.00    +0.000 C 
ENDROOT
BRANCH   2   9
ATOM      8  S   UNL     1      44.193 242.601 334.655  0.00  0.00    +0.000 S 
ATOM      9  N   UNL     1      44.355 242.812 331.997  0.00  0.00    +0.000 N 
ATOM     10  N   UNL     1      43.520 240.801 332.955  0.00  0.00    +0.000 NA
ATOM     11  C   UNL     1      43.998 242.023 333.035  0.00  0.00    +0.000 A 
ATOM     12  C   UNL     1      43.253 240.285 334.209  0.00  0.00    +0.000 A 
ATOM     13  C   UNL     1      43.562 241.139 335.240  0.00  0.00    +0.000 A 
ATOM     14  H   UNL     1      44.828 243.693 332.185  0.00  0.00    +0.000 HD
BRANCH  12  16
ATOM     15  N   UNL     1      40.976 237.542 335.318  0.00  0.00    +0.000 NA
ATOM     16  C   UNL     1      42.714 238.956 334.390  0.00  0.00    +0.000 A 
ATOM     17  C   UNL     1      43.314 237.835 333.824  0.00  0.00    +0.000 A 
ATOM     18  C   UNL     1      41.557 238.753 335.129  0.00  0.00    +0.000 A 
ATOM     19  C   UNL     1      42.759 236.573 334.005  0.00  0.00    +0.000 A 
ATOM     20  C   UNL     1      41.598 236.484 334.754  0.00  0.00    +0.000 A 
ENDBRANCH  12  16
ENDBRANCH   2   9
BRANCH   1  22
ATOM     21  O   UNL     1      47.403 241.554 327.405  0.00  0.00    +0.000 OA
ATOM     22  N   UNL     1      45.487 240.338 327.890  0.00  0.00    +0.000 N 
ATOM     23  C   UNL     1      46.732 240.533 327.312  0.00  0.00    +0.000 C 
ATOM     24  H   UNL     1      45.065 239.417 327.852  0.00  0.00    +0.000 HD
BRANCH  23  30
ATOM     25  C   UNL     1      48.419 237.299 325.093  0.00  0.00    +0.000 A 
ATOM     26  C   UNL     1      47.063 237.271 325.410  0.00  0.00    +0.000 A 
ATOM     27  C   UNL     1      49.214 238.366 325.500  0.00  0.00    +0.000 A 
ATOM     28  C   UNL     1      46.500 238.318 326.136  0.00  0.00    +0.000 A 
ATOM     29  C   UNL     1      48.650 239.411 326.227  0.00  0.00    +0.000 A 
ATOM     30  C   UNL     1      47.291 239.390 326.549  0.00  0.00    +0.000 A 
BRANCH  25  31
ATOM     31  C   UNL     1      48.996 236.228 324.348  0.00  0.00    +0.000 C 
BRANCH  31  32
ATOM     32  N   UNL     1      49.583 235.133 323.586  0.00  0.00    +0.000 N 
ATOM     33  N   UNL     1      47.277 232.751 322.315  0.00  0.00    +0.000 N 
ATOM     34  C   UNL     1      49.037 233.870 324.156  0.00  0.00    +0.000 C 
ATOM     35  C   UNL     1      48.837 235.054 322.299  0.00  0.00    +0.000 C 
ATOM     36  C   UNL     1      48.033 232.822 323.595  0.00  0.00    +0.000 C 
ATOM     37  C   UNL     1      47.833 234.006 321.738  0.00  0.00    +0.000 C 
ATOM     38  C   UNL     1      47.837 231.646 321.549  0.00  0.00    +0.000 C 
ENDBRANCH  31  32
ENDBRANCH  25  31
ENDBRANCH  23  30
ENDBRANCH   1  22
TORSDOF 6
ENDMDL
MODEL 2
REMARK VINA RESULT:      -6.1     27.639     30.946
REMARK  Name = 10074640_Masitinib.pdbqt.pdb
REMARK  6 active torsions:
REMARK  status: ('A' for Active; 'I' for Inactive)
REMARK    1  A    between atoms: C_1  and  N_22
REMARK    2  A    between atoms: C_2  and  N_9
REMARK    3  A    between atoms: C_12  and  C_16
REMARK    4  A    between atoms: C_23  and  C_30
REMARK    5  A    between atoms: C_25  and  C_31
REMARK    6  A    between atoms: C_31  and  N_32
REMARK                            x       y       z     vdW  Elec       q    Type
REMARK                         _______ _______ _______ _____ _____    ______ ____
ROOT
ATOM      1  C   UNL     1      69.131 220.573 338.089  0.00  0.00    +0.000 A 
ATOM      2  C   UNL     1      70.365 219.660 339.999  0.00  0.00    +0.000 A 
ATOM      3  C   UNL     1      69.581 219.492 338.849  0.00  0.00    +0.000 A 
ATOM      4  C   UNL     1      70.688 220.981 340.368  0.00  0.00    +0.000 A 
ATOM      5  C   UNL     1      69.489 221.865 338.469  0.00  0.00    +0.000 A 
ATOM      6  C   UNL     1      70.258 222.071 339.611  0.00  0.00    +0.000 A 
ATOM      7  C   UNL     1      71.522 221.254 341.603  0.00  0.00    +0.000 C 
ENDROOT
BRANCH   2   9
ATOM      8  S   UNL     1      70.935 216.449 342.376  0.00  0.00    +0.000 S 
ATOM      9  N   UNL     1      70.853 218.559 340.741  0.00  0.00    +0.000 N 
ATOM     10  N   UNL     1      68.817 217.529 341.411  0.00  0.00    +0.000 NA
ATOM     11  C   UNL     1      70.126 217.641 341.417  0.00  0.00    +0.000 A 
ATOM     12  C   UNL     1      68.401 216.487 342.218  0.00  0.00    +0.000 A 
ATOM     13  C   UNL     1      69.430 215.801 342.817  0.00  0.00    +0.000 A 
ATOM     14  H   UNL     1      71.867 218.472 340.723  0.00  0.00    +0.000 HD
BRANCH  12  16
ATOM     15  N   UNL     1      65.184 215.573 343.878  0.00  0.00    +0.000 NA
ATOM     16  C   UNL     1      67.003 216.160 342.386  0.00  0.00    +0.000 A 
ATOM     17  C   UNL     1      66.116 216.149 341.312  0.00  0.00    +0.000 A 
ATOM     18  C   UNL     1      66.488 215.860 343.639  0.00  0.00    +0.000 A 
ATOM     19  C   UNL     1      64.774 215.846 341.512  0.00  0.00    +0.000 A 
ATOM     20  C   UNL     1      64.364 215.569 342.805  0.00  0.00    +0.000 A 
ENDBRANCH  12  16
ENDBRANCH   2   9
BRANCH   1  22
ATOM     21  O   UNL     1      66.268 220.115 337.922  0.00  0.00    +0.000 OA
ATOM     22  N   UNL     1      68.344 220.419 336.931  0.00  0.00    +0.000 N 
ATOM     23  C   UNL     1      66.982 220.155 336.928  0.00  0.00    +0.000 C 
ATOM     24  H   UNL     1      68.823 220.542 336.046  0.00  0.00    +0.000 HD
BRANCH  23  30
ATOM     25  C   UNL     1      65.229 219.595 333.075  0.00  0.00    +0.000 A 
ATOM     26  C   UNL     1      64.690 218.925 334.171  0.00  0.00    +0.000 A 
ATOM     27  C   UNL     1      66.329 220.433 333.235  0.00  0.00    +0.000 A 
ATOM     28  C   UNL     1      65.254 219.095 335.433  0.00  0.00    +0.000 A 
ATOM     29  C   UNL     1      66.892 220.602 334.498  0.00  0.00    +0.000 A 
ATOM     30  C   UNL     1      66.358 219.932 335.601  0.00  0.00    +0.000 A 
BRANCH  25  31
ATOM     31  C   UNL     1      64.651 219.423 331.783  0.00  0.00    +0.000 C 
BRANCH  31  32
ATOM     32  N   UNL     1      64.059 219.248 330.462  0.00  0.00    +0.000 N 
ATOM     33  N   UNL     1      62.855 222.214 328.926  0.00  0.00    +0.000 N 
ATOM     34  C   UNL     1      62.730 219.920 330.493  0.00  0.00    +0.000 C 
ATOM     35  C   UNL     1      64.710 220.241 329.562  0.00  0.00    +0.000 C 
ATOM     36  C   UNL     1      62.200 221.214 329.813  0.00  0.00    +0.000 C 
ATOM     37  C   UNL     1      64.180 221.536 328.883  0.00  0.00    +0.000 C 
ATOM     38  C   UNL     1      62.259 222.069 327.606  0.00  0.00    +0.000 C 
ENDBRANCH  31  32
ENDBRANCH  25  31
ENDBRANCH  23  30
ENDBRANCH   1  22
TORSDOF 6
ENDMDL
MODEL 3
REMARK VINA RESULT:      -6.1      7.485     11.351
REMARK  Name = 10074640_Masitinib.pdbqt.pdb
REMARK  6 active torsions:
REMARK  status: ('A' for Active; 'I' for Inactive)
REMARK    1  A    between atoms: C_1  and  N_22
REMARK    2  A    between atoms: C_2  and  N_9
REMARK    3  A    between atoms: C_12  and  C_16
REMARK    4  A    between atoms: C_23  and  C_30
REMARK    5  A    between atoms: C_25  and  C_31
REMARK    6  A    between atoms: C_31  and  N_32
REMARK                            x       y       z     vdW  Elec       q    Type
REMARK                         _______ _______ _______ _____ _____    ______ ____
ROOT
ATOM      1  C   UNL     1      50.934 242.400 325.711  0.00  0.00    +0.000 A 
ATOM      2  C   UNL     1      51.519 244.778 325.755  0.00  0.00    +0.000 A 
ATOM      3  C   UNL     1      50.896 243.678 325.150  0.00  0.00    +0.000 A 
ATOM      4  C   UNL     1      52.196 244.546 326.968  0.00  0.00    +0.000 A 
ATOM      5  C   UNL     1      51.592 242.210 326.924  0.00  0.00    +0.000 A 
ATOM      6  C   UNL     1      52.231 243.278 327.548  0.00  0.00    +0.000 A 
ATOM      7  C   UNL     1      52.907 245.678 327.683  0.00  0.00    +0.000 C 
ENDROOT
BRANCH   2   9
ATOM      8  S   UNL     1      52.110 248.328 323.927  0.00  0.00    +0.000 S 
ATOM      9  N   UNL     1      51.442 246.079 325.204  0.00  0.00    +0.000 N 
ATOM     10  N   UNL     1      53.380 246.100 323.825  0.00  0.00    +0.000 NA
ATOM     11  C   UNL     1      52.331 246.671 324.375  0.00  0.00    +0.000 A 
ATOM     12  C   UNL     1      54.079 246.995 323.037  0.00  0.00    +0.000 A 
ATOM     13  C   UNL     1      53.522 248.249 322.989  0.00  0.00    +0.000 A 
ATOM     14  H   UNL     1      50.600 246.586 325.470  0.00  0.00    +0.000 HD
BRANCH  12  16
ATOM     15  N   UNL     1      56.514 244.900 321.132  0.00  0.00    +0.000 NA
ATOM     16  C   UNL     1      55.279 246.612 322.326  0.00  0.00    +0.000 A 
ATOM     17  C   UNL     1      56.315 247.512 322.093  0.00  0.00    +0.000 A 
ATOM     18  C   UNL     1      55.432 245.324 321.833  0.00  0.00    +0.000 A 
ATOM     19  C   UNL     1      57.447 247.114 321.391  0.00  0.00    +0.000 A 
ATOM     20  C   UNL     1      57.494 245.807 320.936  0.00  0.00    +0.000 A 
ENDBRANCH  12  16
ENDBRANCH   2   9
BRANCH   1  22
ATOM     21  O   UNL     1      49.021 240.570 326.908  0.00  0.00    +0.000 OA
ATOM     22  N   UNL     1      50.311 241.285 325.115  0.00  0.00    +0.000 N 
ATOM     23  C   UNL     1      49.439 240.424 325.765  0.00  0.00    +0.000 C 
ATOM     24  H   UNL     1      50.506 241.138 324.132  0.00  0.00    +0.000 HD
BRANCH  23  30
ATOM     25  C   UNL     1      48.149 237.000 323.564  0.00  0.00    +0.000 A 
ATOM     26  C   UNL     1      47.746 238.267 323.148  0.00  0.00    +0.000 A 
ATOM     27  C   UNL     1      48.959 236.854 324.686  0.00  0.00    +0.000 A 
ATOM     28  C   UNL     1      48.156 239.393 323.859  0.00  0.00    +0.000 A 
ATOM     29  C   UNL     1      49.367 237.980 325.396  0.00  0.00    +0.000 A 
ATOM     30  C   UNL     1      48.966 239.254 324.986  0.00  0.00    +0.000 A 
BRANCH  25  31
ATOM     31  C   UNL     1      47.730 235.848 322.836  0.00  0.00    +0.000 C 
BRANCH  31  32
ATOM     32  N   UNL     1      47.301 234.669 322.094  0.00  0.00    +0.000 N 
ATOM     33  N   UNL     1      46.014 232.011 324.065  0.00  0.00    +0.000 N 
ATOM     34  C   UNL     1      47.955 233.494 322.735  0.00  0.00    +0.000 C 
ATOM     35  C   UNL     1      45.922 234.346 322.557  0.00  0.00    +0.000 C 
ATOM     36  C   UNL     1      47.389 232.324 323.590  0.00  0.00    +0.000 C 
ATOM     37  C   UNL     1      45.357 233.177 323.413  0.00  0.00    +0.000 C 
ATOM     38  C   UNL     1      45.577 230.821 323.349  0.00  0.00    +0.000 C 
ENDBRANCH  31  32
ENDBRANCH  25  31
ENDBRANCH  23  30
ENDBRANCH   1  22
TORSDOF 6
ENDMDL
MODEL 4
REMARK VINA RESULT:      -6.0      8.345     14.238
REMARK  Name = 10074640_Masitinib.pdbqt.pdb
REMARK  6 active torsions:
REMARK  status: ('A' for Active; 'I' for Inactive)
REMARK    1  A    between atoms: C_1  and  N_22
REMARK    2  A    between atoms: C_2  and  N_9
REMARK    3  A    between atoms: C_12  and  C_16
REMARK    4  A    between atoms: C_23  and  C_30
REMARK    5  A    between atoms: C_25  and  C_31
REMARK    6  A    between atoms: C_31  and  N_32
REMARK                            x       y       z     vdW  Elec       q    Type
REMARK                         _______ _______ _______ _____ _____    ______ ____
ROOT
ATOM      1  C   UNL     1      42.766 233.614 342.186  0.00  0.00    +0.000 A 
ATOM      2  C   UNL     1      43.711 233.361 344.431  0.00  0.00    +0.000 A 
ATOM      3  C   UNL     1      43.670 233.991 343.180  0.00  0.00    +0.000 A 
ATOM      4  C   UNL     1      42.794 232.315 344.654  0.00  0.00    +0.000 A 
ATOM      5  C   UNL     1      41.857 232.592 342.447  0.00  0.00    +0.000 A 
ATOM      6  C   UNL     1      41.875 231.936 343.674  0.00  0.00    +0.000 A 
ATOM      7  C   UNL     1      42.777 231.572 345.974  0.00  0.00    +0.000 C 
ENDROOT
BRANCH   2   9
ATOM      8  S   UNL     1      46.361 235.235 346.830  0.00  0.00    +0.000 S 
ATOM      9  N   UNL     1      44.600 233.776 345.451  0.00  0.00    +0.000 N 
ATOM     10  N   UNL     1      44.963 236.045 344.837  0.00  0.00    +0.000 NA
ATOM     11  C   UNL     1      45.195 234.983 345.576  0.00  0.00    +0.000 A 
ATOM     12  C   UNL     1      45.749 237.110 345.231  0.00  0.00    +0.000 A 
ATOM     13  C   UNL     1      46.567 236.834 346.300  0.00  0.00    +0.000 A 
ATOM     14  H   UNL     1      44.771 233.064 346.159  0.00  0.00    +0.000 HD
BRANCH  12  16
ATOM     15  N   UNL     1      44.439 240.426 344.121  0.00  0.00    +0.000 NA
ATOM     16  C   UNL     1      45.685 238.394 344.570  0.00  0.00    +0.000 A 
ATOM     17  C   UNL     1      46.742 238.883 343.807  0.00  0.00    +0.000 A 
ATOM     18  C   UNL     1      44.561 239.199 344.687  0.00  0.00    +0.000 A 
ATOM     19  C   UNL     1      46.653 240.130 343.199  0.00  0.00    +0.000 A 
ATOM     20  C   UNL     1      45.488 240.854 343.388  0.00  0.00    +0.000 A 
ENDBRANCH  12  16
ENDBRANCH   2   9
BRANCH   1  22
ATOM     21  O   UNL     1      41.199 235.932 341.405  0.00  0.00    +0.000 OA
ATOM     22  N   UNL     1      42.713 234.240 340.924  0.00  0.00    +0.000 N 
ATOM     23  C   UNL     1      41.902 235.320 340.610  0.00  0.00    +0.000 C 
ATOM     24  H   UNL     1      43.343 233.877 340.218  0.00  0.00    +0.000 HD
BRANCH  23  30
ATOM     25  C   UNL     1      42.048 236.669 336.561  0.00  0.00    +0.000 A 
ATOM     26  C   UNL     1      40.857 236.149 337.061  0.00  0.00    +0.000 A 
ATOM     27  C   UNL     1      43.177 236.743 337.371  0.00  0.00    +0.000 A 
ATOM     28  C   UNL     1      40.795 235.702 338.380  0.00  0.00    +0.000 A 
ATOM     29  C   UNL     1      43.115 236.295 338.688  0.00  0.00    +0.000 A 
ATOM     30  C   UNL     1      41.924 235.771 339.197  0.00  0.00    +0.000 A 
BRANCH  25  31
ATOM     31  C   UNL     1      42.111 237.128 335.212  0.00  0.00    +0.000 C 
BRANCH  31  32
ATOM     32  N   UNL     1      42.175 237.595 333.833  0.00  0.00    +0.000 N 
ATOM     33  N   UNL     1      42.393 241.115 333.423  0.00  0.00    +0.000 N 
ATOM     34  C   UNL     1      41.133 238.650 333.686  0.00  0.00    +0.000 C 
ATOM     35  C   UNL     1      43.340 238.520 333.743  0.00  0.00    +0.000 C 
ATOM     36  C   UNL     1      41.229 240.191 333.497  0.00  0.00    +0.000 C 
ATOM     37  C   UNL     1      43.435 240.061 333.556  0.00  0.00    +0.000 C 
ATOM     38  C   UNL     1      42.458 241.609 332.055  0.00  0.00    +0.000 C 
ENDBRANCH  31  32
ENDBRANCH  25  31
ENDBRANCH  23  30
ENDBRANCH   1  22
TORSDOF 6
ENDMDL
MODEL 5
REMARK VINA RESULT:      -6.0     19.321     22.494
REMARK  Name = 10074640_Masitinib.pdbqt.pdb
REMARK  6 active torsions:
REMARK  status: ('A' for Active; 'I' for Inactive)
REMARK    1  A    between atoms: C_1  and  N_22
REMARK    2  A    between atoms: C_2  and  N_9
REMARK    3  A    between atoms: C_12  and  C_16
REMARK    4  A    between atoms: C_23  and  C_30
REMARK    5  A    between atoms: C_25  and  C_31
REMARK    6  A    between atoms: C_31  and  N_32
REMARK                            x       y       z     vdW  Elec       q    Type
REMARK                         _______ _______ _______ _____ _____    ______ ____
ROOT
ATOM      1  C   UNL     1      48.053 237.223 347.310  0.00  0.00    +0.000 A 
ATOM      2  C   UNL     1      46.443 235.431 346.870  0.00  0.00    +0.000 A 
ATOM      3  C   UNL     1      47.756 235.883 347.057  0.00  0.00    +0.000 A 
ATOM      4  C   UNL     1      45.416 236.391 346.946  0.00  0.00    +0.000 A 
ATOM      5  C   UNL     1      47.012 238.144 347.402  0.00  0.00    +0.000 A 
ATOM      6  C   UNL     1      45.696 237.732 347.211  0.00  0.00    +0.000 A 
ATOM      7  C   UNL     1      43.968 235.990 346.745  0.00  0.00    +0.000 C 
ENDROOT
BRANCH   2   9
ATOM      8  S   UNL     1      45.557 231.502 347.128  0.00  0.00    +0.000 S 
ATOM      9  N   UNL     1      46.145 234.064 346.657  0.00  0.00    +0.000 N 
ATOM     10  N   UNL     1      45.419 233.418 348.828  0.00  0.00    +0.000 NA
ATOM     11  C   UNL     1      45.735 233.163 347.578  0.00  0.00    +0.000 A 
ATOM     12  C   UNL     1      45.049 232.266 349.495  0.00  0.00    +0.000 A 
ATOM     13  C   UNL     1      45.073 231.137 348.713  0.00  0.00    +0.000 A 
ATOM     14  H   UNL     1      46.243 233.771 345.688  0.00  0.00    +0.000 HD
BRANCH  12  16
ATOM     15  N   UNL     1      44.129 231.029 352.896  0.00  0.00    +0.000 NA
ATOM     16  C   UNL     1      44.660 232.280 350.888  0.00  0.00    +0.000 A 
ATOM     17  C   UNL     1      44.482 233.469 351.590  0.00  0.00    +0.000 A 
ATOM     18  C   UNL     1      44.465 231.095 351.583  0.00  0.00    +0.000 A 
ATOM     19  C   UNL     1      44.124 233.445 352.934  0.00  0.00    +0.000 A 
ATOM     20  C   UNL     1      43.963 232.207 353.533  0.00  0.00    +0.000 A 
ENDBRANCH  12  16
ENDBRANCH   2   9
BRANCH   1  22
ATOM     21  O   UNL     1      49.358 237.916 349.811  0.00  0.00    +0.000 OA
ATOM     22  N   UNL     1      49.368 237.692 347.501  0.00  0.00    +0.000 N 
ATOM     23  C   UNL     1      49.911 238.049 348.726  0.00  0.00    +0.000 C 
ATOM     24  H   UNL     1      49.952 237.736 346.673  0.00  0.00    +0.000 HD
BRANCH  23  30
ATOM     25  C   UNL     1      53.856 239.682 348.748  0.00  0.00    +0.000 A 
ATOM     26  C   UNL     1      53.187 239.538 347.535  0.00  0.00    +0.000 A 
ATOM     27  C   UNL     1      53.247 239.294 349.938  0.00  0.00    +0.000 A 
ATOM     28  C   UNL     1      51.901 239.004 347.513  0.00  0.00    +0.000 A 
ATOM     29  C   UNL     1      51.961 238.759 349.913  0.00  0.00    +0.000 A 
ATOM     30  C   UNL     1      51.284 238.610 348.700  0.00  0.00    +0.000 A 
BRANCH  25  31
ATOM     31  C   UNL     1      55.173 240.231 348.772  0.00  0.00    +0.000 C 
BRANCH  31  32
ATOM     32  N   UNL     1      56.517 240.794 348.796  0.00  0.00    +0.000 N 
ATOM     33  N   UNL     1      57.343 242.644 351.712  0.00  0.00    +0.000 N 
ATOM     34  C   UNL     1      56.374 242.237 349.137  0.00  0.00    +0.000 C 
ATOM     35  C   UNL     1      57.130 240.393 350.093  0.00  0.00    +0.000 C 
ATOM     36  C   UNL     1      56.745 243.049 350.411  0.00  0.00    +0.000 C 
ATOM     37  C   UNL     1      57.500 241.204 351.367  0.00  0.00    +0.000 C 
ATOM     38  C   UNL     1      58.681 243.218 351.763  0.00  0.00    +0.000 C 
ENDBRANCH  31  32
ENDBRANCH  25  31
ENDBRANCH  23  30
ENDBRANCH   1  22
TORSDOF 6
ENDMDL
MODEL 6
REMARK VINA RESULT:      -6.0      7.698     11.515
REMARK  Name = 10074640_Masitinib.pdbqt.pdb
REMARK  6 active torsions:
REMARK  status: ('A' for Active; 'I' for Inactive)
REMARK    1  A    between atoms: C_1  and  N_22
REMARK    2  A    between atoms: C_2  and  N_9
REMARK    3  A    between atoms: C_12  and  C_16
REMARK    4  A    between atoms: C_23  and  C_30
REMARK    5  A    between atoms: C_25  and  C_31
REMARK    6  A    between atoms: C_31  and  N_32
REMARK                            x       y       z     vdW  Elec       q    Type
REMARK                         _______ _______ _______ _____ _____    ______ ____
ROOT
ATOM      1  C   UNL     1      48.467 244.183 332.750  0.00  0.00    +0.000 A 
ATOM      2  C   UNL     1      49.588 246.361 332.771  0.00  0.00    +0.000 A 
ATOM      3  C   UNL     1      48.586 245.491 333.222  0.00  0.00    +0.000 A 
ATOM      4  C   UNL     1      50.486 245.860 331.807  0.00  0.00    +0.000 A 
ATOM      5  C   UNL     1      49.386 243.712 331.815  0.00  0.00    +0.000 A 
ATOM      6  C   UNL     1      50.389 244.551 331.336  0.00  0.00    +0.000 A 
ATOM      7  C   UNL     1      51.593 246.737 331.256  0.00  0.00    +0.000 C 
ENDROOT
BRANCH   2   9
ATOM      8  S   UNL     1      49.893 249.710 335.002  0.00  0.00    +0.000 S 
ATOM      9  N   UNL     1      49.731 247.671 333.284  0.00  0.00    +0.000 N 
ATOM     10  N   UNL     1      50.026 247.218 335.601  0.00  0.00    +0.000 NA
ATOM     11  C   UNL     1      49.871 248.031 334.580  0.00  0.00    +0.000 A 
ATOM     12  C   UNL     1      50.132 247.919 336.787  0.00  0.00    +0.000 A 
ATOM     13  C   UNL     1      50.077 249.283 336.635  0.00  0.00    +0.000 A 
ATOM     14  H   UNL     1      49.743 248.392 332.566  0.00  0.00    +0.000 HD
BRANCH  12  16
ATOM     15  N   UNL     1      51.792 246.175 339.641  0.00  0.00    +0.000 NA
ATOM     16  C   UNL     1      50.303 247.250 338.057  0.00  0.00    +0.000 A 
ATOM     17  C   UNL     1      49.242 247.061 338.937  0.00  0.00    +0.000 A 
ATOM     18  C   UNL     1      51.549 246.784 338.453  0.00  0.00    +0.000 A 
ATOM     19  C   UNL     1      49.446 246.429 340.159  0.00  0.00    +0.000 A 
ATOM     20  C   UNL     1      50.731 246.010 340.458  0.00  0.00    +0.000 A 
ENDBRANCH  12  16
ENDBRANCH   2   9
BRANCH   1  22
ATOM     21  O   UNL     1      45.687 244.064 331.917  0.00  0.00    +0.000 OA
ATOM     22  N   UNL     1      47.465 243.298 333.196  0.00  0.00    +0.000 N 
ATOM     23  C   UNL     1      46.140 243.330 332.786  0.00  0.00    +0.000 C 
ATOM     24  H   UNL     1      47.763 242.575 333.841  0.00  0.00    +0.000 HD
BRANCH  23  30
ATOM     25  C   UNL     1      43.502 240.511 334.610  0.00  0.00    +0.000 A 
ATOM     26  C   UNL     1      43.601 241.794 335.144  0.00  0.00    +0.000 A 
ATOM     27  C   UNL     1      44.257 240.153 333.497  0.00  0.00    +0.000 A 
ATOM     28  C   UNL     1      44.461 242.723 334.562  0.00  0.00    +0.000 A 
ATOM     29  C   UNL     1      45.117 241.083 332.917  0.00  0.00    +0.000 A 
ATOM     30  C   UNL     1      45.223 242.371 333.448  0.00  0.00    +0.000 A 
BRANCH  25  31
ATOM     31  C   UNL     1      42.621 239.560 335.205  0.00  0.00    +0.000 C 
BRANCH  31  32
ATOM     32  N   UNL     1      41.721 238.588 335.811  0.00  0.00    +0.000 N 
ATOM     33  N   UNL     1      42.880 237.103 338.820  0.00  0.00    +0.000 N 
ATOM     34  C   UNL     1      42.524 237.361 336.074  0.00  0.00    +0.000 C 
ATOM     35  C   UNL     1      41.564 238.976 337.241  0.00  0.00    +0.000 C 
ATOM     36  C   UNL     1      43.024 236.706 337.393  0.00  0.00    +0.000 C 
ATOM     37  C   UNL     1      42.065 238.321 338.559  0.00  0.00    +0.000 C 
ATOM     38  C   UNL     1      41.999 236.127 339.447  0.00  0.00    +0.000 C 
ENDBRANCH  31  32
ENDBRANCH  25  31
ENDBRANCH  23  30
ENDBRANCH   1  22
TORSDOF 6
ENDMDL
MODEL 7
REMARK VINA RESULT:      -6.0     18.315     22.197
REMARK  Name = 10074640_Masitinib.pdbqt.pdb
REMARK  6 active torsions:
REMARK  status: ('A' for Active; 'I' for Inactive)
REMARK    1  A    between atoms: C_1  and  N_22
REMARK    2  A    between atoms: C_2  and  N_9
REMARK    3  A    between atoms: C_12  and  C_16
REMARK    4  A    between atoms: C_23  and  C_30
REMARK    5  A    between atoms: C_25  and  C_31
REMARK    6  A    between atoms: C_31  and  N_32
REMARK                            x       y       z     vdW  Elec       q    Type
REMARK                         _______ _______ _______ _____ _____    ______ ____
ROOT
ATOM      1  C   UNL     1      46.710 235.274 346.693  0.00  0.00    +0.000 A 
ATOM      2  C   UNL     1      45.671 233.139 346.089  0.00  0.00    +0.000 A 
ATOM      3  C   UNL     1      46.667 233.879 346.740  0.00  0.00    +0.000 A 
ATOM      4  C   UNL     1      44.698 233.863 345.372  0.00  0.00    +0.000 A 
ATOM      5  C   UNL     1      45.718 235.960 345.996  0.00  0.00    +0.000 A 
ATOM      6  C   UNL     1      44.719 235.258 345.327  0.00  0.00    +0.000 A 
ATOM      7  C   UNL     1      43.592 233.142 344.629  0.00  0.00    +0.000 C 
ENDROOT
BRANCH   2   9
ATOM      8  S   UNL     1      45.510 229.260 347.189  0.00  0.00    +0.000 S 
ATOM      9  N   UNL     1      45.609 231.728 346.175  0.00  0.00    +0.000 N 
ATOM     10  N   UNL     1      45.124 231.440 348.486  0.00  0.00    +0.000 NA
ATOM     11  C   UNL     1      45.415 230.985 347.287  0.00  0.00    +0.000 A 
ATOM     12  C   UNL     1      45.001 230.407 349.396  0.00  0.00    +0.000 A 
ATOM     13  C   UNL     1      45.183 229.159 348.851  0.00  0.00    +0.000 A 
ATOM     14  H   UNL     1      45.706 231.259 345.277  0.00  0.00    +0.000 HD
BRANCH  12  16
ATOM     15  N   UNL     1      44.005 232.211 352.510  0.00  0.00    +0.000 NA
ATOM     16  C   UNL     1      44.690 230.648 350.787  0.00  0.00    +0.000 A 
ATOM     17  C   UNL     1      44.714 229.627 351.733  0.00  0.00    +0.000 A 
ATOM     18  C   UNL     1      44.337 231.915 351.228  0.00  0.00    +0.000 A 
ATOM     19  C   UNL     1      44.393 229.890 353.060  0.00  0.00    +0.000 A 
ATOM     20  C   UNL     1      44.047 231.190 353.391  0.00  0.00    +0.000 A 
ENDBRANCH  12  16
ENDBRANCH   2   9
BRANCH   1  22
ATOM     21  O   UNL     1      46.351 237.388 348.653  0.00  0.00    +0.000 OA
ATOM     22  N   UNL     1      47.704 236.031 347.344  0.00  0.00    +0.000 N 
ATOM     23  C   UNL     1      47.456 237.062 348.238  0.00  0.00    +0.000 C 
ATOM     24  H   UNL     1      48.664 235.766 347.153  0.00  0.00    +0.000 HD
BRANCH  23  30
ATOM     25  C   UNL     1      50.810 239.237 349.739  0.00  0.00    +0.000 A 
ATOM     26  C   UNL     1      50.963 238.455 348.597  0.00  0.00    +0.000 A 
ATOM     27  C   UNL     1      49.579 239.304 350.385  0.00  0.00    +0.000 A 
ATOM     28  C   UNL     1      49.878 237.737 348.098  0.00  0.00    +0.000 A 
ATOM     29  C   UNL     1      48.496 238.585 349.886  0.00  0.00    +0.000 A 
ATOM     30  C   UNL     1      48.642 237.797 348.741  0.00  0.00    +0.000 A 
BRANCH  25  31
ATOM     31  C   UNL     1      51.920 239.973 350.250  0.00  0.00    +0.000 C 
BRANCH  31  32
ATOM     32  N   UNL     1      53.055 240.726 350.769  0.00  0.00    +0.000 N 
ATOM     33  N   UNL     1      56.052 240.463 348.884  0.00  0.00    +0.000 N 
ATOM     34  C   UNL     1      54.202 239.780 350.846  0.00  0.00    +0.000 C 
ATOM     35  C   UNL     1      53.595 241.528 349.636  0.00  0.00    +0.000 C 
ATOM     36  C   UNL     1      55.519 239.670 350.026  0.00  0.00    +0.000 C 
ATOM     37  C   UNL     1      54.912 241.418 348.815  0.00  0.00    +0.000 C 
ATOM     38  C   UNL     1      57.201 241.206 349.380  0.00  0.00    +0.000 C 
ENDBRANCH  31  32
ENDBRANCH  25  31
ENDBRANCH  23  30
ENDBRANCH   1  22
TORSDOF 6
ENDMDL
MODEL 8
REMARK VINA RESULT:      -5.9      5.938      7.125
REMARK  Name = 10074640_Masitinib.pdbqt.pdb
REMARK  6 active torsions:
REMARK  status: ('A' for Active; 'I' for Inactive)
REMARK    1  A    between atoms: C_1  and  N_22
REMARK    2  A    between atoms: C_2  and  N_9
REMARK    3  A    between atoms: C_12  and  C_16
REMARK    4  A    between atoms: C_23  and  C_30
REMARK    5  A    between atoms: C_25  and  C_31
REMARK    6  A    between atoms: C_31  and  N_32
REMARK                            x       y       z     vdW  Elec       q    Type
REMARK                         _______ _______ _______ _____ _____    ______ ____
ROOT
ATOM      1  C   UNL     1      44.489 242.624 333.127  0.00  0.00    +0.000 A 
ATOM      2  C   UNL     1      43.130 241.385 334.745  0.00  0.00    +0.000 A 
ATOM      3  C   UNL     1      44.335 241.599 334.062  0.00  0.00    +0.000 A 
ATOM      4  C   UNL     1      42.061 242.254 334.449  0.00  0.00    +0.000 A 
ATOM      5  C   UNL     1      43.419 243.481 332.876  0.00  0.00    +0.000 A 
ATOM      6  C   UNL     1      42.204 243.291 333.527  0.00  0.00    +0.000 A 
ATOM      7  C   UNL     1      40.719 242.087 335.133  0.00  0.00    +0.000 C 
ENDROOT
BRANCH   2   9
ATOM      8  S   UNL     1      42.301 238.082 336.911  0.00  0.00    +0.000 S 
ATOM      9  N   UNL     1      42.992 240.372 335.723  0.00  0.00    +0.000 N 
ATOM     10  N   UNL     1      42.195 238.568 334.393  0.00  0.00    +0.000 NA
ATOM     11  C   UNL     1      42.512 239.121 335.543  0.00  0.00    +0.000 A 
ATOM     12  C   UNL     1      41.729 237.280 334.571  0.00  0.00    +0.000 A 
ATOM     13  C   UNL     1      41.721 236.865 335.880  0.00  0.00    +0.000 A 
ATOM     14  H   UNL     1      43.319 240.649 336.646  0.00  0.00    +0.000 HD
BRANCH  12  16
ATOM     15  N   UNL     1      40.151 236.296 331.333  0.00  0.00    +0.000 NA
ATOM     16  C   UNL     1      41.309 236.458 333.457  0.00  0.00    +0.000 A 
ATOM     17  C   UNL     1      41.649 235.112 333.366  0.00  0.00    +0.000 A 
ATOM     18  C   UNL     1      40.556 236.995 332.422  0.00  0.00    +0.000 A 
ATOM     19  C   UNL     1      41.242 234.356 332.273  0.00  0.00    +0.000 A 
ATOM     20  C   UNL     1      40.502 234.993 331.292  0.00  0.00    +0.000 A 
ENDBRANCH  12  16
ENDBRANCH   2   9
BRANCH   1  22
ATOM     21  O   UNL     1      46.509 244.640 333.670  0.00  0.00    +0.000 OA
ATOM     22  N   UNL     1      45.695 242.852 332.434  0.00  0.00    +0.000 N 
ATOM     23  C   UNL     1      46.594 243.869 332.722  0.00  0.00    +0.000 C 
ATOM     24  H   UNL     1      45.915 242.196 331.694  0.00  0.00    +0.000 HD
BRANCH  23  30
ATOM     25  C   UNL     1      49.885 244.214 330.025  0.00  0.00    +0.000 A 
ATOM     26  C   UNL     1      50.136 244.060 331.386  0.00  0.00    +0.000 A 
ATOM     27  C   UNL     1      48.577 244.258 329.551  0.00  0.00    +0.000 A 
ATOM     28  C   UNL     1      49.071 243.950 332.278  0.00  0.00    +0.000 A 
ATOM     29  C   UNL     1      47.514 244.149 330.445  0.00  0.00    +0.000 A 
ATOM     30  C   UNL     1      47.758 243.996 331.812  0.00  0.00    +0.000 A 
BRANCH  25  31
ATOM     31  C   UNL     1      50.975 244.325 329.111  0.00  0.00    +0.000 C 
BRANCH  31  32
ATOM     32  N   UNL     1      52.087 244.437 328.176  0.00  0.00    +0.000 N 
ATOM     33  N   UNL     1      51.577 242.913 325.010  0.00  0.00    +0.000 N 
ATOM     34  C   UNL     1      52.367 243.063 327.672  0.00  0.00    +0.000 C 
ATOM     35  C   UNL     1      51.526 244.955 326.897  0.00  0.00    +0.000 C 
ATOM     36  C   UNL     1      52.152 242.398 326.282  0.00  0.00    +0.000 C 
ATOM     37  C   UNL     1      51.310 244.290 325.508  0.00  0.00    +0.000 C 
ATOM     38  C   UNL     1      52.673 243.010 324.055  0.00  0.00    +0.000 C 
ENDBRANCH  31  32
ENDBRANCH  25  31
ENDBRANCH  23  30
ENDBRANCH   1  22
TORSDOF 6
ENDMDL
MODEL 9
REMARK VINA RESULT:      -5.8      9.101     11.968
REMARK  Name = 10074640_Masitinib.pdbqt.pdb
REMARK  6 active torsions:
REMARK  status: ('A' for Active; 'I' for Inactive)
REMARK    1  A    between atoms: C_1  and  N_22
REMARK    2  A    between atoms: C_2  and  N_9
REMARK    3  A    between atoms: C_12  and  C_16
REMARK    4  A    between atoms: C_23  and  C_30
REMARK    5  A    between atoms: C_25  and  C_31
REMARK    6  A    between atoms: C_31  and  N_32
REMARK                            x       y       z     vdW  Elec       q    Type
REMARK                         _______ _______ _______ _____ _____    ______ ____
ROOT
ATOM      1  C   UNL     1      54.354 246.052 323.563  0.00  0.00    +0.000 A 
ATOM      2  C   UNL     1      55.567 248.164 323.823  0.00  0.00    +0.000 A 
ATOM      3  C   UNL     1      54.544 247.282 324.195  0.00  0.00    +0.000 A 
ATOM      4  C   UNL     1      56.412 247.760 322.770  0.00  0.00    +0.000 A 
ATOM      5  C   UNL     1      55.222 245.672 322.542  0.00  0.00    +0.000 A 
ATOM      6  C   UNL     1      56.244 246.528 322.138  0.00  0.00    +0.000 A 
ATOM      7  C   UNL     1      57.537 248.658 322.295  0.00  0.00    +0.000 C 
ENDROOT
BRANCH   2   9
ATOM      8  S   UNL     1      55.632 251.330 326.325  0.00  0.00    +0.000 S 
ATOM      9  N   UNL     1      55.781 249.391 324.495  0.00  0.00    +0.000 N 
ATOM     10  N   UNL     1      54.828 248.912 326.621  0.00  0.00    +0.000 NA
ATOM     11  C   UNL     1      55.384 249.719 325.745  0.00  0.00    +0.000 A 
ATOM     12  C   UNL     1      54.541 249.574 327.799  0.00  0.00    +0.000 A 
ATOM     13  C   UNL     1      54.913 250.897 327.800  0.00  0.00    +0.000 A 
ATOM     14  H   UNL     1      56.312 250.068 323.950  0.00  0.00    +0.000 HD
BRANCH  12  16
ATOM     15  N   UNL     1      53.648 248.722 331.323  0.00  0.00    +0.000 NA
ATOM     16  C   UNL     1      53.919 248.906 328.920  0.00  0.00    +0.000 A 
ATOM     17  C   UNL     1      52.996 247.879 328.744  0.00  0.00    +0.000 A 
ATOM     18  C   UNL     1      54.212 249.281 330.223  0.00  0.00    +0.000 A 
ATOM     19  C   UNL     1      52.405 247.269 329.845  0.00  0.00    +0.000 A 
ATOM     20  C   UNL     1      52.763 247.727 331.102  0.00  0.00    +0.000 A 
ENDBRANCH  12  16
ENDBRANCH   2   9
BRANCH   1  22
ATOM     21  O   UNL     1      54.481 243.887 325.496  0.00  0.00    +0.000 OA
ATOM     22  N   UNL     1      53.331 245.155 323.929  0.00  0.00    +0.000 N 
ATOM     23  C   UNL     1      53.478 244.110 324.829  0.00  0.00    +0.000 C 
ATOM     24  H   UNL     1      52.422 245.321 323.512  0.00  0.00    +0.000 HD
BRANCH  23  30
ATOM     25  C   UNL     1      50.059 241.587 325.247  0.00  0.00    +0.000 A 
ATOM     26  C   UNL     1      50.872 241.818 326.354  0.00  0.00    +0.000 A 
ATOM     27  C   UNL     1      50.361 242.168 324.019  0.00  0.00    +0.000 A 
ATOM     28  C   UNL     1      51.992 242.637 326.231  0.00  0.00    +0.000 A 
ATOM     29  C   UNL     1      51.483 242.985 323.898  0.00  0.00    +0.000 A 
ATOM     30  C   UNL     1      52.303 243.221 325.004  0.00  0.00    +0.000 A 
BRANCH  25  31
ATOM     31  C   UNL     1      48.910 240.750 325.372  0.00  0.00    +0.000 C 
BRANCH  31  32
ATOM     32  N   UNL     1      47.737 239.894 325.497  0.00  0.00    +0.000 N 
ATOM     33  N   UNL     1      47.922 236.792 323.781  0.00  0.00    +0.000 N 
ATOM     34  C   UNL     1      47.347 239.492 324.118  0.00  0.00    +0.000 C 
ATOM     35  C   UNL     1      48.226 238.550 325.915  0.00  0.00    +0.000 C 
ATOM     36  C   UNL     1      47.419 238.130 323.369  0.00  0.00    +0.000 C 
ATOM     37  C   UNL     1      48.300 237.189 325.165  0.00  0.00    +0.000 C 
ATOM     38  C   UNL     1      46.764 235.916 323.890  0.00  0.00    +0.000 C 
ENDBRANCH  31  32
ENDBRANCH  25  31
ENDBRANCH  23  30
ENDBRANCH   1  22
TORSDOF 6
ENDMDL
