MODEL 1
REMARK VINA RESULT:      -5.6      0.000      0.000
REMARK  Name = 101808841_CandidaspongiolideA.pdbqt.pdb
REMARK  13 active torsions:
REMARK  status: ('A' for Active; 'I' for Inactive)
REMARK    1  A    between atoms: C_6  and  C_39
REMARK    2  A    between atoms: C_9  and  O_27
REMARK    3  A    between atoms: C_9  and  C_51
REMARK    4  A    between atoms: C_10  and  O_29
REMARK    5  A    between atoms: C_14  and  O_31
REMARK    6  A    between atoms: C_15  and  O_33
REMARK    7  A    between atoms: C_20  and  O_35
REMARK    8  A    between atoms: O_35  and  C_37
REMARK    9  A    between atoms: C_39  and  C_41
REMARK   10  A    between atoms: C_39  and  O_49
REMARK   11  A    between atoms: C_42  and  C_44
REMARK   12  A    between atoms: C_44  and  C_46
REMARK   13  A    between atoms: C_51  and  O_52
REMARK                            x       y       z     vdW  Elec       q    Type
REMARK                         _______ _______ _______ _____ _____    ______ ____
ROOT
ATOM      1  O   UNL     1      49.535 239.363 321.695  0.00  0.00    +0.000 OA
ATOM      2  O   UNL     1      46.533 239.744 324.545  0.00  0.00    +0.000 OA
ATOM      3  O   UNL     1      48.472 237.648 320.576  0.00  0.00    +0.000 OA
ATOM      4  O   UNL     1      51.869 242.113 327.614  0.00  0.00    +0.000 OA
ATOM      5  O   UNL     1      51.009 241.781 321.966  0.00  0.00    +0.000 OA
ATOM      6  C   UNL     1      48.539 238.579 324.137  0.00  0.00    +0.000 C 
ATOM      7  C   UNL     1      47.717 239.601 324.858  0.00  0.00    +0.000 C 
ATOM      8  C   UNL     1      49.070 238.943 322.868  0.00  0.00    +0.000 C 
ATOM      9  C   UNL     1      48.469 240.477 325.896  0.00  0.00    +0.000 C 
ATOM     10  C   UNL     1      49.334 241.511 325.194  0.00  0.00    +0.000 C 
ATOM     11  C   UNL     1      50.556 241.997 325.745  0.00  0.00    +0.000 C 
ATOM     12  C   UNL     1      49.094 238.701 320.599  0.00  0.00    +0.000 C 
ATOM     13  C   UNL     1      51.775 242.403 326.427  0.00  0.00    +0.000 C 
ATOM     14  C   UNL     1      49.413 239.447 319.359  0.00  0.00    +0.000 C 
ATOM     15  C   UNL     1      50.226 240.645 319.302  0.00  0.00    +0.000 C 
ATOM     16  C   UNL     1      52.843 243.142 325.680  0.00  0.00    +0.000 C 
ATOM     17  C   UNL     1      51.561 240.815 319.864  0.00  0.00    +0.000 C 
ATOM     18  C   UNL     1      52.884 242.764 320.845  0.00  0.00    +0.000 C 
ATOM     19  C   UNL     1      51.738 241.804 320.972  0.00  0.00    +0.000 C 
ATOM     20  C   UNL     1      53.328 243.500 322.032  0.00  0.00    +0.000 C 
ATOM     21  C   UNL     1      52.672 243.563 324.337  0.00  0.00    +0.000 C 
ATOM     22  C   UNL     1      52.486 243.951 323.115  0.00  0.00    +0.000 C 
ATOM     23  C   UNL     1      54.178 243.510 326.293  0.00  0.00    +0.000 C 
ATOM     24  C   UNL     1      52.523 239.625 319.845  0.00  0.00    +0.000 C 
ATOM     25  C   UNL     1      53.514 243.053 319.488  0.00  0.00    +0.000 C 
ATOM     26  C   UNL     1      51.236 244.758 322.869  0.00  0.00    +0.000 C 
ENDROOT
BRANCH   9  27
ATOM     27  O   UNL     1      49.318 239.642 326.685  0.00  0.00    +0.000 OA
ATOM     28  H   UNL     1      49.164 239.879 327.618  0.00  0.00    +0.000 HD
ENDBRANCH   9  27
BRANCH  10  29
ATOM     29  O   UNL     1      48.897 242.017 323.986  0.00  0.00    +0.000 OA
ATOM     30  H   UNL     1      48.108 242.587 324.058  0.00  0.00    +0.000 HD
ENDBRANCH  10  29
BRANCH  14  31
ATOM     31  O   UNL     1      48.864 239.017 318.164  0.00  0.00    +0.000 OA
ATOM     32  H   UNL     1      47.969 238.643 318.310  0.00  0.00    +0.000 HD
ENDBRANCH  14  31
BRANCH  15  33
ATOM     33  O   UNL     1      49.922 241.483 318.242  0.00  0.00    +0.000 OA
ATOM     34  C   UNL     1      49.011 242.469 318.647  0.00  0.00    +0.000 C 
ENDBRANCH  15  33
BRANCH  20  35
ATOM     35  O   UNL     1      54.594 244.146 321.998  0.00  0.00    +0.000 OA
BRANCH  35  37
ATOM     36  O   UNL     1      54.017 246.164 320.978  0.00  0.00    +0.000 OA
ATOM     37  C   UNL     1      54.527 245.495 321.856  0.00  0.00    +0.000 C 
ATOM     38  C   UNL     1      55.234 246.263 322.911  0.00  0.00    +0.000 C 
ENDBRANCH  35  37
ENDBRANCH  20  35
BRANCH   6  39
ATOM     39  C   UNL     1      48.689 237.242 324.675  0.00  0.00    +0.000 C 
BRANCH  39  41
ATOM     40  O   UNL     1      47.457 235.014 324.524  0.00  0.00    +0.000 OA
ATOM     41  C   UNL     1      48.272 236.038 323.901  0.00  0.00    +0.000 C 
ATOM     42  C   UNL     1      46.829 235.914 323.712  0.00  0.00    +0.000 C 
ATOM     43  C   UNL     1      49.346 235.336 323.000  0.00  0.00    +0.000 C 
BRANCH  42  44
ATOM     44  C   UNL     1      46.255 235.452 322.481  0.00  0.00    +0.000 C 
ATOM     45  C   UNL     1      45.899 233.997 322.311  0.00  0.00    +0.000 C 
BRANCH  44  46
ATOM     46  C   UNL     1      45.526 236.371 321.678  0.00  0.00    +0.000 C 
ATOM     47  C   UNL     1      45.001 237.172 320.957  0.00  0.00    +0.000 C 
ATOM     48  C   UNL     1      44.461 238.245 320.000  0.00  0.00    +0.000 C 
ENDBRANCH  44  46
ENDBRANCH  42  44
ENDBRANCH  39  41
BRANCH  39  49
ATOM     49  O   UNL     1      49.538 237.142 325.767  0.00  0.00    +0.000 OA
ATOM     50  H   UNL     1      49.997 236.281 325.807  0.00  0.00    +0.000 HD
ENDBRANCH  39  49
ENDBRANCH   6  39
BRANCH   9  51
ATOM     51  C   UNL     1      47.513 241.174 326.788  0.00  0.00    +0.000 C 
BRANCH  51  52
ATOM     52  O   UNL     1      46.634 241.782 327.585  0.00  0.00    +0.000 OA
ATOM     53  H   UNL     1      46.981 241.846 328.494  0.00  0.00    +0.000 HD
ENDBRANCH  51  52
ENDBRANCH   9  51
TORSDOF 13
ENDMDL
MODEL 2
REMARK VINA RESULT:      -5.5     15.723     19.341
REMARK  Name = 101808841_CandidaspongiolideA.pdbqt.pdb
REMARK  13 active torsions:
REMARK  status: ('A' for Active; 'I' for Inactive)
REMARK    1  A    between atoms: C_6  and  C_39
REMARK    2  A    between atoms: C_9  and  O_27
REMARK    3  A    between atoms: C_9  and  C_51
REMARK    4  A    between atoms: C_10  and  O_29
REMARK    5  A    between atoms: C_14  and  O_31
REMARK    6  A    between atoms: C_15  and  O_33
REMARK    7  A    between atoms: C_20  and  O_35
REMARK    8  A    between atoms: O_35  and  C_37
REMARK    9  A    between atoms: C_39  and  C_41
REMARK   10  A    between atoms: C_39  and  O_49
REMARK   11  A    between atoms: C_42  and  C_44
REMARK   12  A    between atoms: C_44  and  C_46
REMARK   13  A    between atoms: C_51  and  O_52
REMARK                            x       y       z     vdW  Elec       q    Type
REMARK                         _______ _______ _______ _____ _____    ______ ____
ROOT
ATOM      1  O   UNL     1      62.006 227.382 322.724  0.00  0.00    +0.000 OA
ATOM      2  O   UNL     1      63.182 223.480 323.546  0.00  0.00    +0.000 OA
ATOM      3  O   UNL     1      63.965 228.306 323.517  0.00  0.00    +0.000 OA
ATOM      4  O   UNL     1      56.596 223.141 323.613  0.00  0.00    +0.000 OA
ATOM      5  O   UNL     1      59.815 227.046 320.941  0.00  0.00    +0.000 OA
ATOM      6  C   UNL     1      62.082 225.312 324.536  0.00  0.00    +0.000 C 
ATOM      7  C   UNL     1      62.110 223.937 323.946  0.00  0.00    +0.000 C 
ATOM      8  C   UNL     1      62.046 226.411 323.633  0.00  0.00    +0.000 C 
ATOM      9  C   UNL     1      60.736 223.227 323.798  0.00  0.00    +0.000 C 
ATOM     10  C   UNL     1      59.948 223.824 322.644  0.00  0.00    +0.000 C 
ATOM     11  C   UNL     1      58.524 223.882 322.631  0.00  0.00    +0.000 C 
ATOM     12  C   UNL     1      63.068 228.221 322.690  0.00  0.00    +0.000 C 
ATOM     13  C   UNL     1      57.075 223.871 322.752  0.00  0.00    +0.000 C 
ATOM     14  C   UNL     1      63.065 229.038 321.454  0.00  0.00    +0.000 C 
ATOM     15  C   UNL     1      61.991 229.059 320.482  0.00  0.00    +0.000 C 
ATOM     16  C   UNL     1      56.238 224.724 321.847  0.00  0.00    +0.000 C 
ATOM     17  C   UNL     1      60.578 229.291 320.755  0.00  0.00    +0.000 C 
ATOM     18  C   UNL     1      58.377 228.520 319.718  0.00  0.00    +0.000 C 
ATOM     19  C   UNL     1      59.617 228.175 320.490  0.00  0.00    +0.000 C 
ATOM     20  C   UNL     1      57.247 227.587 319.736  0.00  0.00    +0.000 C 
ATOM     21  C   UNL     1      56.802 225.478 320.788  0.00  0.00    +0.000 C 
ATOM     22  C   UNL     1      57.338 226.147 319.816  0.00  0.00    +0.000 C 
ATOM     23  C   UNL     1      54.734 224.841 321.977  0.00  0.00    +0.000 C 
ATOM     24  C   UNL     1      60.196 230.278 321.860  0.00  0.00    +0.000 C 
ATOM     25  C   UNL     1      58.322 229.768 318.845  0.00  0.00    +0.000 C 
ATOM     26  C   UNL     1      58.207 225.350 318.876  0.00  0.00    +0.000 C 
ENDROOT
BRANCH   9  27
ATOM     27  O   UNL     1      59.984 223.411 324.999  0.00  0.00    +0.000 OA
ATOM     28  H   UNL     1      60.241 224.276 325.368  0.00  0.00    +0.000 HD
ENDBRANCH   9  27
BRANCH  10  29
ATOM     29  O   UNL     1      60.648 224.302 321.554  0.00  0.00    +0.000 OA
ATOM     30  H   UNL     1      60.089 224.753 320.893  0.00  0.00    +0.000 HD
ENDBRANCH  10  29
BRANCH  14  31
ATOM     31  O   UNL     1      64.179 229.804 321.160  0.00  0.00    +0.000 OA
ATOM     32  H   UNL     1      64.987 229.398 321.538  0.00  0.00    +0.000 HD
ENDBRANCH  14  31
BRANCH  15  33
ATOM     33  O   UNL     1      62.401 229.371 319.196  0.00  0.00    +0.000 OA
ATOM     34  C   UNL     1      62.649 228.198 318.466  0.00  0.00    +0.000 C 
ENDBRANCH  15  33
BRANCH  20  35
ATOM     35  O   UNL     1      55.977 228.045 319.293  0.00  0.00    +0.000 OA
BRANCH  35  37
ATOM     36  O   UNL     1      56.135 227.665 316.996  0.00  0.00    +0.000 OA
ATOM     37  C   UNL     1      55.600 227.558 318.083  0.00  0.00    +0.000 C 
ATOM     38  C   UNL     1      54.307 226.829 318.087  0.00  0.00    +0.000 C 
ENDBRANCH  35  37
ENDBRANCH  20  35
BRANCH   6  39
ATOM     39  C   UNL     1      62.196 225.501 325.968  0.00  0.00    +0.000 C 
BRANCH  39  41
ATOM     40  O   UNL     1      62.951 224.692 328.266  0.00  0.00    +0.000 OA
ATOM     41  C   UNL     1      62.956 224.546 326.824  0.00  0.00    +0.000 C 
ATOM     42  C   UNL     1      62.125 223.751 327.724  0.00  0.00    +0.000 C 
ATOM     43  C   UNL     1      64.402 224.146 326.371  0.00  0.00    +0.000 C 
BRANCH  42  44
ATOM     44  C   UNL     1      62.388 222.365 327.985  0.00  0.00    +0.000 C 
ATOM     45  C   UNL     1      63.274 221.968 329.139  0.00  0.00    +0.000 C 
BRANCH  44  46
ATOM     46  C   UNL     1      61.436 221.397 327.567  0.00  0.00    +0.000 C 
ATOM     47  C   UNL     1      60.676 220.584 327.120  0.00  0.00    +0.000 C 
ATOM     48  C   UNL     1      59.751 219.580 326.416  0.00  0.00    +0.000 C 
ENDBRANCH  44  46
ENDBRANCH  42  44
ENDBRANCH  39  41
BRANCH  39  49
ATOM     49  O   UNL     1      61.861 226.770 326.420  0.00  0.00    +0.000 OA
ATOM     50  H   UNL     1      62.408 227.054 327.177  0.00  0.00    +0.000 HD
ENDBRANCH  39  49
ENDBRANCH   6  39
BRANCH   9  51
ATOM     51  C   UNL     1      60.917 221.776 323.560  0.00  0.00    +0.000 C 
BRANCH  51  52
ATOM     52  O   UNL     1      61.101 220.476 323.329  0.00  0.00    +0.000 OA
ATOM     53  H   UNL     1      60.765 219.944 324.074  0.00  0.00    +0.000 HD
ENDBRANCH  51  52
ENDBRANCH   9  51
TORSDOF 13
ENDMDL
MODEL 3
REMARK VINA RESULT:      -5.4      4.016      6.380
REMARK  Name = 101808841_CandidaspongiolideA.pdbqt.pdb
REMARK  13 active torsions:
REMARK  status: ('A' for Active; 'I' for Inactive)
REMARK    1  A    between atoms: C_6  and  C_39
REMARK    2  A    between atoms: C_9  and  O_27
REMARK    3  A    between atoms: C_9  and  C_51
REMARK    4  A    between atoms: C_10  and  O_29
REMARK    5  A    between atoms: C_14  and  O_31
REMARK    6  A    between atoms: C_15  and  O_33
REMARK    7  A    between atoms: C_20  and  O_35
REMARK    8  A    between atoms: O_35  and  C_37
REMARK    9  A    between atoms: C_39  and  C_41
REMARK   10  A    between atoms: C_39  and  O_49
REMARK   11  A    between atoms: C_42  and  C_44
REMARK   12  A    between atoms: C_44  and  C_46
REMARK   13  A    between atoms: C_51  and  O_52
REMARK                            x       y       z     vdW  Elec       q    Type
REMARK                         _______ _______ _______ _____ _____    ______ ____
ROOT
ATOM      1  O   UNL     1      51.235 244.619 324.528  0.00  0.00    +0.000 OA
ATOM      2  O   UNL     1      47.439 243.496 325.798  0.00  0.00    +0.000 OA
ATOM      3  O   UNL     1      51.171 243.286 322.647  0.00  0.00    +0.000 OA
ATOM      4  O   UNL     1      50.430 245.360 331.373  0.00  0.00    +0.000 OA
ATOM      5  O   UNL     1      51.768 246.966 326.045  0.00  0.00    +0.000 OA
ATOM      6  C   UNL     1      49.700 242.868 325.995  0.00  0.00    +0.000 C 
ATOM      7  C   UNL     1      48.423 243.427 326.538  0.00  0.00    +0.000 C 
ATOM      8  C   UNL     1      50.522 243.739 325.227  0.00  0.00    +0.000 C 
ATOM      9  C   UNL     1      48.476 243.971 327.991  0.00  0.00    +0.000 C 
ATOM     10  C   UNL     1      49.204 245.304 328.036  0.00  0.00    +0.000 C 
ATOM     11  C   UNL     1      49.959 245.734 329.166  0.00  0.00    +0.000 C 
ATOM     12  C   UNL     1      51.419 244.339 323.216  0.00  0.00    +0.000 C 
ATOM     13  C   UNL     1      50.687 246.042 330.387  0.00  0.00    +0.000 C 
ATOM     14  C   UNL     1      51.934 245.521 322.485  0.00  0.00    +0.000 C 
ATOM     15  C   UNL     1      52.340 246.764 323.107  0.00  0.00    +0.000 C 
ATOM     16  C   UNL     1      51.696 247.150 330.400  0.00  0.00    +0.000 C 
ATOM     17  C   UNL     1      53.281 246.916 324.210  0.00  0.00    +0.000 C 
ATOM     18  C   UNL     1      53.559 248.553 326.149  0.00  0.00    +0.000 C 
ATOM     19  C   UNL     1      52.764 247.453 325.507  0.00  0.00    +0.000 C 
ATOM     20  C   UNL     1      53.325 248.868 327.560  0.00  0.00    +0.000 C 
ATOM     21  C   UNL     1      51.902 247.997 329.282  0.00  0.00    +0.000 C 
ATOM     22  C   UNL     1      52.061 248.767 328.253  0.00  0.00    +0.000 C 
ATOM     23  C   UNL     1      52.562 247.466 331.601  0.00  0.00    +0.000 C 
ATOM     24  C   UNL     1      54.480 245.970 324.287  0.00  0.00    +0.000 C 
ATOM     25  C   UNL     1      54.521 249.401 325.326  0.00  0.00    +0.000 C 
ATOM     26  C   UNL     1      50.807 249.414 327.721  0.00  0.00    +0.000 C 
ENDROOT
BRANCH   9  27
ATOM     27  O   UNL     1      49.187 243.043 328.812  0.00  0.00    +0.000 OA
ATOM     28  H   UNL     1      48.552 242.693 329.464  0.00  0.00    +0.000 HD
ENDBRANCH   9  27
BRANCH  10  29
ATOM     29  O   UNL     1      49.101 246.141 326.943  0.00  0.00    +0.000 OA
ATOM     30  H   UNL     1      48.182 246.317 326.664  0.00  0.00    +0.000 HD
ENDBRANCH  10  29
BRANCH  14  31
ATOM     31  O   UNL     1      51.991 245.474 321.103  0.00  0.00    +0.000 OA
ATOM     32  H   UNL     1      52.539 246.210 320.755  0.00  0.00    +0.000 HD
ENDBRANCH  14  31
BRANCH  15  33
ATOM     33  O   UNL     1      52.209 247.873 322.288  0.00  0.00    +0.000 OA
ATOM     34  C   UNL     1      50.975 248.501 322.511  0.00  0.00    +0.000 C 
ENDBRANCH  15  33
BRANCH  20  35
ATOM     35  O   UNL     1      54.281 249.662 328.249  0.00  0.00    +0.000 OA
BRANCH  35  37
ATOM     36  O   UNL     1      55.312 248.046 329.579  0.00  0.00    +0.000 OA
ATOM     37  C   UNL     1      55.316 248.958 328.775  0.00  0.00    +0.000 C 
ATOM     38  C   UNL     1      56.658 249.412 328.334  0.00  0.00    +0.000 C 
ENDBRANCH  35  37
ENDBRANCH  20  35
BRANCH   6  39
ATOM     39  C   UNL     1      50.020 241.465 326.164  0.00  0.00    +0.000 C 
BRANCH  39  41
ATOM     40  O   UNL     1      49.393 239.004 325.930  0.00  0.00    +0.000 OA
ATOM     41  C   UNL     1      49.159 240.393 325.588  0.00  0.00    +0.000 C 
ATOM     42  C   UNL     1      48.381 239.651 326.577  0.00  0.00    +0.000 C 
ATOM     43  C   UNL     1      48.805 240.475 324.064  0.00  0.00    +0.000 C 
BRANCH  42  44
ATOM     44  C   UNL     1      47.028 239.238 326.332  0.00  0.00    +0.000 C 
ATOM     45  C   UNL     1      46.727 237.803 325.981  0.00  0.00    +0.000 C 
BRANCH  44  46
ATOM     46  C   UNL     1      45.970 239.968 326.938  0.00  0.00    +0.000 C 
ATOM     47  C   UNL     1      45.143 240.607 327.525  0.00  0.00    +0.000 C 
ATOM     48  C   UNL     1      44.175 241.428 328.390  0.00  0.00    +0.000 C 
ENDBRANCH  44  46
ENDBRANCH  42  44
ENDBRANCH  39  41
BRANCH  39  49
ATOM     49  O   UNL     1      51.319 241.207 326.577  0.00  0.00    +0.000 OA
ATOM     50  H   UNL     1      51.856 242.019 326.655  0.00  0.00    +0.000 HD
ENDBRANCH  39  49
ENDBRANCH   6  39
BRANCH   9  51
ATOM     51  C   UNL     1      47.110 244.149 328.537  0.00  0.00    +0.000 C 
BRANCH  51  52
ATOM     52  O   UNL     1      45.891 244.322 329.049  0.00  0.00    +0.000 OA
ATOM     53  H   UNL     1      45.803 243.845 329.895  0.00  0.00    +0.000 HD
ENDBRANCH  51  52
ENDBRANCH   9  51
TORSDOF 13
ENDMDL
MODEL 4
REMARK VINA RESULT:      -5.3     29.361     32.154
REMARK  Name = 101808841_CandidaspongiolideA.pdbqt.pdb
REMARK  13 active torsions:
REMARK  status: ('A' for Active; 'I' for Inactive)
REMARK    1  A    between atoms: C_6  and  C_39
REMARK    2  A    between atoms: C_9  and  O_27
REMARK    3  A    between atoms: C_9  and  C_51
REMARK    4  A    between atoms: C_10  and  O_29
REMARK    5  A    between atoms: C_14  and  O_31
REMARK    6  A    between atoms: C_15  and  O_33
REMARK    7  A    between atoms: C_20  and  O_35
REMARK    8  A    between atoms: O_35  and  C_37
REMARK    9  A    between atoms: C_39  and  C_41
REMARK   10  A    between atoms: C_39  and  O_49
REMARK   11  A    between atoms: C_42  and  C_44
REMARK   12  A    between atoms: C_44  and  C_46
REMARK   13  A    between atoms: C_51  and  O_52
REMARK                            x       y       z     vdW  Elec       q    Type
REMARK                         _______ _______ _______ _____ _____    ______ ____
ROOT
ATOM      1  O   UNL     1      71.883 220.939 334.562  0.00  0.00    +0.000 OA
ATOM      2  O   UNL     1      67.899 220.337 333.537  0.00  0.00    +0.000 OA
ATOM      3  O   UNL     1      72.633 220.759 332.388  0.00  0.00    +0.000 OA
ATOM      4  O   UNL     1      68.164 218.424 339.843  0.00  0.00    +0.000 OA
ATOM      5  O   UNL     1      71.729 222.028 337.185  0.00  0.00    +0.000 OA
ATOM      6  C   UNL     1      69.835 219.147 334.155  0.00  0.00    +0.000 C 
ATOM      7  C   UNL     1      68.457 219.671 334.411  0.00  0.00    +0.000 C 
ATOM      8  C   UNL     1      70.923 220.043 334.350  0.00  0.00    +0.000 C 
ATOM      9  C   UNL     1      67.874 219.404 335.826  0.00  0.00    +0.000 C 
ATOM     10  C   UNL     1      68.528 220.313 336.852  0.00  0.00    +0.000 C 
ATOM     11  C   UNL     1      68.716 219.931 338.213  0.00  0.00    +0.000 C 
ATOM     12  C   UNL     1      72.621 221.299 333.485  0.00  0.00    +0.000 C 
ATOM     13  C   UNL     1      68.838 219.410 339.565  0.00  0.00    +0.000 C 
ATOM     14  C   UNL     1      73.421 222.514 333.767  0.00  0.00    +0.000 C 
ATOM     15  C   UNL     1      73.530 223.148 335.064  0.00  0.00    +0.000 C 
ATOM     16  C   UNL     1      69.754 220.076 340.547  0.00  0.00    +0.000 C 
ATOM     17  C   UNL     1      73.893 222.500 336.319  0.00  0.00    +0.000 C 
ATOM     18  C   UNL     1      73.315 222.853 338.780  0.00  0.00    +0.000 C 
ATOM     19  C   UNL     1      72.867 222.446 337.406  0.00  0.00    +0.000 C 
ATOM     20  C   UNL     1      72.490 222.487 339.933  0.00  0.00    +0.000 C 
ATOM     21  C   UNL     1      70.442 221.277 340.242  0.00  0.00    +0.000 C 
ATOM     22  C   UNL     1      71.048 222.383 339.946  0.00  0.00    +0.000 C 
ATOM     23  C   UNL     1      70.010 219.536 341.938  0.00  0.00    +0.000 C 
ATOM     24  C   UNL     1      74.923 221.369 336.290  0.00  0.00    +0.000 C 
ATOM     25  C   UNL     1      74.553 223.721 338.971  0.00  0.00    +0.000 C 
ATOM     26  C   UNL     1      70.165 223.499 339.447  0.00  0.00    +0.000 C 
ENDROOT
BRANCH   9  27
ATOM     27  O   UNL     1      68.139 218.049 336.192  0.00  0.00    +0.000 OA
ATOM     28  H   UNL     1      67.468 217.497 335.750  0.00  0.00    +0.000 HD
ENDBRANCH   9  27
BRANCH  10  29
ATOM     29  O   UNL     1      68.927 221.572 336.450  0.00  0.00    +0.000 OA
ATOM     30  H   UNL     1      69.057 222.200 337.186  0.00  0.00    +0.000 HD
ENDBRANCH  10  29
BRANCH  14  31
ATOM     31  O   UNL     1      74.079 223.134 332.719  0.00  0.00    +0.000 OA
ATOM     32  H   UNL     1      73.775 224.062 332.621  0.00  0.00    +0.000 HD
ENDBRANCH  14  31
BRANCH  15  33
ATOM     33  O   UNL     1      73.789 224.507 335.008  0.00  0.00    +0.000 OA
ATOM     34  C   UNL     1      75.077 224.779 335.493  0.00  0.00    +0.000 C 
ENDBRANCH  15  33
BRANCH  20  35
ATOM     35  O   UNL     1      73.057 222.574 341.233  0.00  0.00    +0.000 OA
BRANCH  35  37
ATOM     36  O   UNL     1      73.600 220.307 341.336  0.00  0.00    +0.000 OA
ATOM     37  C   UNL     1      73.772 221.481 341.604  0.00  0.00    +0.000 C 
ATOM     38  C   UNL     1      74.905 221.766 342.519  0.00  0.00    +0.000 C 
ENDBRANCH  35  37
ENDBRANCH  20  35
BRANCH   6  39
ATOM     39  C   UNL     1      70.028 217.811 333.628  0.00  0.00    +0.000 C 
BRANCH  39  41
ATOM     40  O   UNL     1      69.955 216.732 331.318  0.00  0.00    +0.000 OA
ATOM     41  C   UNL     1      70.626 217.582 332.281  0.00  0.00    +0.000 C 
ATOM     42  C   UNL     1      69.819 218.082 331.172  0.00  0.00    +0.000 C 
ATOM     43  C   UNL     1      72.166 217.303 332.200  0.00  0.00    +0.000 C 
BRANCH  42  44
ATOM     44  C   UNL     1      70.403 218.717 330.025  0.00  0.00    +0.000 C 
ATOM     45  C   UNL     1      70.564 217.950 328.737  0.00  0.00    +0.000 C 
BRANCH  44  46
ATOM     46  C   UNL     1      70.313 220.129 329.904  0.00  0.00    +0.000 C 
ATOM     47  C   UNL     1      70.202 221.307 329.705  0.00  0.00    +0.000 C 
ATOM     48  C   UNL     1      70.041 222.782 329.311  0.00  0.00    +0.000 C 
ENDBRANCH  44  46
ENDBRANCH  42  44
ENDBRANCH  39  41
BRANCH  39  49
ATOM     49  O   UNL     1      69.950 216.794 334.568  0.00  0.00    +0.000 OA
ATOM     50  H   UNL     1      70.828 216.454 334.826  0.00  0.00    +0.000 HD
ENDBRANCH  39  49
ENDBRANCH   6  39
BRANCH   9  51
ATOM     51  C   UNL     1      66.410 219.631 335.843  0.00  0.00    +0.000 C 
BRANCH  51  52
ATOM     52  O   UNL     1      65.097 219.861 335.864  0.00  0.00    +0.000 OA
ATOM     53  H   UNL     1      64.665 219.464 335.085  0.00  0.00    +0.000 HD
ENDBRANCH  51  52
ENDBRANCH   9  51
TORSDOF 13
ENDMDL
MODEL 5
REMARK VINA RESULT:      -5.3     23.574     28.236
REMARK  Name = 101808841_CandidaspongiolideA.pdbqt.pdb
REMARK  13 active torsions:
REMARK  status: ('A' for Active; 'I' for Inactive)
REMARK    1  A    between atoms: C_6  and  C_39
REMARK    2  A    between atoms: C_9  and  O_27
REMARK    3  A    between atoms: C_9  and  C_51
REMARK    4  A    between atoms: C_10  and  O_29
REMARK    5  A    between atoms: C_14  and  O_31
REMARK    6  A    between atoms: C_15  and  O_33
REMARK    7  A    between atoms: C_20  and  O_35
REMARK    8  A    between atoms: O_35  and  C_37
REMARK    9  A    between atoms: C_39  and  C_41
REMARK   10  A    between atoms: C_39  and  O_49
REMARK   11  A    between atoms: C_42  and  C_44
REMARK   12  A    between atoms: C_44  and  C_46
REMARK   13  A    between atoms: C_51  and  O_52
REMARK                            x       y       z     vdW  Elec       q    Type
REMARK                         _______ _______ _______ _____ _____    ______ ____
ROOT
ATOM      1  O   UNL     1      55.898 216.877 334.143  0.00  0.00    +0.000 OA
ATOM      2  O   UNL     1      56.862 213.822 336.793  0.00  0.00    +0.000 OA
ATOM      3  O   UNL     1      58.099 217.357 333.649  0.00  0.00    +0.000 OA
ATOM      4  O   UNL     1      50.910 215.797 338.835  0.00  0.00    +0.000 OA
ATOM      5  O   UNL     1      53.141 216.431 333.602  0.00  0.00    +0.000 OA
ATOM      6  C   UNL     1      56.489 216.146 336.730  0.00  0.00    +0.000 C 
ATOM      7  C   UNL     1      56.113 214.748 337.108  0.00  0.00    +0.000 C 
ATOM      8  C   UNL     1      56.204 216.563 335.400  0.00  0.00    +0.000 C 
ATOM      9  C   UNL     1      54.733 214.572 337.798  0.00  0.00    +0.000 C 
ATOM     10  C   UNL     1      53.608 214.715 336.786  0.00  0.00    +0.000 C 
ATOM     11  C   UNL     1      52.324 215.232 337.128  0.00  0.00    +0.000 C 
ATOM     12  C   UNL     1      56.936 217.166 333.323  0.00  0.00    +0.000 C 
ATOM     13  C   UNL     1      51.066 215.771 337.619  0.00  0.00    +0.000 C 
ATOM     14  C   UNL     1      56.509 217.178 331.905  0.00  0.00    +0.000 C 
ATOM     15  C   UNL     1      55.138 217.056 331.454  0.00  0.00    +0.000 C 
ATOM     16  C   UNL     1      50.030 216.261 336.653  0.00  0.00    +0.000 C 
ATOM     17  C   UNL     1      54.003 217.854 331.902  0.00  0.00    +0.000 C 
ATOM     18  C   UNL     1      51.499 217.450 332.187  0.00  0.00    +0.000 C 
ATOM     19  C   UNL     1      52.901 217.158 332.637  0.00  0.00    +0.000 C 
ATOM     20  C   UNL     1      50.383 217.101 333.069  0.00  0.00    +0.000 C 
ATOM     21  C   UNL     1      50.183 216.125 335.250  0.00  0.00    +0.000 C 
ATOM     22  C   UNL     1      50.337 215.974 333.973  0.00  0.00    +0.000 C 
ATOM     23  C   UNL     1      48.741 216.925 337.088  0.00  0.00    +0.000 C 
ATOM     24  C   UNL     1      54.230 219.328 332.240  0.00  0.00    +0.000 C 
ATOM     25  C   UNL     1      51.226 218.006 330.794  0.00  0.00    +0.000 C 
ATOM     26  C   UNL     1      50.639 214.571 333.511  0.00  0.00    +0.000 C 
ENDROOT
BRANCH   9  27
ATOM     27  O   UNL     1      54.575 215.586 338.792  0.00  0.00    +0.000 OA
ATOM     28  H   UNL     1      55.409 215.626 339.295  0.00  0.00    +0.000 HD
ENDBRANCH   9  27
BRANCH  10  29
ATOM     29  O   UNL     1      53.839 214.299 335.490  0.00  0.00    +0.000 OA
ATOM     30  H   UNL     1      53.112 213.770 335.110  0.00  0.00    +0.000 HD
ENDBRANCH  10  29
BRANCH  14  31
ATOM     31  O   UNL     1      57.478 217.258 330.920  0.00  0.00    +0.000 OA
ATOM     32  H   UNL     1      57.938 218.124 330.957  0.00  0.00    +0.000 HD
ENDBRANCH  14  31
BRANCH  15  33
ATOM     33  O   UNL     1      55.007 216.505 330.190  0.00  0.00    +0.000 OA
ATOM     34  C   UNL     1      54.787 215.122 330.282  0.00  0.00    +0.000 C 
ENDBRANCH  15  33
BRANCH  20  35
ATOM     35  O   UNL     1      49.104 217.662 332.805  0.00  0.00    +0.000 OA
BRANCH  35  37
ATOM     36  O   UNL     1      49.098 219.327 334.439  0.00  0.00    +0.000 OA
ATOM     37  C   UNL     1      48.927 218.910 333.310  0.00  0.00    +0.000 C 
ATOM     38  C   UNL     1      48.396 219.899 332.340  0.00  0.00    +0.000 C 
ENDBRANCH  35  37
ENDBRANCH  20  35
BRANCH   6  39
ATOM     39  C   UNL     1      57.209 216.992 337.660  0.00  0.00    +0.000 C 
BRANCH  39  41
ATOM     40  O   UNL     1      59.618 217.479 338.339  0.00  0.00    +0.000 OA
ATOM     41  C   UNL     1      58.566 217.522 337.343  0.00  0.00    +0.000 C 
ATOM     42  C   UNL     1      59.626 216.517 337.372  0.00  0.00    +0.000 C 
ATOM     43  C   UNL     1      58.661 218.887 336.580  0.00  0.00    +0.000 C 
BRANCH  42  44
ATOM     44  C   UNL     1      60.695 216.505 336.414  0.00  0.00    +0.000 C 
ATOM     45  C   UNL     1      62.074 216.963 336.816  0.00  0.00    +0.000 C 
BRANCH  44  46
ATOM     46  C   UNL     1      60.632 215.591 335.328  0.00  0.00    +0.000 C 
ATOM     47  C   UNL     1      60.566 214.902 334.350  0.00  0.00    +0.000 C 
ATOM     48  C   UNL     1      60.434 214.136 333.025  0.00  0.00    +0.000 C 
ENDBRANCH  44  46
ENDBRANCH  42  44
ENDBRANCH  39  41
BRANCH  39  49
ATOM     49  O   UNL     1      56.435 217.542 338.671  0.00  0.00    +0.000 OA
ATOM     50  H   UNL     1      56.007 216.863 339.227  0.00  0.00    +0.000 HD
ENDBRANCH  39  49
ENDBRANCH   6  39
BRANCH   9  51
ATOM     51  C   UNL     1      54.633 213.243 338.445  0.00  0.00    +0.000 C 
BRANCH  51  52
ATOM     52  O   UNL     1      54.518 212.044 339.018  0.00  0.00    +0.000 OA
ATOM     53  H   UNL     1      54.006 212.107 339.846  0.00  0.00    +0.000 HD
ENDBRANCH  51  52
ENDBRANCH   9  51
TORSDOF 13
ENDMDL
MODEL 6
REMARK VINA RESULT:      -5.3      3.766      6.732
REMARK  Name = 101808841_CandidaspongiolideA.pdbqt.pdb
REMARK  13 active torsions:
REMARK  status: ('A' for Active; 'I' for Inactive)
REMARK    1  A    between atoms: C_6  and  C_39
REMARK    2  A    between atoms: C_9  and  O_27
REMARK    3  A    between atoms: C_9  and  C_51
REMARK    4  A    between atoms: C_10  and  O_29
REMARK    5  A    between atoms: C_14  and  O_31
REMARK    6  A    between atoms: C_15  and  O_33
REMARK    7  A    between atoms: C_20  and  O_35
REMARK    8  A    between atoms: O_35  and  C_37
REMARK    9  A    between atoms: C_39  and  C_41
REMARK   10  A    between atoms: C_39  and  O_49
REMARK   11  A    between atoms: C_42  and  C_44
REMARK   12  A    between atoms: C_44  and  C_46
REMARK   13  A    between atoms: C_51  and  O_52
REMARK                            x       y       z     vdW  Elec       q    Type
REMARK                         _______ _______ _______ _____ _____    ______ ____
ROOT
ATOM      1  O   UNL     1      50.488 243.085 325.656  0.00  0.00    +0.000 OA
ATOM      2  O   UNL     1      47.056 241.244 324.201  0.00  0.00    +0.000 OA
ATOM      3  O   UNL     1      51.843 242.218 324.003  0.00  0.00    +0.000 OA
ATOM      4  O   UNL     1      45.717 242.144 330.596  0.00  0.00    +0.000 OA
ATOM      5  O   UNL     1      49.470 245.073 327.419  0.00  0.00    +0.000 OA
ATOM      6  C   UNL     1      48.853 240.871 325.676  0.00  0.00    +0.000 C 
ATOM      7  C   UNL     1      47.410 241.130 325.376  0.00  0.00    +0.000 C 
ATOM      8  C   UNL     1      49.734 241.989 325.672  0.00  0.00    +0.000 C 
ATOM      9  C   UNL     1      46.481 241.331 326.604  0.00  0.00    +0.000 C 
ATOM     10  C   UNL     1      46.708 242.698 327.227  0.00  0.00    +0.000 C 
ATOM     11  C   UNL     1      46.541 242.949 328.620  0.00  0.00    +0.000 C 
ATOM     12  C   UNL     1      51.458 243.137 324.713  0.00  0.00    +0.000 C 
ATOM     13  C   UNL     1      46.328 243.059 330.054  0.00  0.00    +0.000 C 
ATOM     14  C   UNL     1      52.004 244.507 324.582  0.00  0.00    +0.000 C 
ATOM     15  C   UNL     1      51.667 245.617 325.450  0.00  0.00    +0.000 C 
ATOM     16  C   UNL     1      46.846 244.250 330.802  0.00  0.00    +0.000 C 
ATOM     17  C   UNL     1      51.725 245.628 326.907  0.00  0.00    +0.000 C 
ATOM     18  C   UNL     1      50.432 246.802 328.768  0.00  0.00    +0.000 C 
ATOM     19  C   UNL     1      50.444 245.788 327.661  0.00  0.00    +0.000 C 
ATOM     20  C   UNL     1      49.357 246.757 329.762  0.00  0.00    +0.000 C 
ATOM     21  C   UNL     1      47.455 245.348 330.143  0.00  0.00    +0.000 C 
ATOM     22  C   UNL     1      47.993 246.346 329.518  0.00  0.00    +0.000 C 
ATOM     23  C   UNL     1      46.751 244.388 332.307  0.00  0.00    +0.000 C 
ATOM     24  C   UNL     1      52.839 244.844 327.603  0.00  0.00    +0.000 C 
ATOM     25  C   UNL     1      51.459 247.928 328.805  0.00  0.00    +0.000 C 
ATOM     26  C   UNL     1      47.172 246.938 328.400  0.00  0.00    +0.000 C 
ENDROOT
BRANCH   9  27
ATOM     27  O   UNL     1      46.779 240.336 327.584  0.00  0.00    +0.000 OA
ATOM     28  H   UNL     1      47.285 240.774 328.292  0.00  0.00    +0.000 HD
ENDBRANCH   9  27
BRANCH  10  29
ATOM     29  O   UNL     1      47.064 243.743 326.397  0.00  0.00    +0.000 OA
ATOM     30  H   UNL     1      47.324 243.464 325.499  0.00  0.00    +0.000 HD
ENDBRANCH  10  29
BRANCH  14  31
ATOM     31  O   UNL     1      52.861 244.784 323.531  0.00  0.00    +0.000 OA
ATOM     32  H   UNL     1      53.162 243.955 323.103  0.00  0.00    +0.000 HD
ENDBRANCH  14  31
BRANCH  15  33
ATOM     33  O   UNL     1      51.778 246.858 324.847  0.00  0.00    +0.000 OA
ATOM     34  C   UNL     1      50.524 247.294 324.392  0.00  0.00    +0.000 C 
ENDBRANCH  15  33
BRANCH  20  35
ATOM     35  O   UNL     1      49.516 247.485 330.972  0.00  0.00    +0.000 OA
BRANCH  35  37
ATOM     36  O   UNL     1      51.136 246.122 331.953  0.00  0.00    +0.000 OA
ATOM     37  C   UNL     1      50.117 246.785 331.969  0.00  0.00    +0.000 C 
ATOM     38  C   UNL     1      49.383 246.796 333.258  0.00  0.00    +0.000 C 
ENDBRANCH  35  37
ENDBRANCH  20  35
BRANCH   6  39
ATOM     39  C   UNL     1      49.336 239.517 325.855  0.00  0.00    +0.000 C 
BRANCH  39  41
ATOM     40  O   UNL     1      49.255 237.042 325.246  0.00  0.00    +0.000 OA
ATOM     41  C   UNL     1      48.955 238.421 324.919  0.00  0.00    +0.000 C 
ATOM     42  C   UNL     1      47.980 237.479 325.460  0.00  0.00    +0.000 C 
ATOM     43  C   UNL     1      49.224 238.637 323.390  0.00  0.00    +0.000 C 
BRANCH  42  44
ATOM     44  C   UNL     1      46.919 236.934 324.662  0.00  0.00    +0.000 C 
ATOM     45  C   UNL     1      47.089 235.596 323.989  0.00  0.00    +0.000 C 
BRANCH  44  46
ATOM     46  C   UNL     1      45.582 237.327 324.941  0.00  0.00    +0.000 C 
ATOM     47  C   UNL     1      44.424 237.592 325.103  0.00  0.00    +0.000 C 
ATOM     48  C   UNL     1      42.914 237.859 325.187  0.00  0.00    +0.000 C 
ENDBRANCH  44  46
ENDBRANCH  42  44
ENDBRANCH  39  41
BRANCH  39  49
ATOM     49  O   UNL     1      50.416 239.390 326.718  0.00  0.00    +0.000 OA
ATOM     50  H   UNL     1      51.257 239.238 326.245  0.00  0.00    +0.000 HD
ENDBRANCH  39  49
ENDBRANCH   6  39
BRANCH   9  51
ATOM     51  C   UNL     1      45.057 241.211 326.211  0.00  0.00    +0.000 C 
BRANCH  51  52
ATOM     52  O   UNL     1      43.773 241.130 325.861  0.00  0.00    +0.000 OA
ATOM     53  H   UNL     1      43.593 241.688 325.082  0.00  0.00    +0.000 HD
ENDBRANCH  51  52
ENDBRANCH   9  51
TORSDOF 13
ENDMDL
MODEL 7
REMARK VINA RESULT:      -5.3     18.038     22.107
REMARK  Name = 101808841_CandidaspongiolideA.pdbqt.pdb
REMARK  13 active torsions:
REMARK  status: ('A' for Active; 'I' for Inactive)
REMARK    1  A    between atoms: C_6  and  C_39
REMARK    2  A    between atoms: C_9  and  O_27
REMARK    3  A    between atoms: C_9  and  C_51
REMARK    4  A    between atoms: C_10  and  O_29
REMARK    5  A    between atoms: C_14  and  O_31
REMARK    6  A    between atoms: C_15  and  O_33
REMARK    7  A    between atoms: C_20  and  O_35
REMARK    8  A    between atoms: O_35  and  C_37
REMARK    9  A    between atoms: C_39  and  C_41
REMARK   10  A    between atoms: C_39  and  O_49
REMARK   11  A    between atoms: C_42  and  C_44
REMARK   12  A    between atoms: C_44  and  C_46
REMARK   13  A    between atoms: C_51  and  O_52
REMARK                            x       y       z     vdW  Elec       q    Type
REMARK                         _______ _______ _______ _____ _____    ______ ____
ROOT
ATOM      1  O   UNL     1      66.476 242.242 334.532  0.00  0.00    +0.000 OA
ATOM      2  O   UNL     1      68.323 245.379 332.526  0.00  0.00    +0.000 OA
ATOM      3  O   UNL     1      66.736 240.762 332.782  0.00  0.00    +0.000 OA
ATOM      4  O   UNL     1      64.432 248.432 336.888  0.00  0.00    +0.000 OA
ATOM      5  O   UNL     1      66.484 243.101 337.244  0.00  0.00    +0.000 OA
ATOM      6  C   UNL     1      66.205 244.404 332.851  0.00  0.00    +0.000 C 
ATOM      7  C   UNL     1      67.209 245.497 333.038  0.00  0.00    +0.000 C 
ATOM      8  C   UNL     1      66.312 243.265 333.698  0.00  0.00    +0.000 C 
ATOM      9  C   UNL     1      66.781 246.670 333.962  0.00  0.00    +0.000 C 
ATOM     10  C   UNL     1      66.817 246.241 335.419  0.00  0.00    +0.000 C 
ATOM     11  C   UNL     1      65.937 246.779 336.404  0.00  0.00    +0.000 C 
ATOM     12  C   UNL     1      66.781 241.048 333.971  0.00  0.00    +0.000 C 
ATOM     13  C   UNL     1      64.982 247.416 337.297  0.00  0.00    +0.000 C 
ATOM     14  C   UNL     1      67.252 240.082 334.990  0.00  0.00    +0.000 C 
ATOM     15  C   UNL     1      67.241 240.318 336.419  0.00  0.00    +0.000 C 
ATOM     16  C   UNL     1      64.711 246.828 338.650  0.00  0.00    +0.000 C 
ATOM     17  C   UNL     1      66.101 240.754 337.217  0.00  0.00    +0.000 C 
ATOM     18  C   UNL     1      65.792 242.151 339.331  0.00  0.00    +0.000 C 
ATOM     19  C   UNL     1      66.177 242.092 337.881  0.00  0.00    +0.000 C 
ATOM     20  C   UNL     1      65.498 243.452 339.936  0.00  0.00    +0.000 C 
ATOM     21  C   UNL     1      65.435 245.716 339.147  0.00  0.00    +0.000 C 
ATOM     22  C   UNL     1      66.120 244.709 339.588  0.00  0.00    +0.000 C 
ATOM     23  C   UNL     1      63.662 247.376 339.594  0.00  0.00    +0.000 C 
ATOM     24  C   UNL     1      64.706 240.253 336.840  0.00  0.00    +0.000 C 
ATOM     25  C   UNL     1      65.804 240.894 340.193  0.00  0.00    +0.000 C 
ATOM     26  C   UNL     1      67.619 244.871 339.548  0.00  0.00    +0.000 C 
ENDROOT
BRANCH   9  27
ATOM     27  O   UNL     1      65.444 247.055 333.640  0.00  0.00    +0.000 OA
ATOM     28  H   UNL     1      65.000 247.277 334.479  0.00  0.00    +0.000 HD
ENDBRANCH   9  27
BRANCH  10  29
ATOM     29  O   UNL     1      67.763 245.312 335.804  0.00  0.00    +0.000 OA
ATOM     30  H   UNL     1      67.954 245.315 336.761  0.00  0.00    +0.000 HD
ENDBRANCH  10  29
BRANCH  14  31
ATOM     31  O   UNL     1      67.793 238.881 334.567  0.00  0.00    +0.000 OA
ATOM     32  H   UNL     1      67.842 238.849 333.588  0.00  0.00    +0.000 HD
ENDBRANCH  14  31
BRANCH  15  33
ATOM     33  O   UNL     1      68.214 239.619 337.114  0.00  0.00    +0.000 OA
ATOM     34  C   UNL     1      67.624 238.634 337.919  0.00  0.00    +0.000 C 
ENDBRANCH  15  33
BRANCH  20  35
ATOM     35  O   UNL     1      64.826 243.486 341.187  0.00  0.00    +0.000 OA
BRANCH  35  37
ATOM     36  O   UNL     1      62.858 244.586 341.788  0.00  0.00    +0.000 OA
ATOM     37  C   UNL     1      63.512 243.821 341.106  0.00  0.00    +0.000 C 
ATOM     38  C   UNL     1      62.755 243.100 340.053  0.00  0.00    +0.000 C 
ENDBRANCH  35  37
ENDBRANCH  20  35
BRANCH   6  39
ATOM     39  C   UNL     1      65.236 244.469 331.776  0.00  0.00    +0.000 C 
BRANCH  39  41
ATOM     40  O   UNL     1      64.675 244.960 329.337  0.00  0.00    +0.000 OA
ATOM     41  C   UNL     1      65.655 244.643 330.356  0.00  0.00    +0.000 C 
ATOM     42  C   UNL     1      65.434 245.984 329.823  0.00  0.00    +0.000 C 
ATOM     43  C   UNL     1      66.673 243.609 329.761  0.00  0.00    +0.000 C 
BRANCH  42  44
ATOM     44  C   UNL     1      66.375 246.624 328.948  0.00  0.00    +0.000 C 
ATOM     45  C   UNL     1      65.938 247.098 327.585  0.00  0.00    +0.000 C 
BRANCH  44  46
ATOM     46  C   UNL     1      67.490 247.297 329.515  0.00  0.00    +0.000 C 
ATOM     47  C   UNL     1      68.490 247.788 329.959  0.00  0.00    +0.000 C 
ATOM     48  C   UNL     1      69.837 248.290 330.500  0.00  0.00    +0.000 C 
ENDBRANCH  44  46
ENDBRANCH  42  44
ENDBRANCH  39  41
BRANCH  39  49
ATOM     49  O   UNL     1      63.964 244.024 332.107  0.00  0.00    +0.000 OA
ATOM     50  H   UNL     1      63.618 243.371 331.468  0.00  0.00    +0.000 HD
ENDBRANCH  39  49
ENDBRANCH   6  39
BRANCH   9  51
ATOM     51  C   UNL     1      67.676 247.837 333.781  0.00  0.00    +0.000 C 
BRANCH  51  52
ATOM     52  O   UNL     1      68.469 248.899 333.638  0.00  0.00    +0.000 OA
ATOM     53  H   UNL     1      68.284 249.356 332.797  0.00  0.00    +0.000 HD
ENDBRANCH  51  52
ENDBRANCH   9  51
TORSDOF 13
ENDMDL
MODEL 8
REMARK VINA RESULT:      -5.2     20.339     24.001
REMARK  Name = 101808841_CandidaspongiolideA.pdbqt.pdb
REMARK  13 active torsions:
REMARK  status: ('A' for Active; 'I' for Inactive)
REMARK    1  A    between atoms: C_6  and  C_39
REMARK    2  A    between atoms: C_9  and  O_27
REMARK    3  A    between atoms: C_9  and  C_51
REMARK    4  A    between atoms: C_10  and  O_29
REMARK    5  A    between atoms: C_14  and  O_31
REMARK    6  A    between atoms: C_15  and  O_33
REMARK    7  A    between atoms: C_20  and  O_35
REMARK    8  A    between atoms: O_35  and  C_37
REMARK    9  A    between atoms: C_39  and  C_41
REMARK   10  A    between atoms: C_39  and  O_49
REMARK   11  A    between atoms: C_42  and  C_44
REMARK   12  A    between atoms: C_44  and  C_46
REMARK   13  A    between atoms: C_51  and  O_52
REMARK                            x       y       z     vdW  Elec       q    Type
REMARK                         _______ _______ _______ _____ _____    ______ ____
ROOT
ATOM      1  O   UNL     1      71.495 238.344 332.250  0.00  0.00    +0.000 OA
ATOM      2  O   UNL     1      68.958 235.549 333.992  0.00  0.00    +0.000 OA
ATOM      3  O   UNL     1      72.950 236.749 331.438  0.00  0.00    +0.000 OA
ATOM      4  O   UNL     1      67.867 241.014 337.519  0.00  0.00    +0.000 OA
ATOM      5  O   UNL     1      69.918 240.711 332.184  0.00  0.00    +0.000 OA
ATOM      6  C   UNL     1      70.865 236.845 334.470  0.00  0.00    +0.000 C 
ATOM      7  C   UNL     1      69.418 236.499 334.628  0.00  0.00    +0.000 C 
ATOM      8  C   UNL     1      71.234 237.616 333.333  0.00  0.00    +0.000 C 
ATOM      9  C   UNL     1      68.580 237.450 335.527  0.00  0.00    +0.000 C 
ATOM     10  C   UNL     1      68.301 238.758 334.805  0.00  0.00    +0.000 C 
ATOM     11  C   UNL     1      68.156 240.000 335.489  0.00  0.00    +0.000 C 
ATOM     12  C   UNL     1      72.292 237.773 331.316  0.00  0.00    +0.000 C 
ATOM     13  C   UNL     1      68.028 241.190 336.316  0.00  0.00    +0.000 C 
ATOM     14  C   UNL     1      72.245 238.525 330.041  0.00  0.00    +0.000 C 
ATOM     15  C   UNL     1      71.568 239.792 329.854  0.00  0.00    +0.000 C 
ATOM     16  C   UNL     1      68.092 242.550 335.691  0.00  0.00    +0.000 C 
ATOM     17  C   UNL     1      71.729 240.990 330.667  0.00  0.00    +0.000 C 
ATOM     18  C   UNL     1      70.225 242.936 331.353  0.00  0.00    +0.000 C 
ATOM     19  C   UNL     1      70.549 241.473 331.450  0.00  0.00    +0.000 C 
ATOM     20  C   UNL     1      69.334 243.534 332.349  0.00  0.00    +0.000 C 
ATOM     21  C   UNL     1      68.170 242.732 334.287  0.00  0.00    +0.000 C 
ATOM     22  C   UNL     1      68.225 242.874 333.001  0.00  0.00    +0.000 C 
ATOM     23  C   UNL     1      68.067 243.833 336.495  0.00  0.00    +0.000 C 
ATOM     24  C   UNL     1      73.110 241.308 331.242  0.00  0.00    +0.000 C 
ATOM     25  C   UNL     1      70.729 243.770 330.181  0.00  0.00    +0.000 C 
ATOM     26  C   UNL     1      67.155 242.157 332.218  0.00  0.00    +0.000 C 
ENDROOT
BRANCH   9  27
ATOM     27  O   UNL     1      69.318 237.740 336.714  0.00  0.00    +0.000 OA
ATOM     28  H   UNL     1      69.408 238.709 336.766  0.00  0.00    +0.000 HD
ENDBRANCH   9  27
BRANCH  10  29
ATOM     29  O   UNL     1      68.154 238.728 333.433  0.00  0.00    +0.000 OA
ATOM     30  H   UNL     1      68.984 238.550 332.950  0.00  0.00    +0.000 HD
ENDBRANCH  10  29
BRANCH  14  31
ATOM     31  O   UNL     1      72.842 237.973 328.921  0.00  0.00    +0.000 OA
ATOM     32  H   UNL     1      72.550 237.045 328.796  0.00  0.00    +0.000 HD
ENDBRANCH  14  31
BRANCH  15  33
ATOM     33  O   UNL     1      71.137 240.014 328.556  0.00  0.00    +0.000 OA
ATOM     34  C   UNL     1      69.799 239.618 328.412  0.00  0.00    +0.000 C 
ENDBRANCH  15  33
BRANCH  20  35
ATOM     35  O   UNL     1      69.287 244.950 332.460  0.00  0.00    +0.000 OA
BRANCH  35  37
ATOM     36  O   UNL     1      67.710 245.472 330.821  0.00  0.00    +0.000 OA
ATOM     37  C   UNL     1      68.161 245.512 331.950  0.00  0.00    +0.000 C 
ATOM     38  C   UNL     1      67.396 246.344 332.911  0.00  0.00    +0.000 C 
ENDBRANCH  35  37
ENDBRANCH  20  35
BRANCH   6  39
ATOM     39  C   UNL     1      71.852 236.317 335.390  0.00  0.00    +0.000 C 
BRANCH  39  41
ATOM     40  O   UNL     1      72.252 238.294 336.950  0.00  0.00    +0.000 OA
ATOM     41  C   UNL     1      72.777 237.213 336.141  0.00  0.00    +0.000 C 
ATOM     42  C   UNL     1      72.629 237.151 337.592  0.00  0.00    +0.000 C 
ATOM     43  C   UNL     1      74.062 237.725 335.404  0.00  0.00    +0.000 C 
BRANCH  42  44
ATOM     44  C   UNL     1      73.756 237.195 338.479  0.00  0.00    +0.000 C 
ATOM     45  C   UNL     1      73.921 238.348 339.436  0.00  0.00    +0.000 C 
BRANCH  44  46
ATOM     46  C   UNL     1      74.375 235.974 338.860  0.00  0.00    +0.000 C 
ATOM     47  C   UNL     1      74.944 234.944 339.090  0.00  0.00    +0.000 C 
ATOM     48  C   UNL     1      75.708 233.620 339.242  0.00  0.00    +0.000 C 
ENDBRANCH  44  46
ENDBRANCH  42  44
ENDBRANCH  39  41
BRANCH  39  49
ATOM     49  O   UNL     1      71.649 234.999 335.775  0.00  0.00    +0.000 OA
ATOM     50  H   UNL     1      71.147 234.489 335.110  0.00  0.00    +0.000 HD
ENDBRANCH  39  49
ENDBRANCH   6  39
BRANCH   9  51
ATOM     51  C   UNL     1      67.292 236.821 335.901  0.00  0.00    +0.000 C 
BRANCH  51  52
ATOM     52  O   UNL     1      66.146 236.231 336.242  0.00  0.00    +0.000 OA
ATOM     53  H   UNL     1      65.490 236.315 335.526  0.00  0.00    +0.000 HD
ENDBRANCH  51  52
ENDBRANCH   9  51
TORSDOF 13
ENDMDL
MODEL 9
REMARK VINA RESULT:      -5.2      5.584     10.817
REMARK  Name = 101808841_CandidaspongiolideA.pdbqt.pdb
REMARK  13 active torsions:
REMARK  status: ('A' for Active; 'I' for Inactive)
REMARK    1  A    between atoms: C_6  and  C_39
REMARK    2  A    between atoms: C_9  and  O_27
REMARK    3  A    between atoms: C_9  and  C_51
REMARK    4  A    between atoms: C_10  and  O_29
REMARK    5  A    between atoms: C_14  and  O_31
REMARK    6  A    between atoms: C_15  and  O_33
REMARK    7  A    between atoms: C_20  and  O_35
REMARK    8  A    between atoms: O_35  and  C_37
REMARK    9  A    between atoms: C_39  and  C_41
REMARK   10  A    between atoms: C_39  and  O_49
REMARK   11  A    between atoms: C_42  and  C_44
REMARK   12  A    between atoms: C_44  and  C_46
REMARK   13  A    between atoms: C_51  and  O_52
REMARK                            x       y       z     vdW  Elec       q    Type
REMARK                         _______ _______ _______ _____ _____    ______ ____
ROOT
ATOM      1  O   UNL     1      51.952 245.737 327.933  0.00  0.00    +0.000 OA
ATOM      2  O   UNL     1      51.077 249.744 328.611  0.00  0.00    +0.000 OA
ATOM      3  O   UNL     1      50.956 245.027 329.889  0.00  0.00    +0.000 OA
ATOM      4  O   UNL     1      56.338 249.976 324.641  0.00  0.00    +0.000 OA
ATOM      5  O   UNL     1      52.608 245.667 325.166  0.00  0.00    +0.000 OA
ATOM      6  C   UNL     1      52.740 248.132 329.036  0.00  0.00    +0.000 C 
ATOM      7  C   UNL     1      52.219 249.359 328.356  0.00  0.00    +0.000 C 
ATOM      8  C   UNL     1      52.353 246.872 328.499  0.00  0.00    +0.000 C 
ATOM      9  C   UNL     1      53.152 250.000 327.292  0.00  0.00    +0.000 C 
ATOM     10  C   UNL     1      53.162 249.169 326.021  0.00  0.00    +0.000 C 
ATOM     11  C   UNL     1      54.298 249.085 325.163  0.00  0.00    +0.000 C 
ATOM     12  C   UNL     1      51.174 244.927 328.689  0.00  0.00    +0.000 C 
ATOM     13  C   UNL     1      55.525 249.095 324.384  0.00  0.00    +0.000 C 
ATOM     14  C   UNL     1      50.533 243.877 327.863  0.00  0.00    +0.000 C 
ATOM     15  C   UNL     1      50.817 243.640 326.463  0.00  0.00    +0.000 C 
ATOM     16  C   UNL     1      55.750 248.062 323.321  0.00  0.00    +0.000 C 
ATOM     17  C   UNL     1      52.133 243.444 325.866  0.00  0.00    +0.000 C 
ATOM     18  C   UNL     1      53.193 243.952 323.600  0.00  0.00    +0.000 C 
ATOM     19  C   UNL     1      52.622 244.467 324.889  0.00  0.00    +0.000 C 
ATOM     20  C   UNL     1      54.004 244.849 322.774  0.00  0.00    +0.000 C 
ATOM     21  C   UNL     1      54.754 247.119 322.964  0.00  0.00    +0.000 C 
ATOM     22  C   UNL     1      53.823 246.277 322.644  0.00  0.00    +0.000 C 
ATOM     23  C   UNL     1      57.041 247.948 322.538  0.00  0.00    +0.000 C 
ATOM     24  C   UNL     1      53.199 242.695 326.667  0.00  0.00    +0.000 C 
ATOM     25  C   UNL     1      52.854 242.552 323.100  0.00  0.00    +0.000 C 
ATOM     26  C   UNL     1      52.486 246.882 322.296  0.00  0.00    +0.000 C 
ENDROOT
BRANCH   9  27
ATOM     27  O   UNL     1      54.483 250.050 327.807  0.00  0.00    +0.000 OA
ATOM     28  H   UNL     1      54.982 250.675 327.250  0.00  0.00    +0.000 HD
ENDBRANCH   9  27
BRANCH  10  29
ATOM     29  O   UNL     1      52.010 248.493 325.673  0.00  0.00    +0.000 OA
ATOM     30  H   UNL     1      52.144 247.540 325.512  0.00  0.00    +0.000 HD
ENDBRANCH  10  29
BRANCH  14  31
ATOM     31  O   UNL     1      49.552 243.087 328.436  0.00  0.00    +0.000 OA
ATOM     32  H   UNL     1      49.892 242.183 328.606  0.00  0.00    +0.000 HD
ENDBRANCH  14  31
BRANCH  15  33
ATOM     33  O   UNL     1      49.763 243.082 325.760  0.00  0.00    +0.000 OA
ATOM     34  C   UNL     1      49.009 244.086 325.134  0.00  0.00    +0.000 C 
ENDBRANCH  15  33
BRANCH  20  35
ATOM     35  O   UNL     1      54.805 244.289 321.743  0.00  0.00    +0.000 OA
BRANCH  35  37
ATOM     36  O   UNL     1      53.284 244.141 319.980  0.00  0.00    +0.000 OA
ATOM     37  C   UNL     1      54.329 244.500 320.489  0.00  0.00    +0.000 C 
ATOM     38  C   UNL     1      55.254 245.238 319.593  0.00  0.00    +0.000 C 
ENDBRANCH  35  37
ENDBRANCH  20  35
BRANCH   6  39
ATOM     39  C   UNL     1      53.517 248.239 330.254  0.00  0.00    +0.000 C 
BRANCH  39  41
ATOM     40  O   UNL     1      53.590 249.055 332.669  0.00  0.00    +0.000 OA
ATOM     41  C   UNL     1      52.866 248.426 331.582  0.00  0.00    +0.000 C 
ATOM     42  C   UNL     1      52.698 249.821 331.978  0.00  0.00    +0.000 C 
ATOM     43  C   UNL     1      52.034 247.233 332.166  0.00  0.00    +0.000 C 
BRANCH  42  44
ATOM     44  C   UNL     1      51.519 250.289 332.651  0.00  0.00    +0.000 C 
ATOM     45  C   UNL     1      51.570 250.623 334.120  0.00  0.00    +0.000 C 
BRANCH  44  46
ATOM     46  C   UNL     1      50.516 250.952 331.894  0.00  0.00    +0.000 C 
ATOM     47  C   UNL     1      49.746 251.560 331.205  0.00  0.00    +0.000 C 
ATOM     48  C   UNL     1      48.872 252.419 330.279  0.00  0.00    +0.000 C 
ENDBRANCH  44  46
ENDBRANCH  42  44
ENDBRANCH  39  41
BRANCH  39  49
ATOM     49  O   UNL     1      54.835 247.818 330.146  0.00  0.00    +0.000 OA
ATOM     50  H   UNL     1      55.244 247.643 331.015  0.00  0.00    +0.000 HD
ENDBRANCH  39  49
ENDBRANCH   6  39
BRANCH   9  51
ATOM     51  C   UNL     1      52.709 251.376 326.966  0.00  0.00    +0.000 C 
BRANCH  51  52
ATOM     52  O   UNL     1      52.333 252.617 326.656  0.00  0.00    +0.000 OA
ATOM     53  H   UNL     1      51.945 253.063 327.432  0.00  0.00    +0.000 HD
ENDBRANCH  51  52
ENDBRANCH   9  51
TORSDOF 13
ENDMDL
