REMARK  Name = 101808841_CandidaspongiolideA.pdbqt.pdb
REMARK  13 active torsions:
REMARK  status: ('A' for Active; 'I' for Inactive)
REMARK    1  A    between atoms: C_6  and  C_39
REMARK    2  A    between atoms: C_9  and  O_27
REMARK    3  A    between atoms: C_9  and  C_51
REMARK    4  A    between atoms: C_10  and  O_29
REMARK    5  A    between atoms: C_14  and  O_31
REMARK    6  A    between atoms: C_15  and  O_33
REMARK    7  A    between atoms: C_20  and  O_35
REMARK    8  A    between atoms: O_35  and  C_37
REMARK    9  A    between atoms: C_39  and  C_41
REMARK   10  A    between atoms: C_39  and  O_49
REMARK   11  A    between atoms: C_42  and  C_44
REMARK   12  A    between atoms: C_44  and  C_46
REMARK   13  A    between atoms: C_51  and  O_52
REMARK                            x       y       z     vdW  Elec       q    Type
REMARK                         _______ _______ _______ _____ _____    ______ ____
ROOT
ATOM      1  O   UNL     1      -1.077   0.971   1.714  0.00  0.00    +0.000 OA
ATOM      2  O   UNL     1      -2.913  -2.644   2.633  0.00  0.00    +0.000 OA
ATOM      3  O   UNL     1      -2.625   2.231   2.870  0.00  0.00    +0.000 OA
ATOM      4  O   UNL     1       0.357  -3.961  -2.941  0.00  0.00    +0.000 OA
ATOM      5  O   UNL     1       1.511   0.187   0.830  0.00  0.00    +0.000 OA
ATOM      6  C   UNL     1      -2.937  -0.933   1.015  0.00  0.00    +0.000 C 
ATOM      7  C   UNL     1      -2.640  -2.326   1.474  0.00  0.00    +0.000 C 
ATOM      8  C   UNL     1      -2.002   0.083   1.359  0.00  0.00    +0.000 C 
ATOM      9  C   UNL     1      -1.909  -3.242   0.455  0.00  0.00    +0.000 C 
ATOM     10  C   UNL     1      -0.445  -2.852   0.341  0.00  0.00    +0.000 C 
ATOM     11  C   UNL     1       0.304  -3.009  -0.862  0.00  0.00    +0.000 C 
ATOM     12  C   UNL     1      -1.476   1.955   2.554  0.00  0.00    +0.000 C 
ATOM     13  C   UNL     1       0.942  -3.229  -2.150  0.00  0.00    +0.000 C 
ATOM     14  C   UNL     1      -0.314   2.674   3.126  0.00  0.00    +0.000 C 
ATOM     15  C   UNL     1       1.063   2.467   2.727  0.00  0.00    +0.000 C 
ATOM     16  C   UNL     1       2.255  -2.576  -2.460  0.00  0.00    +0.000 C 
ATOM     17  C   UNL     1       1.587   2.503   1.367  0.00  0.00    +0.000 C 
ATOM     18  C   UNL     1       3.487   1.340   0.121  0.00  0.00    +0.000 C 
ATOM     19  C   UNL     1       2.150   1.240   0.796  0.00  0.00    +0.000 C 
ATOM     20  C   UNL     1       3.922   0.252  -0.758  0.00  0.00    +0.000 C 
ATOM     21  C   UNL     1       2.968  -1.821  -1.495  0.00  0.00    +0.000 C 
ATOM     22  C   UNL     1       3.609  -1.149  -0.592  0.00  0.00    +0.000 C 
ATOM     23  C   UNL     1       2.931  -2.677  -3.811  0.00  0.00    +0.000 C 
ATOM     24  C   UNL     1       0.982   3.496   0.373  0.00  0.00    +0.000 C 
ATOM     25  C   UNL     1       4.427   2.502   0.420  0.00  0.00    +0.000 C 
ATOM     26  C   UNL     1       3.852  -1.870   0.710  0.00  0.00    +0.000 C 
ENDROOT
BRANCH   9  27
ATOM     27  O   UNL     1      -2.516  -3.090  -0.829  0.00  0.00    +0.000 OA
ATOM     28  H   UNL     1      -3.173  -3.804  -0.921  0.00  0.00    +0.000 HD
ENDBRANCH   9  27
BRANCH  10  29
ATOM     29  O   UNL     1       0.187  -2.352   1.462  0.00  0.00    +0.000 OA
ATOM     30  H   UNL     1       1.113  -2.085   1.308  0.00  0.00    +0.000 HD
ENDBRANCH  10  29
BRANCH  14  31
ATOM     31  O   UNL     1      -0.530   3.576   4.153  0.00  0.00    +0.000 OA
ATOM     32  H   UNL     1      -1.488   3.656   4.347  0.00  0.00    +0.000 HD
ENDBRANCH  14  31
BRANCH  15  33
ATOM     33  O   UNL     1       1.986   2.746   3.721  0.00  0.00    +0.000 OA
ATOM     34  C   UNL     1       2.874   1.671   3.877  0.00  0.00    +0.000 C 
ENDBRANCH  15  33
BRANCH  20  35
ATOM     35  O   UNL     1       5.011   0.483  -1.641  0.00  0.00    +0.000 OA
BRANCH  35  37
ATOM     36  O   UNL     1       3.776   2.093  -2.793  0.00  0.00    +0.000 OA
ATOM     37  C   UNL     1       4.783   1.450  -2.567  0.00  0.00    +0.000 C 
ATOM     38  C   UNL     1       5.928   1.721  -3.471  0.00  0.00    +0.000 C 
ENDBRANCH  35  37
ENDBRANCH  20  35
BRANCH   6  39
ATOM     39  C   UNL     1      -4.183  -0.630   0.341  0.00  0.00    +0.000 C 
BRANCH  39  41
ATOM     40  O   UNL     1      -5.154   1.403  -0.854  0.00  0.00    +0.000 OA
ATOM     41  C   UNL     1      -4.232   0.285  -0.835  0.00  0.00    +0.000 C 
ATOM     42  C   UNL     1      -3.852   1.664  -0.541  0.00  0.00    +0.000 C 
ATOM     43  C   UNL     1      -4.201  -0.356  -2.265  0.00  0.00    +0.000 C 
BRANCH  42  44
ATOM     44  C   UNL     1      -3.066   2.451  -1.448  0.00  0.00    +0.000 C 
ATOM     45  C   UNL     1      -3.224   3.950  -1.480  0.00  0.00    +0.000 C 
BRANCH  44  46
ATOM     46  C   UNL     1      -1.811   1.946  -1.882  0.00  0.00    +0.000 C 
ATOM     47  C   UNL     1      -0.764   1.443  -2.180  0.00  0.00    +0.000 C 
ATOM     48  C   UNL     1       0.562   0.715  -2.444  0.00  0.00    +0.000 C 
ENDBRANCH  44  46
ENDBRANCH  42  44
ENDBRANCH  39  41
BRANCH  39  49
ATOM     49  O   UNL     1      -5.231  -1.491   0.633  0.00  0.00    +0.000 OA
ATOM     50  H   UNL     1      -6.003  -1.352   0.051  0.00  0.00    +0.000 HD
ENDBRANCH  39  49
ENDBRANCH   6  39
BRANCH   9  51
ATOM     51  C   UNL     1      -1.999  -4.663   0.866  0.00  0.00    +0.000 C 
BRANCH  51  52
ATOM     52  O   UNL     1      -2.104  -5.943   1.223  0.00  0.00    +0.000 OA
ATOM     53  H   UNL     1      -2.178  -6.025   2.192  0.00  0.00    +0.000 HD
ENDBRANCH  51  52
ENDBRANCH   9  51
TORSDOF 13
