MODEL 1
REMARK VINA RESULT:      -6.4      0.000      0.000
REMARK  Name = 101808842_CandidaspongiolideB.pdbqt.pdb
REMARK  12 active torsions:
REMARK  status: ('A' for Active; 'I' for Inactive)
REMARK    1  A    between atoms: C_6  and  C_42
REMARK    2  A    between atoms: C_7  and  O_28
REMARK    3  A    between atoms: C_10  and  O_30
REMARK    4  A    between atoms: C_13  and  O_32
REMARK    5  A    between atoms: C_19  and  O_34
REMARK    6  A    between atoms: C_20  and  O_38
REMARK    7  A    between atoms: C_21  and  O_36
REMARK    8  A    between atoms: O_38  and  C_40
REMARK    9  A    between atoms: C_42  and  C_44
REMARK   10  A    between atoms: C_42  and  O_52
REMARK   11  A    between atoms: C_45  and  C_47
REMARK   12  A    between atoms: C_47  and  C_49
REMARK                            x       y       z     vdW  Elec       q    Type
REMARK                         _______ _______ _______ _____ _____    ______ ____
ROOT
ATOM      1  O   UNL     1      49.475 243.253 328.253  0.00  0.00    +0.000 OA
ATOM      2  O   UNL     1      51.508 241.919 321.827  0.00  0.00    +0.000 OA
ATOM      3  O   UNL     1      48.475 243.017 324.586  0.00  0.00    +0.000 OA
ATOM      4  O   UNL     1      51.452 244.012 322.795  0.00  0.00    +0.000 OA
ATOM      5  O   UNL     1      53.668 244.615 324.663  0.00  0.00    +0.000 OA
ATOM      6  C   UNL     1      49.486 241.178 323.547  0.00  0.00    +0.000 C 
ATOM      7  C   UNL     1      50.007 241.727 326.020  0.00  0.00    +0.000 C 
ATOM      8  C   UNL     1      49.254 242.071 324.717  0.00  0.00    +0.000 C 
ATOM      9  C   UNL     1      50.502 241.537 322.616  0.00  0.00    +0.000 C 
ATOM     10  C   UNL     1      51.394 242.400 326.040  0.00  0.00    +0.000 C 
ATOM     11  C   UNL     1      51.629 243.278 327.140  0.00  0.00    +0.000 C 
ATOM     12  C   UNL     1      49.396 242.399 327.211  0.00  0.00    +0.000 C 
ATOM     13  C   UNL     1      50.854 243.803 328.307  0.00  0.00    +0.000 C 
ATOM     14  C   UNL     1      50.790 245.338 328.284  0.00  0.00    +0.000 C 
ATOM     15  C   UNL     1      51.159 246.073 327.119  0.00  0.00    +0.000 C 
ATOM     16  C   UNL     1      50.454 246.241 329.466  0.00  0.00    +0.000 C 
ATOM     17  C   UNL     1      51.974 243.174 322.075  0.00  0.00    +0.000 C 
ATOM     18  C   UNL     1      51.537 246.676 326.034  0.00  0.00    +0.000 C 
ATOM     19  C   UNL     1      53.283 243.381 321.413  0.00  0.00    +0.000 C 
ATOM     20  C   UNL     1      52.884 247.173 325.872  0.00  0.00    +0.000 C 
ATOM     21  C   UNL     1      54.180 244.441 321.830  0.00  0.00    +0.000 C 
ATOM     22  C   UNL     1      53.737 246.994 324.698  0.00  0.00    +0.000 C 
ATOM     23  C   UNL     1      53.816 245.673 322.515  0.00  0.00    +0.000 C 
ATOM     24  C   UNL     1      53.728 245.662 324.009  0.00  0.00    +0.000 C 
ATOM     25  C   UNL     1      50.572 246.657 324.884  0.00  0.00    +0.000 C 
ATOM     26  C   UNL     1      54.932 247.921 324.486  0.00  0.00    +0.000 C 
ATOM     27  C   UNL     1      53.300 246.844 321.686  0.00  0.00    +0.000 C 
ENDROOT
BRANCH   7  28
ATOM     28  O   UNL     1      50.161 240.352 326.304  0.00  0.00    +0.000 OA
ATOM     29  H   UNL     1      51.105 240.217 326.509  0.00  0.00    +0.000 HD
ENDBRANCH   7  28
BRANCH  10  30
ATOM     30  O   UNL     1      52.346 242.163 325.083  0.00  0.00    +0.000 OA
ATOM     31  H   UNL     1      51.942 242.071 324.195  0.00  0.00    +0.000 HD
ENDBRANCH  10  30
BRANCH  13  32
ATOM     32  O   UNL     1      51.484 243.334 329.495  0.00  0.00    +0.000 OA
ATOM     33  H   UNL     1      51.201 243.938 330.200  0.00  0.00    +0.000 HD
ENDBRANCH  13  32
BRANCH  19  34
ATOM     34  O   UNL     1      53.777 242.497 320.472  0.00  0.00    +0.000 OA
ATOM     35  H   UNL     1      53.241 241.681 320.391  0.00  0.00    +0.000 HD
ENDBRANCH  19  34
BRANCH  21  36
ATOM     36  O   UNL     1      55.415 244.434 321.204  0.00  0.00    +0.000 OA
ATOM     37  C   UNL     1      56.248 245.439 321.727  0.00  0.00    +0.000 C 
ENDBRANCH  21  36
BRANCH  20  38
ATOM     38  O   UNL     1      53.278 248.143 326.823  0.00  0.00    +0.000 OA
BRANCH  38  40
ATOM     39  O   UNL     1      52.333 249.990 325.761  0.00  0.00    +0.000 OA
ATOM     40  C   UNL     1      52.512 249.260 326.719  0.00  0.00    +0.000 C 
ATOM     41  C   UNL     1      51.852 249.690 327.976  0.00  0.00    +0.000 C 
ENDBRANCH  38  40
ENDBRANCH  20  38
BRANCH   6  42
ATOM     42  C   UNL     1      48.537 240.118 323.289  0.00  0.00    +0.000 C 
BRANCH  42  44
ATOM     43  O   UNL     1      49.728 238.154 324.345  0.00  0.00    +0.000 OA
ATOM     44  C   UNL     1      48.942 238.688 323.253  0.00  0.00    +0.000 C 
ATOM     45  C   UNL     1      48.382 237.911 324.354  0.00  0.00    +0.000 C 
ATOM     46  C   UNL     1      49.471 238.089 321.907  0.00  0.00    +0.000 C 
BRANCH  45  47
ATOM     47  C   UNL     1      47.964 236.545 324.251  0.00  0.00    +0.000 C 
ATOM     48  C   UNL     1      48.972 235.431 324.381  0.00  0.00    +0.000 C 
BRANCH  47  49
ATOM     49  C   UNL     1      46.610 236.192 324.480  0.00  0.00    +0.000 C 
ATOM     50  C   UNL     1      45.473 235.844 324.627  0.00  0.00    +0.000 C 
ATOM     51  C   UNL     1      44.035 235.326 324.716  0.00  0.00    +0.000 C 
ENDBRANCH  47  49
ENDBRANCH  45  47
ENDBRANCH  42  44
BRANCH  42  52
ATOM     52  O   UNL     1      47.222 240.527 323.110  0.00  0.00    +0.000 OA
ATOM     53  H   UNL     1      47.153 241.292 322.503  0.00  0.00    +0.000 HD
ENDBRANCH  42  52
ENDBRANCH   6  42
TORSDOF 12
ENDMDL
MODEL 2
REMARK VINA RESULT:      -6.3     17.138     20.671
REMARK  Name = 101808842_CandidaspongiolideB.pdbqt.pdb
REMARK  12 active torsions:
REMARK  status: ('A' for Active; 'I' for Inactive)
REMARK    1  A    between atoms: C_6  and  C_42
REMARK    2  A    between atoms: C_7  and  O_28
REMARK    3  A    between atoms: C_10  and  O_30
REMARK    4  A    between atoms: C_13  and  O_32
REMARK    5  A    between atoms: C_19  and  O_34
REMARK    6  A    between atoms: C_20  and  O_38
REMARK    7  A    between atoms: C_21  and  O_36
REMARK    8  A    between atoms: O_38  and  C_40
REMARK    9  A    between atoms: C_42  and  C_44
REMARK   10  A    between atoms: C_42  and  O_52
REMARK   11  A    between atoms: C_45  and  C_47
REMARK   12  A    between atoms: C_47  and  C_49
REMARK                            x       y       z     vdW  Elec       q    Type
REMARK                         _______ _______ _______ _____ _____    ______ ____
ROOT
ATOM      1  O   UNL     1      70.985 241.898 326.519  0.00  0.00    +0.000 OA
ATOM      2  O   UNL     1      69.496 239.520 332.792  0.00  0.00    +0.000 OA
ATOM      3  O   UNL     1      72.220 241.313 330.074  0.00  0.00    +0.000 OA
ATOM      4  O   UNL     1      69.262 241.712 332.112  0.00  0.00    +0.000 OA
ATOM      5  O   UNL     1      66.886 242.283 330.440  0.00  0.00    +0.000 OA
ATOM      6  C   UNL     1      71.484 239.250 330.901  0.00  0.00    +0.000 C 
ATOM      7  C   UNL     1      70.759 240.046 328.549  0.00  0.00    +0.000 C 
ATOM      8  C   UNL     1      71.545 240.307 329.852  0.00  0.00    +0.000 C 
ATOM      9  C   UNL     1      70.491 239.364 331.915  0.00  0.00    +0.000 C 
ATOM     10  C   UNL     1      69.307 240.547 328.680  0.00  0.00    +0.000 C 
ATOM     11  C   UNL     1      68.911 241.525 327.720  0.00  0.00    +0.000 C 
ATOM     12  C   UNL     1      71.220 240.933 327.433  0.00  0.00    +0.000 C 
ATOM     13  C   UNL     1      69.552 242.284 326.601  0.00  0.00    +0.000 C 
ATOM     14  C   UNL     1      69.447 243.799 326.827  0.00  0.00    +0.000 C 
ATOM     15  C   UNL     1      69.067 244.331 328.095  0.00  0.00    +0.000 C 
ATOM     16  C   UNL     1      69.610 244.880 325.763  0.00  0.00    +0.000 C 
ATOM     17  C   UNL     1      68.880 240.733 332.735  0.00  0.00    +0.000 C 
ATOM     18  C   UNL     1      68.689 244.741 329.266  0.00  0.00    +0.000 C 
ATOM     19  C   UNL     1      67.597 240.697 333.476  0.00  0.00    +0.000 C 
ATOM     20  C   UNL     1      67.307 245.049 329.552  0.00  0.00    +0.000 C 
ATOM     21  C   UNL     1      66.565 241.688 333.244  0.00  0.00    +0.000 C 
ATOM     22  C   UNL     1      66.551 244.623 330.728  0.00  0.00    +0.000 C 
ATOM     23  C   UNL     1      66.748 243.032 332.716  0.00  0.00    +0.000 C 
ATOM     24  C   UNL     1      66.748 243.223 331.231  0.00  0.00    +0.000 C 
ATOM     25  C   UNL     1      69.717 244.688 330.360  0.00  0.00    +0.000 C 
ATOM     26  C   UNL     1      65.274 245.367 331.115  0.00  0.00    +0.000 C 
ATOM     27  C   UNL     1      67.179 244.140 333.671  0.00  0.00    +0.000 C 
ENDROOT
BRANCH   7  28
ATOM     28  O   UNL     1      70.742 238.710 328.090  0.00  0.00    +0.000 OA
ATOM     29  H   UNL     1      71.499 238.264 328.513  0.00  0.00    +0.000 HD
ENDBRANCH   7  28
BRANCH  10  30
ATOM     30  O   UNL     1      68.446 240.079 329.638  0.00  0.00    +0.000 OA
ATOM     31  H   UNL     1      67.551 240.465 329.530  0.00  0.00    +0.000 HD
ENDBRANCH  10  30
BRANCH  13  32
ATOM     32  O   UNL     1      68.909 241.899 325.389  0.00  0.00    +0.000 OA
ATOM     33  H   UNL     1      67.960 242.044 325.537  0.00  0.00    +0.000 HD
ENDBRANCH  13  32
BRANCH  19  34
ATOM     34  O   UNL     1      67.262 239.647 334.311  0.00  0.00    +0.000 OA
ATOM     35  H   UNL     1      67.418 238.768 333.907  0.00  0.00    +0.000 HD
ENDBRANCH  19  34
BRANCH  21  36
ATOM     36  O   UNL     1      65.377 241.455 333.917  0.00  0.00    +0.000 OA
ATOM     37  C   UNL     1      64.280 241.532 333.041  0.00  0.00    +0.000 C 
ENDBRANCH  21  36
BRANCH  20  38
ATOM     38  O   UNL     1      66.752 246.081 328.758  0.00  0.00    +0.000 OA
BRANCH  38  40
ATOM     39  O   UNL     1      65.601 244.510 327.478  0.00  0.00    +0.000 OA
ATOM     40  C   UNL     1      66.176 245.570 327.639  0.00  0.00    +0.000 C 
ATOM     41  C   UNL     1      66.333 246.398 326.417  0.00  0.00    +0.000 C 
ENDBRANCH  38  40
ENDBRANCH  20  38
BRANCH   6  42
ATOM     42  C   UNL     1      72.558 238.285 330.972  0.00  0.00    +0.000 C 
BRANCH  42  44
ATOM     43  O   UNL     1      71.458 236.439 329.640  0.00  0.00    +0.000 OA
ATOM     44  C   UNL     1      72.336 236.837 330.721  0.00  0.00    +0.000 C 
ATOM     45  C   UNL     1      72.806 236.409 329.407  0.00  0.00    +0.000 C 
ATOM     46  C   UNL     1      72.098 235.889 331.943  0.00  0.00    +0.000 C 
BRANCH  45  47
ATOM     47  C   UNL     1      73.394 235.133 329.133  0.00  0.00    +0.000 C 
ATOM     48  C   UNL     1      72.648 234.116 328.307  0.00  0.00    +0.000 C 
BRANCH  47  49
ATOM     49  C   UNL     1      74.798 234.958 329.219  0.00  0.00    +0.000 C 
ATOM     50  C   UNL     1      75.978 234.753 329.258  0.00  0.00    +0.000 C 
ATOM     51  C   UNL     1      77.463 234.378 329.261  0.00  0.00    +0.000 C 
ENDBRANCH  47  49
ENDBRANCH  45  47
ENDBRANCH  42  44
BRANCH  42  52
ATOM     52  O   UNL     1      73.811 238.811 331.259  0.00  0.00    +0.000 OA
ATOM     53  H   UNL     1      73.808 239.345 332.080  0.00  0.00    +0.000 HD
ENDBRANCH  42  52
ENDBRANCH   6  42
TORSDOF 12
ENDMDL
MODEL 3
REMARK VINA RESULT:      -6.2     18.199     21.255
REMARK  Name = 101808842_CandidaspongiolideB.pdbqt.pdb
REMARK  12 active torsions:
REMARK  status: ('A' for Active; 'I' for Inactive)
REMARK    1  A    between atoms: C_6  and  C_42
REMARK    2  A    between atoms: C_7  and  O_28
REMARK    3  A    between atoms: C_10  and  O_30
REMARK    4  A    between atoms: C_13  and  O_32
REMARK    5  A    between atoms: C_19  and  O_34
REMARK    6  A    between atoms: C_20  and  O_38
REMARK    7  A    between atoms: C_21  and  O_36
REMARK    8  A    between atoms: O_38  and  C_40
REMARK    9  A    between atoms: C_42  and  C_44
REMARK   10  A    between atoms: C_42  and  O_52
REMARK   11  A    between atoms: C_45  and  C_47
REMARK   12  A    between atoms: C_47  and  C_49
REMARK                            x       y       z     vdW  Elec       q    Type
REMARK                         _______ _______ _______ _____ _____    ______ ____
ROOT
ATOM      1  O   UNL     1      66.997 240.488 336.226  0.00  0.00    +0.000 OA
ATOM      2  O   UNL     1      69.027 242.099 329.862  0.00  0.00    +0.000 OA
ATOM      3  O   UNL     1      68.183 243.231 333.865  0.00  0.00    +0.000 OA
ATOM      4  O   UNL     1      70.433 241.535 331.603  0.00  0.00    +0.000 OA
ATOM      5  O   UNL     1      70.596 238.646 332.228  0.00  0.00    +0.000 OA
ATOM      6  C   UNL     1      67.223 242.998 331.742  0.00  0.00    +0.000 C 
ATOM      7  C   UNL     1      66.735 241.257 333.592  0.00  0.00    +0.000 C 
ATOM      8  C   UNL     1      67.452 242.549 333.144  0.00  0.00    +0.000 C 
ATOM      9  C   UNL     1      68.147 242.581 330.742  0.00  0.00    +0.000 C 
ATOM     10  C   UNL     1      67.595 240.019 333.271  0.00  0.00    +0.000 C 
ATOM     11  C   UNL     1      67.936 239.206 334.394  0.00  0.00    +0.000 C 
ATOM     12  C   UNL     1      66.685 241.135 335.084  0.00  0.00    +0.000 C 
ATOM     13  C   UNL     1      67.734 239.246 335.875  0.00  0.00    +0.000 C 
ATOM     14  C   UNL     1      69.078 239.227 336.618  0.00  0.00    +0.000 C 
ATOM     15  C   UNL     1      70.305 239.463 335.929  0.00  0.00    +0.000 C 
ATOM     16  C   UNL     1      69.290 238.861 338.084  0.00  0.00    +0.000 C 
ATOM     17  C   UNL     1      70.115 241.502 330.423  0.00  0.00    +0.000 C 
ATOM     18  C   UNL     1      71.381 239.658 335.233  0.00  0.00    +0.000 C 
ATOM     19  C   UNL     1      70.848 240.705 329.411  0.00  0.00    +0.000 C 
ATOM     20  C   UNL     1      72.158 238.557 334.712  0.00  0.00    +0.000 C 
ATOM     21  C   UNL     1      71.777 239.662 329.802  0.00  0.00    +0.000 C 
ATOM     22  C   UNL     1      72.683 238.435 333.353  0.00  0.00    +0.000 C 
ATOM     23  C   UNL     1      72.488 239.556 331.067  0.00  0.00    +0.000 C 
ATOM     24  C   UNL     1      71.811 238.869 332.212  0.00  0.00    +0.000 C 
ATOM     25  C   UNL     1      71.670 241.075 334.826  0.00  0.00    +0.000 C 
ATOM     26  C   UNL     1      73.829 237.465 333.071  0.00  0.00    +0.000 C 
ATOM     27  C   UNL     1      73.772 240.356 331.253  0.00  0.00    +0.000 C 
ENDROOT
BRANCH   7  28
ATOM     28  O   UNL     1      65.435 241.057 333.076  0.00  0.00    +0.000 OA
ATOM     29  H   UNL     1      65.142 241.918 332.725  0.00  0.00    +0.000 HD
ENDBRANCH   7  28
BRANCH  10  30
ATOM     30  O   UNL     1      67.995 239.704 331.998  0.00  0.00    +0.000 OA
ATOM     31  H   UNL     1      67.242 239.379 331.460  0.00  0.00    +0.000 HD
ENDBRANCH  10  30
BRANCH  13  32
ATOM     32  O   UNL     1      66.932 238.125 336.236  0.00  0.00    +0.000 OA
ATOM     33  H   UNL     1      66.247 238.060 335.552  0.00  0.00    +0.000 HD
ENDBRANCH  13  32
BRANCH  19  34
ATOM     34  O   UNL     1      70.580 240.811 328.059  0.00  0.00    +0.000 OA
ATOM     35  H   UNL     1      70.165 240.007 327.684  0.00  0.00    +0.000 HD
ENDBRANCH  19  34
BRANCH  21  36
ATOM     36  O   UNL     1      72.291 238.922 328.750  0.00  0.00    +0.000 OA
ATOM     37  C   UNL     1      71.842 237.591 328.806  0.00  0.00    +0.000 C 
ENDBRANCH  21  36
BRANCH  20  38
ATOM     38  O   UNL     1      72.676 237.679 335.693  0.00  0.00    +0.000 OA
BRANCH  38  40
ATOM     39  O   UNL     1      70.881 236.219 335.414  0.00  0.00    +0.000 OA
ATOM     40  C   UNL     1      72.050 236.475 335.641  0.00  0.00    +0.000 C 
ATOM     41  C   UNL     1      72.901 235.307 335.979  0.00  0.00    +0.000 C 
ENDBRANCH  38  40
ENDBRANCH  20  38
BRANCH   6  42
ATOM     42  C   UNL     1      66.214 244.003 331.495  0.00  0.00    +0.000 C 
BRANCH  42  44
ATOM     43  O   UNL     1      65.061 246.164 332.126  0.00  0.00    +0.000 OA
ATOM     44  C   UNL     1      66.248 245.335 332.155  0.00  0.00    +0.000 C 
ATOM     45  C   UNL     1      65.306 245.445 333.264  0.00  0.00    +0.000 C 
ATOM     46  C   UNL     1      67.506 246.244 331.952  0.00  0.00    +0.000 C 
BRANCH  45  47
ATOM     47  C   UNL     1      65.549 246.185 334.465  0.00  0.00    +0.000 C 
ATOM     48  C   UNL     1      64.763 247.438 334.757  0.00  0.00    +0.000 C 
BRANCH  47  49
ATOM     49  C   UNL     1      66.164 245.560 335.579  0.00  0.00    +0.000 C 
ATOM     50  C   UNL     1      66.629 245.049 336.558  0.00  0.00    +0.000 C 
ATOM     51  C   UNL     1      67.132 244.447 337.873  0.00  0.00    +0.000 C 
ENDBRANCH  47  49
ENDBRANCH  45  47
ENDBRANCH  42  44
BRANCH  42  52
ATOM     52  O   UNL     1      65.233 243.649 330.578  0.00  0.00    +0.000 OA
ATOM     53  H   UNL     1      65.515 243.814 329.655  0.00  0.00    +0.000 HD
ENDBRANCH  42  52
ENDBRANCH   6  42
TORSDOF 12
ENDMDL
MODEL 4
REMARK VINA RESULT:      -6.0     17.673     20.823
REMARK  Name = 101808842_CandidaspongiolideB.pdbqt.pdb
REMARK  12 active torsions:
REMARK  status: ('A' for Active; 'I' for Inactive)
REMARK    1  A    between atoms: C_6  and  C_42
REMARK    2  A    between atoms: C_7  and  O_28
REMARK    3  A    between atoms: C_10  and  O_30
REMARK    4  A    between atoms: C_13  and  O_32
REMARK    5  A    between atoms: C_19  and  O_34
REMARK    6  A    between atoms: C_20  and  O_38
REMARK    7  A    between atoms: C_21  and  O_36
REMARK    8  A    between atoms: O_38  and  C_40
REMARK    9  A    between atoms: C_42  and  C_44
REMARK   10  A    between atoms: C_42  and  O_52
REMARK   11  A    between atoms: C_45  and  C_47
REMARK   12  A    between atoms: C_47  and  C_49
REMARK                            x       y       z     vdW  Elec       q    Type
REMARK                         _______ _______ _______ _____ _____    ______ ____
ROOT
ATOM      1  O   UNL     1      67.058 240.977 335.926  0.00  0.00    +0.000 OA
ATOM      2  O   UNL     1      69.080 241.751 329.405  0.00  0.00    +0.000 OA
ATOM      3  O   UNL     1      68.263 243.388 333.235  0.00  0.00    +0.000 OA
ATOM      4  O   UNL     1      70.487 241.396 331.199  0.00  0.00    +0.000 OA
ATOM      5  O   UNL     1      70.621 238.607 332.183  0.00  0.00    +0.000 OA
ATOM      6  C   UNL     1      67.293 242.900 331.161  0.00  0.00    +0.000 C 
ATOM      7  C   UNL     1      66.794 241.412 333.217  0.00  0.00    +0.000 C 
ATOM      8  C   UNL     1      67.522 242.629 332.608  0.00  0.00    +0.000 C 
ATOM      9  C   UNL     1      68.208 242.350 330.219  0.00  0.00    +0.000 C 
ATOM     10  C   UNL     1      67.640 240.134 333.052  0.00  0.00    +0.000 C 
ATOM     11  C   UNL     1      67.976 239.465 334.267  0.00  0.00    +0.000 C 
ATOM     12  C   UNL     1      66.748 241.479 334.713  0.00  0.00    +0.000 C 
ATOM     13  C   UNL     1      67.780 239.693 335.733  0.00  0.00    +0.000 C 
ATOM     14  C   UNL     1      69.127 239.753 336.469  0.00  0.00    +0.000 C 
ATOM     15  C   UNL     1      70.353 239.887 335.752  0.00  0.00    +0.000 C 
ATOM     16  C   UNL     1      69.341 239.573 337.968  0.00  0.00    +0.000 C 
ATOM     17  C   UNL     1      70.163 241.218 330.033  0.00  0.00    +0.000 C 
ATOM     18  C   UNL     1      71.429 239.981 335.034  0.00  0.00    +0.000 C 
ATOM     19  C   UNL     1      70.883 240.291 329.128  0.00  0.00    +0.000 C 
ATOM     20  C   UNL     1      72.192 238.815 334.654  0.00  0.00    +0.000 C 
ATOM     21  C   UNL     1      71.803 239.296 329.645  0.00  0.00    +0.000 C 
ATOM     22  C   UNL     1      72.711 238.517 333.320  0.00  0.00    +0.000 C 
ATOM     23  C   UNL     1      72.518 239.342 330.912  0.00  0.00    +0.000 C 
ATOM     24  C   UNL     1      71.838 238.813 332.136  0.00  0.00    +0.000 C 
ATOM     25  C   UNL     1      71.731 241.332 334.451  0.00  0.00    +0.000 C 
ATOM     26  C   UNL     1      73.846 237.507 333.160  0.00  0.00    +0.000 C 
ATOM     27  C   UNL     1      73.812 240.146 330.991  0.00  0.00    +0.000 C 
ENDROOT
BRANCH   7  28
ATOM     28  O   UNL     1      65.489 241.162 332.733  0.00  0.00    +0.000 OA
ATOM     29  H   UNL     1      65.185 241.992 332.322  0.00  0.00    +0.000 HD
ENDBRANCH   7  28
BRANCH  10  30
ATOM     30  O   UNL     1      68.030 239.656 331.828  0.00  0.00    +0.000 OA
ATOM     31  H   UNL     1      68.909 240.008 331.574  0.00  0.00    +0.000 HD
ENDBRANCH  10  30
BRANCH  13  32
ATOM     32  O   UNL     1      66.968 238.636 336.234  0.00  0.00    +0.000 OA
ATOM     33  H   UNL     1      66.313 239.058 336.813  0.00  0.00    +0.000 HD
ENDBRANCH  13  32
BRANCH  19  34
ATOM     34  O   UNL     1      70.611 240.230 327.774  0.00  0.00    +0.000 OA
ATOM     35  H   UNL     1      69.758 240.647 327.533  0.00  0.00    +0.000 HD
ENDBRANCH  19  34
BRANCH  21  36
ATOM     36  O   UNL     1      72.305 238.424 328.693  0.00  0.00    +0.000 OA
ATOM     37  C   UNL     1      71.777 237.133 328.868  0.00  0.00    +0.000 C 
ENDBRANCH  21  36
BRANCH  20  38
ATOM     38  O   UNL     1      72.705 238.062 335.737  0.00  0.00    +0.000 OA
BRANCH  38  40
ATOM     39  O   UNL     1      70.891 236.601 335.653  0.00  0.00    +0.000 OA
ATOM     40  C   UNL     1      72.063 236.869 335.841  0.00  0.00    +0.000 C 
ATOM     41  C   UNL     1      72.902 235.743 336.320  0.00  0.00    +0.000 C 
ENDBRANCH  38  40
ENDBRANCH  20  38
BRANCH   6  42
ATOM     42  C   UNL     1      66.293 243.877 330.792  0.00  0.00    +0.000 C 
BRANCH  42  44
ATOM     43  O   UNL     1      66.819 245.094 328.639  0.00  0.00    +0.000 OA
ATOM     44  C   UNL     1      66.643 245.132 330.076  0.00  0.00    +0.000 C 
ATOM     45  C   UNL     1      65.621 245.546 329.121  0.00  0.00    +0.000 C 
ATOM     46  C   UNL     1      67.729 246.074 330.695  0.00  0.00    +0.000 C 
BRANCH  45  47
ATOM     47  C   UNL     1      65.275 246.907 328.842  0.00  0.00    +0.000 C 
ATOM     48  C   UNL     1      65.560 247.499 327.485  0.00  0.00    +0.000 C 
BRANCH  47  49
ATOM     49  C   UNL     1      64.291 247.569 329.618  0.00  0.00    +0.000 C 
ATOM     50  C   UNL     1      63.510 248.154 330.314  0.00  0.00    +0.000 C 
ATOM     51  C   UNL     1      62.604 248.924 331.279  0.00  0.00    +0.000 C 
ENDBRANCH  47  49
ENDBRANCH  45  47
ENDBRANCH  42  44
BRANCH  42  52
ATOM     52  O   UNL     1      64.986 243.546 331.124  0.00  0.00    +0.000 OA
ATOM     53  H   UNL     1      64.348 244.232 330.842  0.00  0.00    +0.000 HD
ENDBRANCH  42  52
ENDBRANCH   6  42
TORSDOF 12
ENDMDL
MODEL 5
REMARK VINA RESULT:      -6.0     32.605     34.646
REMARK  Name = 101808842_CandidaspongiolideB.pdbqt.pdb
REMARK  12 active torsions:
REMARK  status: ('A' for Active; 'I' for Inactive)
REMARK    1  A    between atoms: C_6  and  C_42
REMARK    2  A    between atoms: C_7  and  O_28
REMARK    3  A    between atoms: C_10  and  O_30
REMARK    4  A    between atoms: C_13  and  O_32
REMARK    5  A    between atoms: C_19  and  O_34
REMARK    6  A    between atoms: C_20  and  O_38
REMARK    7  A    between atoms: C_21  and  O_36
REMARK    8  A    between atoms: O_38  and  C_40
REMARK    9  A    between atoms: C_42  and  C_44
REMARK   10  A    between atoms: C_42  and  O_52
REMARK   11  A    between atoms: C_45  and  C_47
REMARK   12  A    between atoms: C_47  and  C_49
REMARK                            x       y       z     vdW  Elec       q    Type
REMARK                         _______ _______ _______ _____ _____    ______ ____
ROOT
ATOM      1  O   UNL     1      75.670 224.630 334.842  0.00  0.00    +0.000 OA
ATOM      2  O   UNL     1      74.277 224.315 341.563  0.00  0.00    +0.000 OA
ATOM      3  O   UNL     1      74.904 222.395 337.830  0.00  0.00    +0.000 OA
ATOM      4  O   UNL     1      76.381 224.134 340.632  0.00  0.00    +0.000 OA
ATOM      5  O   UNL     1      77.619 226.682 339.773  0.00  0.00    +0.000 OA
ATOM      6  C   UNL     1      73.255 223.340 339.196  0.00  0.00    +0.000 C 
ATOM      7  C   UNL     1      74.116 224.617 337.118  0.00  0.00    +0.000 C 
ATOM      8  C   UNL     1      74.170 223.366 338.021  0.00  0.00    +0.000 C 
ATOM      9  C   UNL     1      73.750 223.808 340.447  0.00  0.00    +0.000 C 
ATOM     10  C   UNL     1      75.079 225.704 337.636  0.00  0.00    +0.000 C 
ATOM     11  C   UNL     1      76.079 226.124 336.708  0.00  0.00    +0.000 C 
ATOM     12  C   UNL     1      74.734 224.366 335.778  0.00  0.00    +0.000 C 
ATOM     13  C   UNL     1      76.516 225.751 335.327  0.00  0.00    +0.000 C 
ATOM     14  C   UNL     1      77.990 225.319 335.310  0.00  0.00    +0.000 C 
ATOM     15  C   UNL     1      78.687 225.030 336.521  0.00  0.00    +0.000 C 
ATOM     16  C   UNL     1      78.894 225.254 334.083  0.00  0.00    +0.000 C 
ATOM     17  C   UNL     1      75.621 224.526 341.506  0.00  0.00    +0.000 C 
ATOM     18  C   UNL     1      79.264 224.810 337.661  0.00  0.00    +0.000 C 
ATOM     19  C   UNL     1      76.057 225.394 342.625  0.00  0.00    +0.000 C 
ATOM     20  C   UNL     1      80.032 225.834 338.332  0.00  0.00    +0.000 C 
ATOM     21  C   UNL     1      77.322 226.102 342.582  0.00  0.00    +0.000 C 
ATOM     22  C   UNL     1      79.948 226.190 339.748  0.00  0.00    +0.000 C 
ATOM     23  C   UNL     1      78.496 225.744 341.799  0.00  0.00    +0.000 C 
ATOM     24  C   UNL     1      78.593 226.237 340.390  0.00  0.00    +0.000 C 
ATOM     25  C   UNL     1      78.932 223.514 338.343  0.00  0.00    +0.000 C 
ATOM     26  C   UNL     1      81.096 226.956 340.402  0.00  0.00    +0.000 C 
ATOM     27  C   UNL     1      79.447 224.687 342.351  0.00  0.00    +0.000 C 
ENDROOT
BRANCH   7  28
ATOM     28  O   UNL     1      72.838 225.192 336.929  0.00  0.00    +0.000 OA
ATOM     29  H   UNL     1      72.966 225.958 336.340  0.00  0.00    +0.000 HD
ENDBRANCH   7  28
BRANCH  10  30
ATOM     30  O   UNL     1      74.979 226.246 338.891  0.00  0.00    +0.000 OA
ATOM     31  H   UNL     1      74.176 225.926 339.353  0.00  0.00    +0.000 HD
ENDBRANCH  10  30
BRANCH  13  32
ATOM     32  O   UNL     1      76.302 226.879 334.483  0.00  0.00    +0.000 OA
ATOM     33  H   UNL     1      75.436 227.237 334.736  0.00  0.00    +0.000 HD
ENDBRANCH  13  32
BRANCH  19  34
ATOM     34  O   UNL     1      75.227 225.687 343.692  0.00  0.00    +0.000 OA
ATOM     35  H   UNL     1      74.526 226.334 343.469  0.00  0.00    +0.000 HD
ENDBRANCH  19  34
BRANCH  21  36
ATOM     36  O   UNL     1      77.536 226.968 343.641  0.00  0.00    +0.000 OA
ATOM     37  C   UNL     1      77.870 228.253 343.178  0.00  0.00    +0.000 C 
ENDBRANCH  21  36
BRANCH  20  38
ATOM     38  O   UNL     1      81.144 226.317 337.602  0.00  0.00    +0.000 OA
BRANCH  38  40
ATOM     39  O   UNL     1      82.635 224.628 338.196  0.00  0.00    +0.000 OA
ATOM     40  C   UNL     1      82.049 225.327 337.390  0.00  0.00    +0.000 C 
ATOM     41  C   UNL     1      82.428 225.114 335.972  0.00  0.00    +0.000 C 
ENDBRANCH  38  40
ENDBRANCH  20  38
BRANCH   6  42
ATOM     42  C   UNL     1      71.992 222.647 339.072  0.00  0.00    +0.000 C 
BRANCH  42  44
ATOM     43  O   UNL     1      72.109 220.878 340.875  0.00  0.00    +0.000 OA
ATOM     44  C   UNL     1      71.822 221.234 339.501  0.00  0.00    +0.000 C 
ATOM     45  C   UNL     1      70.799 221.070 340.528  0.00  0.00    +0.000 C 
ATOM     46  C   UNL     1      72.344 220.094 338.563  0.00  0.00    +0.000 C 
BRANCH  45  47
ATOM     47  C   UNL     1      69.924 219.941 340.629  0.00  0.00    +0.000 C 
ATOM     48  C   UNL     1      69.843 219.157 341.914  0.00  0.00    +0.000 C 
BRANCH  47  49
ATOM     49  C   UNL     1      68.825 219.807 339.744  0.00  0.00    +0.000 C 
ATOM     50  C   UNL     1      67.877 219.757 339.012  0.00  0.00    +0.000 C 
ATOM     51  C   UNL     1      66.629 219.800 338.126  0.00  0.00    +0.000 C 
ENDBRANCH  47  49
ENDBRANCH  45  47
ENDBRANCH  42  44
BRANCH  42  52
ATOM     52  O   UNL     1      70.947 223.402 338.556  0.00  0.00    +0.000 OA
ATOM     53  H   UNL     1      70.921 223.375 337.578  0.00  0.00    +0.000 HD
ENDBRANCH  42  52
ENDBRANCH   6  42
TORSDOF 12
ENDMDL
MODEL 6
REMARK VINA RESULT:      -5.8     32.482     36.480
REMARK  Name = 101808842_CandidaspongiolideB.pdbqt.pdb
REMARK  12 active torsions:
REMARK  status: ('A' for Active; 'I' for Inactive)
REMARK    1  A    between atoms: C_6  and  C_42
REMARK    2  A    between atoms: C_7  and  O_28
REMARK    3  A    between atoms: C_10  and  O_30
REMARK    4  A    between atoms: C_13  and  O_32
REMARK    5  A    between atoms: C_19  and  O_34
REMARK    6  A    between atoms: C_20  and  O_38
REMARK    7  A    between atoms: C_21  and  O_36
REMARK    8  A    between atoms: O_38  and  C_40
REMARK    9  A    between atoms: C_42  and  C_44
REMARK   10  A    between atoms: C_42  and  O_52
REMARK   11  A    between atoms: C_45  and  C_47
REMARK   12  A    between atoms: C_47  and  C_49
REMARK                            x       y       z     vdW  Elec       q    Type
REMARK                         _______ _______ _______ _____ _____    ______ ____
ROOT
ATOM      1  O   UNL     1      57.063 215.776 350.518  0.00  0.00    +0.000 OA
ATOM      2  O   UNL     1      51.158 219.288 350.448  0.00  0.00    +0.000 OA
ATOM      3  O   UNL     1      53.317 215.712 351.202  0.00  0.00    +0.000 OA
ATOM      4  O   UNL     1      52.559 219.080 352.270  0.00  0.00    +0.000 OA
ATOM      5  O   UNL     1      54.980 220.784 352.220  0.00  0.00    +0.000 OA
ATOM      6  C   UNL     1      52.133 216.871 349.549  0.00  0.00    +0.000 C 
ATOM      7  C   UNL     1      54.716 216.782 349.481  0.00  0.00    +0.000 C 
ATOM      8  C   UNL     1      53.395 216.393 350.179  0.00  0.00    +0.000 C 
ATOM      9  C   UNL     1      51.577 218.102 350.003  0.00  0.00    +0.000 C 
ATOM     10  C   UNL     1      55.219 218.148 349.991  0.00  0.00    +0.000 C 
ATOM     11  C   UNL     1      56.520 218.138 350.576  0.00  0.00    +0.000 C 
ATOM     12  C   UNL     1      55.859 215.923 349.929  0.00  0.00    +0.000 C 
ATOM     13  C   UNL     1      57.566 217.120 350.904  0.00  0.00    +0.000 C 
ATOM     14  C   UNL     1      57.897 217.127 352.403  0.00  0.00    +0.000 C 
ATOM     15  C   UNL     1      57.060 217.806 353.339  0.00  0.00    +0.000 C 
ATOM     16  C   UNL     1      59.149 216.546 353.051  0.00  0.00    +0.000 C 
ATOM     17  C   UNL     1      51.801 219.730 351.565  0.00  0.00    +0.000 C 
ATOM     18  C   UNL     1      56.270 218.467 354.127  0.00  0.00    +0.000 C 
ATOM     19  C   UNL     1      51.530 221.170 351.782  0.00  0.00    +0.000 C 
ATOM     20  C   UNL     1      56.549 219.832 354.511  0.00  0.00    +0.000 C 
ATOM     21  C   UNL     1      52.387 221.978 352.629  0.00  0.00    +0.000 C 
ATOM     22  C   UNL     1      55.598 220.942 354.514  0.00  0.00    +0.000 C 
ATOM     23  C   UNL     1      53.242 221.507 353.708  0.00  0.00    +0.000 C 
ATOM     24  C   UNL     1      54.628 221.049 353.375  0.00  0.00    +0.000 C 
ATOM     25  C   UNL     1      54.957 217.819 354.459  0.00  0.00    +0.000 C 
ATOM     26  C   UNL     1      55.898 222.190 355.341  0.00  0.00    +0.000 C 
ATOM     27  C   UNL     1      52.621 221.263 355.079  0.00  0.00    +0.000 C 
ENDROOT
BRANCH   7  28
ATOM     28  O   UNL     1      54.691 216.804 348.068  0.00  0.00    +0.000 OA
ATOM     29  H   UNL     1      53.957 217.393 347.815  0.00  0.00    +0.000 HD
ENDBRANCH   7  28
BRANCH  10  30
ATOM     30  O   UNL     1      54.481 219.298 349.879  0.00  0.00    +0.000 OA
ATOM     31  H   UNL     1      53.538 219.137 350.092  0.00  0.00    +0.000 HD
ENDBRANCH  10  30
BRANCH  13  32
ATOM     32  O   UNL     1      58.721 217.414 350.122  0.00  0.00    +0.000 OA
ATOM     33  H   UNL     1      58.556 217.019 349.250  0.00  0.00    +0.000 HD
ENDBRANCH  13  32
BRANCH  19  34
ATOM     34  O   UNL     1      50.546 221.845 351.085  0.00  0.00    +0.000 OA
ATOM     35  H   UNL     1      50.296 221.404 350.247  0.00  0.00    +0.000 HD
ENDBRANCH  19  34
BRANCH  21  36
ATOM     36  O   UNL     1      52.082 223.329 352.638  0.00  0.00    +0.000 OA
ATOM     37  C   UNL     1      53.248 224.107 352.529  0.00  0.00    +0.000 C 
ENDBRANCH  21  36
BRANCH  20  38
ATOM     38  O   UNL     1      57.770 220.017 355.202  0.00  0.00    +0.000 OA
BRANCH  38  40
ATOM     39  O   UNL     1      56.993 219.405 357.312  0.00  0.00    +0.000 OA
ATOM     40  C   UNL     1      57.768 219.334 356.376  0.00  0.00    +0.000 C 
ATOM     41  C   UNL     1      58.918 218.418 356.573  0.00  0.00    +0.000 C 
ENDBRANCH  38  40
ENDBRANCH  20  38
BRANCH   6  42
ATOM     42  C   UNL     1      51.415 215.973 348.672  0.00  0.00    +0.000 C 
BRANCH  42  44
ATOM     43  O   UNL     1      51.332 217.480 346.643  0.00  0.00    +0.000 OA
ATOM     44  C   UNL     1      50.710 216.454 347.455  0.00  0.00    +0.000 C 
ATOM     45  C   UNL     1      51.447 216.182 346.225  0.00  0.00    +0.000 C 
ATOM     46  C   UNL     1      49.173 216.737 347.538  0.00  0.00    +0.000 C 
BRANCH  45  47
ATOM     47  C   UNL     1      50.839 215.842 344.974  0.00  0.00    +0.000 C 
ATOM     48  C   UNL     1      50.367 214.433 344.718  0.00  0.00    +0.000 C 
BRANCH  47  49
ATOM     49  C   UNL     1      50.266 216.851 344.159  0.00  0.00    +0.000 C 
ATOM     50  C   UNL     1      49.830 217.690 343.424  0.00  0.00    +0.000 C 
ATOM     51  C   UNL     1      49.372 218.745 342.413  0.00  0.00    +0.000 C 
ENDBRANCH  47  49
ENDBRANCH  45  47
ENDBRANCH  42  44
BRANCH  42  52
ATOM     52  O   UNL     1      51.459 214.632 349.029  0.00  0.00    +0.000 OA
ATOM     53  H   UNL     1      52.308 214.391 349.453  0.00  0.00    +0.000 HD
ENDBRANCH  42  52
ENDBRANCH   6  42
TORSDOF 12
ENDMDL
MODEL 7
REMARK VINA RESULT:      -5.8     18.819     21.587
REMARK  Name = 101808842_CandidaspongiolideB.pdbqt.pdb
REMARK  12 active torsions:
REMARK  status: ('A' for Active; 'I' for Inactive)
REMARK    1  A    between atoms: C_6  and  C_42
REMARK    2  A    between atoms: C_7  and  O_28
REMARK    3  A    between atoms: C_10  and  O_30
REMARK    4  A    between atoms: C_13  and  O_32
REMARK    5  A    between atoms: C_19  and  O_34
REMARK    6  A    between atoms: C_20  and  O_38
REMARK    7  A    between atoms: C_21  and  O_36
REMARK    8  A    between atoms: O_38  and  C_40
REMARK    9  A    between atoms: C_42  and  C_44
REMARK   10  A    between atoms: C_42  and  O_52
REMARK   11  A    between atoms: C_45  and  C_47
REMARK   12  A    between atoms: C_47  and  C_49
REMARK                            x       y       z     vdW  Elec       q    Type
REMARK                         _______ _______ _______ _____ _____    ______ ____
ROOT
ATOM      1  O   UNL     1      70.321 237.715 336.684  0.00  0.00    +0.000 OA
ATOM      2  O   UNL     1      65.810 241.997 333.763  0.00  0.00    +0.000 OA
ATOM      3  O   UNL     1      68.274 240.907 337.042  0.00  0.00    +0.000 OA
ATOM      4  O   UNL     1      68.104 242.228 333.683  0.00  0.00    +0.000 OA
ATOM      5  O   UNL     1      69.500 240.451 331.768  0.00  0.00    +0.000 OA
ATOM      6  C   UNL     1      66.129 240.646 336.144  0.00  0.00    +0.000 C 
ATOM      7  C   UNL     1      67.848 238.720 335.994  0.00  0.00    +0.000 C 
ATOM      8  C   UNL     1      67.502 240.155 336.446  0.00  0.00    +0.000 C 
ATOM      9  C   UNL     1      65.923 241.374 334.938  0.00  0.00    +0.000 C 
ATOM     10  C   UNL     1      68.386 238.720 334.549  0.00  0.00    +0.000 C 
ATOM     11  C   UNL     1      69.694 238.175 334.387  0.00  0.00    +0.000 C 
ATOM     12  C   UNL     1      69.057 238.188 336.701  0.00  0.00    +0.000 C 
ATOM     13  C   UNL     1      70.771 237.628 335.270  0.00  0.00    +0.000 C 
ATOM     14  C   UNL     1      72.078 238.418 335.105  0.00  0.00    +0.000 C 
ATOM     15  C   UNL     1      72.099 239.675 334.431  0.00  0.00    +0.000 C 
ATOM     16  C   UNL     1      73.471 237.946 335.509  0.00  0.00    +0.000 C 
ATOM     17  C   UNL     1      66.997 242.301 333.170  0.00  0.00    +0.000 C 
ATOM     18  C   UNL     1      72.047 240.798 333.783  0.00  0.00    +0.000 C 
ATOM     19  C   UNL     1      66.789 242.662 331.748  0.00  0.00    +0.000 C 
ATOM     20  C   UNL     1      72.341 240.873 332.371  0.00  0.00    +0.000 C 
ATOM     21  C   UNL     1      67.880 242.630 330.794  0.00  0.00    +0.000 C 
ATOM     22  C   UNL     1      71.556 241.578 331.359  0.00  0.00    +0.000 C 
ATOM     23  C   UNL     1      69.301 242.744 331.089  0.00  0.00    +0.000 C 
ATOM     24  C   UNL     1      70.060 241.503 331.441  0.00  0.00    +0.000 C 
ATOM     25  C   UNL     1      71.475 241.974 334.522  0.00  0.00    +0.000 C 
ATOM     26  C   UNL     1      72.200 241.942 330.023  0.00  0.00    +0.000 C 
ATOM     27  C   UNL     1      69.899 244.134 331.273  0.00  0.00    +0.000 C 
ENDROOT
BRANCH   7  28
ATOM     28  O   UNL     1      66.808 237.769 336.095  0.00  0.00    +0.000 OA
ATOM     29  H   UNL     1      66.129 238.164 336.672  0.00  0.00    +0.000 HD
ENDBRANCH   7  28
BRANCH  10  30
ATOM     30  O   UNL     1      67.658 239.191 333.488  0.00  0.00    +0.000 OA
ATOM     31  H   UNL     1      68.114 239.939 333.049  0.00  0.00    +0.000 HD
ENDBRANCH  10  30
BRANCH  13  32
ATOM     32  O   UNL     1      70.955 236.256 334.936  0.00  0.00    +0.000 OA
ATOM     33  H   UNL     1      71.353 235.845 335.720  0.00  0.00    +0.000 HD
ENDBRANCH  13  32
BRANCH  19  34
ATOM     34  O   UNL     1      65.530 242.906 331.230  0.00  0.00    +0.000 OA
ATOM     35  H   UNL     1      65.450 242.668 330.283  0.00  0.00    +0.000 HD
ENDBRANCH  19  34
BRANCH  21  36
ATOM     36  O   UNL     1      67.509 242.872 329.482  0.00  0.00    +0.000 OA
ATOM     37  C   UNL     1      68.332 242.164 328.589  0.00  0.00    +0.000 C 
ENDBRANCH  21  36
BRANCH  20  38
ATOM     38  O   UNL     1      73.648 240.462 332.013  0.00  0.00    +0.000 OA
BRANCH  38  40
ATOM     39  O   UNL     1      74.720 242.478 332.478  0.00  0.00    +0.000 OA
ATOM     40  C   UNL     1      74.580 241.273 332.578  0.00  0.00    +0.000 C 
ATOM     41  C   UNL     1      75.618 240.577 333.377  0.00  0.00    +0.000 C 
ENDBRANCH  38  40
ENDBRANCH  20  38
BRANCH   6  42
ATOM     42  C   UNL     1      65.121 240.556 337.177  0.00  0.00    +0.000 C 
BRANCH  42  44
ATOM     43  O   UNL     1      64.304 240.951 339.537  0.00  0.00    +0.000 OA
ATOM     44  C   UNL     1      65.302 241.183 338.513  0.00  0.00    +0.000 C 
ATOM     45  C   UNL     1      65.449 240.204 339.585  0.00  0.00    +0.000 C 
ATOM     46  C   UNL     1      65.768 242.675 338.587  0.00  0.00    +0.000 C 
BRANCH  45  47
ATOM     47  C   UNL     1      66.294 240.376 340.728  0.00  0.00    +0.000 C 
ATOM     48  C   UNL     1      67.772 240.098 340.628  0.00  0.00    +0.000 C 
BRANCH  47  49
ATOM     49  C   UNL     1      65.886 241.208 341.801  0.00  0.00    +0.000 C 
ATOM     50  C   UNL     1      65.589 241.883 342.746  0.00  0.00    +0.000 C 
ATOM     51  C   UNL     1      65.284 242.672 344.022  0.00  0.00    +0.000 C 
ENDBRANCH  47  49
ENDBRANCH  45  47
ENDBRANCH  42  44
BRANCH  42  52
ATOM     52  O   UNL     1      63.965 239.872 336.822  0.00  0.00    +0.000 OA
ATOM     53  H   UNL     1      64.138 238.927 336.638  0.00  0.00    +0.000 HD
ENDBRANCH  42  52
ENDBRANCH   6  42
TORSDOF 12
ENDMDL
MODEL 8
REMARK VINA RESULT:      -5.7     21.935     25.007
REMARK  Name = 101808842_CandidaspongiolideB.pdbqt.pdb
REMARK  12 active torsions:
REMARK  status: ('A' for Active; 'I' for Inactive)
REMARK    1  A    between atoms: C_6  and  C_42
REMARK    2  A    between atoms: C_7  and  O_28
REMARK    3  A    between atoms: C_10  and  O_30
REMARK    4  A    between atoms: C_13  and  O_32
REMARK    5  A    between atoms: C_19  and  O_34
REMARK    6  A    between atoms: C_20  and  O_38
REMARK    7  A    between atoms: C_21  and  O_36
REMARK    8  A    between atoms: O_38  and  C_40
REMARK    9  A    between atoms: C_42  and  C_44
REMARK   10  A    between atoms: C_42  and  O_52
REMARK   11  A    between atoms: C_45  and  C_47
REMARK   12  A    between atoms: C_47  and  C_49
REMARK                            x       y       z     vdW  Elec       q    Type
REMARK                         _______ _______ _______ _____ _____    ______ ____
ROOT
ATOM      1  O   UNL     1      73.035 234.455 326.896  0.00  0.00    +0.000 OA
ATOM      2  O   UNL     1      70.228 229.342 323.264  0.00  0.00    +0.000 OA
ATOM      3  O   UNL     1      72.723 232.768 323.495  0.00  0.00    +0.000 OA
ATOM      4  O   UNL     1      72.297 229.268 324.284  0.00  0.00    +0.000 OA
ATOM      5  O   UNL     1      72.261 228.832 327.212  0.00  0.00    +0.000 OA
ATOM      6  C   UNL     1      70.524 232.077 323.089  0.00  0.00    +0.000 C 
ATOM      7  C   UNL     1      71.149 233.175 325.345  0.00  0.00    +0.000 C 
ATOM      8  C   UNL     1      71.580 232.683 323.947  0.00  0.00    +0.000 C 
ATOM      9  C   UNL     1      70.355 230.663 323.126  0.00  0.00    +0.000 C 
ATOM     10  C   UNL     1      71.251 232.035 326.378  0.00  0.00    +0.000 C 
ATOM     11  C   UNL     1      72.111 232.293 327.487  0.00  0.00    +0.000 C 
ATOM     12  C   UNL     1      72.147 234.124 325.936  0.00  0.00    +0.000 C 
ATOM     13  C   UNL     1      73.032 233.386 327.928  0.00  0.00    +0.000 C 
ATOM     14  C   UNL     1      74.463 232.862 328.119  0.00  0.00    +0.000 C 
ATOM     15  C   UNL     1      74.852 231.583 327.622  0.00  0.00    +0.000 C 
ATOM     16  C   UNL     1      75.570 233.541 328.920  0.00  0.00    +0.000 C 
ATOM     17  C   UNL     1      71.239 228.749 323.957  0.00  0.00    +0.000 C 
ATOM     18  C   UNL     1      75.126 230.399 327.167  0.00  0.00    +0.000 C 
ATOM     19  C   UNL     1      70.856 227.375 324.359  0.00  0.00    +0.000 C 
ATOM     20  C   UNL     1      75.058 229.228 328.010  0.00  0.00    +0.000 C 
ATOM     21  C   UNL     1      71.548 226.682 325.427  0.00  0.00    +0.000 C 
ATOM     22  C   UNL     1      74.426 227.954 327.672  0.00  0.00    +0.000 C 
ATOM     23  C   UNL     1      72.903 226.931 325.896  0.00  0.00    +0.000 C 
ATOM     24  C   UNL     1      73.116 227.983 326.940  0.00  0.00    +0.000 C 
ATOM     25  C   UNL     1      75.322 230.279 325.682  0.00  0.00    +0.000 C 
ATOM     26  C   UNL     1      74.804 226.695 328.449  0.00  0.00    +0.000 C 
ATOM     27  C   UNL     1      74.066 226.300 325.137  0.00  0.00    +0.000 C 
ENDROOT
BRANCH   7  28
ATOM     28  O   UNL     1      69.864 233.756 325.432  0.00  0.00    +0.000 OA
ATOM     29  H   UNL     1      69.900 234.582 324.916  0.00  0.00    +0.000 HD
ENDBRANCH   7  28
BRANCH  10  30
ATOM     30  O   UNL     1      70.555 230.860 326.256  0.00  0.00    +0.000 OA
ATOM     31  H   UNL     1      69.659 231.015 325.891  0.00  0.00    +0.000 HD
ENDBRANCH  10  30
BRANCH  13  32
ATOM     32  O   UNL     1      72.517 233.928 329.141  0.00  0.00    +0.000 OA
ATOM     33  H   UNL     1      72.830 233.338 329.846  0.00  0.00    +0.000 HD
ENDBRANCH  13  32
BRANCH  19  34
ATOM     34  O   UNL     1      69.739 226.745 323.842  0.00  0.00    +0.000 OA
ATOM     35  H   UNL     1      69.937 225.871 323.447  0.00  0.00    +0.000 HD
ENDBRANCH  19  34
BRANCH  21  36
ATOM     36  O   UNL     1      71.000 225.457 325.772  0.00  0.00    +0.000 OA
ATOM     37  C   UNL     1      70.924 225.317 327.169  0.00  0.00    +0.000 C 
ENDBRANCH  21  36
BRANCH  20  38
ATOM     38  O   UNL     1      75.924 229.250 329.129  0.00  0.00    +0.000 OA
BRANCH  38  40
ATOM     39  O   UNL     1      77.840 228.522 328.020  0.00  0.00    +0.000 OA
ATOM     40  C   UNL     1      77.223 229.292 328.733  0.00  0.00    +0.000 C 
ATOM     41  C   UNL     1      78.021 230.401 329.309  0.00  0.00    +0.000 C 
ENDBRANCH  38  40
ENDBRANCH  20  38
BRANCH   6  42
ATOM     42  C   UNL     1      69.871 232.911 322.104  0.00  0.00    +0.000 C 
BRANCH  42  44
ATOM     43  O   UNL     1      67.666 233.191 323.308  0.00  0.00    +0.000 OA
ATOM     44  C   UNL     1      68.394 233.074 322.062  0.00  0.00    +0.000 C 
ATOM     45  C   UNL     1      67.946 234.343 322.625  0.00  0.00    +0.000 C 
ATOM     46  C   UNL     1      67.567 232.187 321.073  0.00  0.00    +0.000 C 
BRANCH  45  47
ATOM     47  C   UNL     1      66.833 235.099 322.135  0.00  0.00    +0.000 C 
ATOM     48  C   UNL     1      65.424 234.673 322.460  0.00  0.00    +0.000 C 
BRANCH  47  49
ATOM     49  C   UNL     1      67.003 236.452 321.747  0.00  0.00    +0.000 C 
ATOM     50  C   UNL     1      67.080 237.605 321.430  0.00  0.00    +0.000 C 
ATOM     51  C   UNL     1      67.055 239.083 321.029  0.00  0.00    +0.000 C 
ENDBRANCH  47  49
ENDBRANCH  45  47
ENDBRANCH  42  44
BRANCH  42  52
ATOM     52  O   UNL     1      70.722 233.570 321.226  0.00  0.00    +0.000 OA
ATOM     53  H   UNL     1      70.841 234.511 321.466  0.00  0.00    +0.000 HD
ENDBRANCH  42  52
ENDBRANCH   6  42
TORSDOF 12
ENDMDL
MODEL 9
REMARK VINA RESULT:      -5.6     31.273     33.974
REMARK  Name = 101808842_CandidaspongiolideB.pdbqt.pdb
REMARK  12 active torsions:
REMARK  status: ('A' for Active; 'I' for Inactive)
REMARK    1  A    between atoms: C_6  and  C_42
REMARK    2  A    between atoms: C_7  and  O_28
REMARK    3  A    between atoms: C_10  and  O_30
REMARK    4  A    between atoms: C_13  and  O_32
REMARK    5  A    between atoms: C_19  and  O_34
REMARK    6  A    between atoms: C_20  and  O_38
REMARK    7  A    between atoms: C_21  and  O_36
REMARK    8  A    between atoms: O_38  and  C_40
REMARK    9  A    between atoms: C_42  and  C_44
REMARK   10  A    between atoms: C_42  and  O_52
REMARK   11  A    between atoms: C_45  and  C_47
REMARK   12  A    between atoms: C_47  and  C_49
REMARK                            x       y       z     vdW  Elec       q    Type
REMARK                         _______ _______ _______ _____ _____    ______ ____
ROOT
ATOM      1  O   UNL     1      62.900 233.318 351.754  0.00  0.00    +0.000 OA
ATOM      2  O   UNL     1      59.964 227.733 354.474  0.00  0.00    +0.000 OA
ATOM      3  O   UNL     1      60.086 230.764 351.505  0.00  0.00    +0.000 OA
ATOM      4  O   UNL     1      61.544 227.718 352.793  0.00  0.00    +0.000 OA
ATOM      5  O   UNL     1      64.339 228.161 353.664  0.00  0.00    +0.000 OA
ATOM      6  C   UNL     1      59.220 230.245 353.617  0.00  0.00    +0.000 C 
ATOM      7  C   UNL     1      61.218 231.871 353.390  0.00  0.00    +0.000 C 
ATOM      8  C   UNL     1      60.179 230.947 352.719  0.00  0.00    +0.000 C 
ATOM      9  C   UNL     1      59.550 228.933 354.061  0.00  0.00    +0.000 C 
ATOM     10  C   UNL     1      62.480 231.077 353.781  0.00  0.00    +0.000 C 
ATOM     11  C   UNL     1      63.698 231.545 353.203  0.00  0.00    +0.000 C 
ATOM     12  C   UNL     1      61.829 232.828 352.412  0.00  0.00    +0.000 C 
ATOM     13  C   UNL     1      64.112 232.604 352.231  0.00  0.00    +0.000 C 
ATOM     14  C   UNL     1      64.848 231.995 351.028  0.00  0.00    +0.000 C 
ATOM     15  C   UNL     1      64.820 230.590 350.781  0.00  0.00    +0.000 C 
ATOM     16  C   UNL     1      65.752 232.744 350.053  0.00  0.00    +0.000 C 
ATOM     17  C   UNL     1      61.052 227.254 353.811  0.00  0.00    +0.000 C 
ATOM     18  C   UNL     1      64.774 229.302 350.635  0.00  0.00    +0.000 C 
ATOM     19  C   UNL     1      61.644 226.111 354.545  0.00  0.00    +0.000 C 
ATOM     20  C   UNL     1      65.818 228.443 351.145  0.00  0.00    +0.000 C 
ATOM     21  C   UNL     1      63.007 225.683 354.300  0.00  0.00    +0.000 C 
ATOM     22  C   UNL     1      65.629 227.209 351.904  0.00  0.00    +0.000 C 
ATOM     23  C   UNL     1      63.786 225.898 353.089  0.00  0.00    +0.000 C 
ATOM     24  C   UNL     1      64.553 227.175 352.950  0.00  0.00    +0.000 C 
ATOM     25  C   UNL     1      63.495 228.733 350.092  0.00  0.00    +0.000 C 
ATOM     26  C   UNL     1      66.768 226.195 351.992  0.00  0.00    +0.000 C 
ATOM     27  C   UNL     1      63.591 224.943 351.916  0.00  0.00    +0.000 C 
ENDROOT
BRANCH   7  28
ATOM     28  O   UNL     1      60.768 232.598 354.516  0.00  0.00    +0.000 OA
ATOM     29  H   UNL     1      61.366 233.363 354.606  0.00  0.00    +0.000 HD
ENDBRANCH   7  28
BRANCH  10  30
ATOM     30  O   UNL     1      62.447 230.007 354.638  0.00  0.00    +0.000 OA
ATOM     31  H   UNL     1      63.224 230.007 355.236  0.00  0.00    +0.000 HD
ENDBRANCH  10  30
BRANCH  13  32
ATOM     32  O   UNL     1      64.943 233.531 352.924  0.00  0.00    +0.000 OA
ATOM     33  H   UNL     1      65.042 233.175 353.822  0.00  0.00    +0.000 HD
ENDBRANCH  13  32
BRANCH  19  34
ATOM     34  O   UNL     1      60.987 225.493 355.593  0.00  0.00    +0.000 OA
ATOM     35  H   UNL     1      60.542 224.660 355.331  0.00  0.00    +0.000 HD
ENDBRANCH  19  34
BRANCH  21  36
ATOM     36  O   UNL     1      63.461 224.684 355.146  0.00  0.00    +0.000 OA
ATOM     37  C   UNL     1      64.492 225.160 355.975  0.00  0.00    +0.000 C 
ENDBRANCH  21  36
BRANCH  20  38
ATOM     38  O   UNL     1      67.104 228.689 350.608  0.00  0.00    +0.000 OA
BRANCH  38  40
ATOM     39  O   UNL     1      68.396 230.611 350.867  0.00  0.00    +0.000 OA
ATOM     40  C   UNL     1      67.729 229.684 351.289  0.00  0.00    +0.000 C 
ATOM     41  C   UNL     1      67.642 229.586 352.767  0.00  0.00    +0.000 C 
ENDBRANCH  38  40
ENDBRANCH  20  38
BRANCH   6  42
ATOM     42  C   UNL     1      57.912 230.827 353.818  0.00  0.00    +0.000 C 
BRANCH  42  44
ATOM     43  O   UNL     1      55.440 230.296 353.870  0.00  0.00    +0.000 OA
ATOM     44  C   UNL     1      56.776 230.042 354.369  0.00  0.00    +0.000 C 
ATOM     45  C   UNL     1      56.113 229.218 353.364  0.00  0.00    +0.000 C 
ATOM     46  C   UNL     1      56.703 229.805 355.915  0.00  0.00    +0.000 C 
BRANCH  45  47
ATOM     47  C   UNL     1      55.557 227.923 353.615  0.00  0.00    +0.000 C 
ATOM     48  C   UNL     1      54.153 227.600 353.169  0.00  0.00    +0.000 C 
BRANCH  47  49
ATOM     49  C   UNL     1      56.406 226.813 353.856  0.00  0.00    +0.000 C 
ATOM     50  C   UNL     1      57.077 225.836 354.031  0.00  0.00    +0.000 C 
ATOM     51  C   UNL     1      57.837 224.520 354.220  0.00  0.00    +0.000 C 
ENDBRANCH  47  49
ENDBRANCH  45  47
ENDBRANCH  42  44
BRANCH  42  52
ATOM     52  O   UNL     1      57.802 232.172 353.492  0.00  0.00    +0.000 OA
ATOM     53  H   UNL     1      58.669 232.626 353.504  0.00  0.00    +0.000 HD
ENDBRANCH  42  52
ENDBRANCH   6  42
TORSDOF 12
ENDMDL
