MODEL 1
REMARK VINA RESULT:      -5.7      0.000      0.000
REMARK  Name = 102471178_CandidaspongiolideCore.pdbqt.pdb
REMARK  13 active torsions:
REMARK  status: ('A' for Active; 'I' for Inactive)
REMARK    1  A    between atoms: C_6  and  C_39
REMARK    2  A    between atoms: C_8  and  O_27
REMARK    3  A    between atoms: C_8  and  C_51
REMARK    4  A    between atoms: C_10  and  O_29
REMARK    5  A    between atoms: C_15  and  O_31
REMARK    6  A    between atoms: C_16  and  O_33
REMARK    7  A    between atoms: C_21  and  O_35
REMARK    8  A    between atoms: O_35  and  C_37
REMARK    9  A    between atoms: C_39  and  C_41
REMARK   10  A    between atoms: C_39  and  O_49
REMARK   11  A    between atoms: C_42  and  C_44
REMARK   12  A    between atoms: C_44  and  C_46
REMARK   13  A    between atoms: C_51  and  O_52
REMARK                            x       y       z     vdW  Elec       q    Type
REMARK                         _______ _______ _______ _____ _____    ______ ____
ROOT
ATOM      1  O   UNL     1      47.189 241.096 326.643  0.00  0.00    +0.000 OA
ATOM      2  O   UNL     1      46.610 239.578 325.020  0.00  0.00    +0.000 OA
ATOM      3  O   UNL     1      47.382 236.294 321.406  0.00  0.00    +0.000 OA
ATOM      4  O   UNL     1      45.895 240.410 328.361  0.00  0.00    +0.000 OA
ATOM      5  O   UNL     1      43.469 238.989 326.243  0.00  0.00    +0.000 OA
ATOM      6  C   UNL     1      48.823 240.497 325.112  0.00  0.00    +0.000 C 
ATOM      7  C   UNL     1      49.189 240.348 323.745  0.00  0.00    +0.000 C 
ATOM      8  C   UNL     1      49.662 240.328 322.359  0.00  0.00    +0.000 C 
ATOM      9  C   UNL     1      47.420 240.315 325.568  0.00  0.00    +0.000 C 
ATOM     10  C   UNL     1      49.831 238.919 321.834  0.00  0.00    +0.000 C 
ATOM     11  C   UNL     1      48.920 237.856 322.075  0.00  0.00    +0.000 C 
ATOM     12  C   UNL     1      47.933 236.835 322.358  0.00  0.00    +0.000 C 
ATOM     13  C   UNL     1      46.001 240.912 327.249  0.00  0.00    +0.000 C 
ATOM     14  C   UNL     1      47.575 236.499 323.770  0.00  0.00    +0.000 C 
ATOM     15  C   UNL     1      44.848 241.630 326.651  0.00  0.00    +0.000 C 
ATOM     16  C   UNL     1      44.526 241.637 325.239  0.00  0.00    +0.000 C 
ATOM     17  C   UNL     1      43.691 240.659 324.554  0.00  0.00    +0.000 C 
ATOM     18  C   UNL     1      46.260 236.071 324.075  0.00  0.00    +0.000 C 
ATOM     19  C   UNL     1      43.978 238.156 324.080  0.00  0.00    +0.000 C 
ATOM     20  C   UNL     1      48.468 236.868 324.946  0.00  0.00    +0.000 C 
ATOM     21  C   UNL     1      44.018 236.789 324.587  0.00  0.00    +0.000 C 
ATOM     22  C   UNL     1      43.669 239.251 325.055  0.00  0.00    +0.000 C 
ATOM     23  C   UNL     1      45.018 235.770 324.299  0.00  0.00    +0.000 C 
ATOM     24  C   UNL     1      42.621 241.091 323.556  0.00  0.00    +0.000 C 
ATOM     25  C   UNL     1      44.529 238.446 322.691  0.00  0.00    +0.000 C 
ATOM     26  C   UNL     1      44.684 234.301 324.293  0.00  0.00    +0.000 C 
ENDROOT
BRANCH   8  27
ATOM     27  O   UNL     1      50.942 240.964 322.378  0.00  0.00    +0.000 OA
ATOM     28  H   UNL     1      50.782 241.841 321.974  0.00  0.00    +0.000 HD
ENDBRANCH   8  27
BRANCH  10  29
ATOM     29  O   UNL     1      50.929 238.679 321.022  0.00  0.00    +0.000 OA
ATOM     30  H   UNL     1      50.678 238.265 320.175  0.00  0.00    +0.000 HD
ENDBRANCH  10  29
BRANCH  15  31
ATOM     31  O   UNL     1      43.763 241.902 327.470  0.00  0.00    +0.000 OA
ATOM     32  H   UNL     1      43.951 242.677 328.042  0.00  0.00    +0.000 HD
ENDBRANCH  15  31
BRANCH  16  33
ATOM     33  O   UNL     1      44.594 242.876 324.626  0.00  0.00    +0.000 OA
ATOM     34  C   UNL     1      45.895 243.077 324.131  0.00  0.00    +0.000 C 
ENDBRANCH  16  33
BRANCH  21  35
ATOM     35  O   UNL     1      42.855 236.393 325.296  0.00  0.00    +0.000 OA
BRANCH  35  37
ATOM     36  O   UNL     1      41.558 235.729 323.466  0.00  0.00    +0.000 OA
ATOM     37  C   UNL     1      41.747 236.332 324.508  0.00  0.00    +0.000 C 
ATOM     38  C   UNL     1      40.580 237.093 325.024  0.00  0.00    +0.000 C 
ENDBRANCH  35  37
ENDBRANCH  21  35
BRANCH   6  39
ATOM     39  C   UNL     1      49.884 240.747 326.061  0.00  0.00    +0.000 C 
BRANCH  39  41
ATOM     40  O   UNL     1      51.191 242.457 327.429  0.00  0.00    +0.000 OA
ATOM     41  C   UNL     1      50.398 242.130 326.265  0.00  0.00    +0.000 C 
ATOM     42  C   UNL     1      51.857 242.182 326.268  0.00  0.00    +0.000 C 
ATOM     43  C   UNL     1      49.475 243.349 325.903  0.00  0.00    +0.000 C 
BRANCH  42  44
ATOM     44  C   UNL     1      52.632 243.236 325.688  0.00  0.00    +0.000 C 
ATOM     45  C   UNL     1      53.495 244.115 326.564  0.00  0.00    +0.000 C 
BRANCH  44  46
ATOM     46  C   UNL     1      52.980 243.203 324.314  0.00  0.00    +0.000 C 
ATOM     47  C   UNL     1      53.265 243.223 323.150  0.00  0.00    +0.000 C 
ATOM     48  C   UNL     1      53.628 243.320 321.662  0.00  0.00    +0.000 C 
ENDBRANCH  44  46
ENDBRANCH  42  44
ENDBRANCH  39  41
BRANCH  39  49
ATOM     49  O   UNL     1      50.426 239.644 326.701  0.00  0.00    +0.000 OA
ATOM     50  H   UNL     1      51.270 239.818 327.160  0.00  0.00    +0.000 HD
ENDBRANCH  39  49
ENDBRANCH   6  39
BRANCH   8  51
ATOM     51  C   UNL     1      48.788 241.106 321.466  0.00  0.00    +0.000 C 
BRANCH  51  52
ATOM     52  O   UNL     1      48.014 241.790 320.622  0.00  0.00    +0.000 OA
ATOM     53  H   UNL     1      48.555 242.315 319.999  0.00  0.00    +0.000 HD
ENDBRANCH  51  52
ENDBRANCH   8  51
TORSDOF 13
ENDMDL
MODEL 2
REMARK VINA RESULT:      -5.5     22.826     27.359
REMARK  Name = 102471178_CandidaspongiolideCore.pdbqt.pdb
REMARK  13 active torsions:
REMARK  status: ('A' for Active; 'I' for Inactive)
REMARK    1  A    between atoms: C_6  and  C_39
REMARK    2  A    between atoms: C_8  and  O_27
REMARK    3  A    between atoms: C_8  and  C_51
REMARK    4  A    between atoms: C_10  and  O_29
REMARK    5  A    between atoms: C_15  and  O_31
REMARK    6  A    between atoms: C_16  and  O_33
REMARK    7  A    between atoms: C_21  and  O_35
REMARK    8  A    between atoms: O_35  and  C_37
REMARK    9  A    between atoms: C_39  and  C_41
REMARK   10  A    between atoms: C_39  and  O_49
REMARK   11  A    between atoms: C_42  and  C_44
REMARK   12  A    between atoms: C_44  and  C_46
REMARK   13  A    between atoms: C_51  and  O_52
REMARK                            x       y       z     vdW  Elec       q    Type
REMARK                         _______ _______ _______ _____ _____    ______ ____
ROOT
ATOM      1  O   UNL     1      74.307 239.885 334.643  0.00  0.00    +0.000 OA
ATOM      2  O   UNL     1      72.064 239.752 334.167  0.00  0.00    +0.000 OA
ATOM      3  O   UNL     1      67.504 237.848 334.323  0.00  0.00    +0.000 OA
ATOM      4  O   UNL     1      74.503 242.062 335.207  0.00  0.00    +0.000 OA
ATOM      5  O   UNL     1      71.740 243.034 333.256  0.00  0.00    +0.000 OA
ATOM      6  C   UNL     1      73.240 237.876 335.088  0.00  0.00    +0.000 C 
ATOM      7  C   UNL     1      72.408 236.827 334.605  0.00  0.00    +0.000 C 
ATOM      8  C   UNL     1      71.688 235.652 334.108  0.00  0.00    +0.000 C 
ATOM      9  C   UNL     1      73.108 239.269 334.586  0.00  0.00    +0.000 C 
ATOM     10  C   UNL     1      70.285 235.563 334.666  0.00  0.00    +0.000 C 
ATOM     11  C   UNL     1      69.407 236.671 334.815  0.00  0.00    +0.000 C 
ATOM     12  C   UNL     1      68.575 237.850 334.920  0.00  0.00    +0.000 C 
ATOM     13  C   UNL     1      74.296 241.201 334.361  0.00  0.00    +0.000 C 
ATOM     14  C   UNL     1      69.041 239.040 335.695  0.00  0.00    +0.000 C 
ATOM     15  C   UNL     1      74.337 241.557 332.921  0.00  0.00    +0.000 C 
ATOM     16  C   UNL     1      73.488 240.971 331.904  0.00  0.00    +0.000 C 
ATOM     17  C   UNL     1      72.167 241.454 331.521  0.00  0.00    +0.000 C 
ATOM     18  C   UNL     1      68.642 240.338 335.291  0.00  0.00    +0.000 C 
ATOM     19  C   UNL     1      69.931 241.577 332.769  0.00  0.00    +0.000 C 
ATOM     20  C   UNL     1      70.159 238.955 336.724  0.00  0.00    +0.000 C 
ATOM     21  C   UNL     1      69.123 242.185 333.820  0.00  0.00    +0.000 C 
ATOM     22  C   UNL     1      71.312 242.116 332.553  0.00  0.00    +0.000 C 
ATOM     23  C   UNL     1      68.312 241.500 334.817  0.00  0.00    +0.000 C 
ATOM     24  C   UNL     1      71.765 241.581 330.055  0.00  0.00    +0.000 C 
ATOM     25  C   UNL     1      69.473 240.263 332.151  0.00  0.00    +0.000 C 
ATOM     26  C   UNL     1      67.067 242.120 335.398  0.00  0.00    +0.000 C 
ENDROOT
BRANCH   8  27
ATOM     27  O   UNL     1      72.433 234.520 334.565  0.00  0.00    +0.000 OA
ATOM     28  H   UNL     1      71.952 233.751 334.198  0.00  0.00    +0.000 HD
ENDBRANCH   8  27
BRANCH  10  29
ATOM     29  O   UNL     1      69.821 234.301 335.002  0.00  0.00    +0.000 OA
ATOM     30  H   UNL     1      70.538 233.713 335.304  0.00  0.00    +0.000 HD
ENDBRANCH  10  29
BRANCH  15  31
ATOM     31  O   UNL     1      74.833 242.806 332.579  0.00  0.00    +0.000 OA
ATOM     32  H   UNL     1      75.343 243.187 333.326  0.00  0.00    +0.000 HD
ENDBRANCH  15  31
BRANCH  16  33
ATOM     33  O   UNL     1      74.150 240.249 330.927  0.00  0.00    +0.000 OA
ATOM     34  C   UNL     1      73.922 238.876 331.130  0.00  0.00    +0.000 C 
ENDBRANCH  16  33
BRANCH  21  35
ATOM     35  O   UNL     1      69.006 243.595 333.727  0.00  0.00    +0.000 OA
BRANCH  35  37
ATOM     36  O   UNL     1      67.270 243.567 332.159  0.00  0.00    +0.000 OA
ATOM     37  C   UNL     1      68.307 243.998 332.629  0.00  0.00    +0.000 C 
ATOM     38  C   UNL     1      68.888 245.169 331.923  0.00  0.00    +0.000 C 
ENDBRANCH  35  37
ENDBRANCH  21  35
BRANCH   6  39
ATOM     39  C   UNL     1      74.162 237.557 336.154  0.00  0.00    +0.000 C 
BRANCH  39  41
ATOM     40  O   UNL     1      72.480 236.726 337.882  0.00  0.00    +0.000 OA
ATOM     41  C   UNL     1      73.680 237.468 337.561  0.00  0.00    +0.000 C 
ATOM     42  C   UNL     1      73.679 236.095 338.058  0.00  0.00    +0.000 C 
ATOM     43  C   UNL     1      73.771 238.737 338.481  0.00  0.00    +0.000 C 
BRANCH  42  44
ATOM     44  C   UNL     1      74.034 235.716 339.392  0.00  0.00    +0.000 C 
ATOM     45  C   UNL     1      72.976 235.643 340.468  0.00  0.00    +0.000 C 
BRANCH  44  46
ATOM     46  C   UNL     1      75.219 234.977 339.640  0.00  0.00    +0.000 C 
ATOM     47  C   UNL     1      76.199 234.313 339.828  0.00  0.00    +0.000 C 
ATOM     48  C   UNL     1      77.426 233.414 340.025  0.00  0.00    +0.000 C 
ENDBRANCH  44  46
ENDBRANCH  42  44
ENDBRANCH  39  41
BRANCH  39  49
ATOM     49  O   UNL     1      75.495 237.412 335.807  0.00  0.00    +0.000 OA
ATOM     50  H   UNL     1      75.980 238.253 335.705  0.00  0.00    +0.000 HD
ENDBRANCH  39  49
ENDBRANCH   6  39
BRANCH   8  51
ATOM     51  C   UNL     1      71.659 235.604 332.637  0.00  0.00    +0.000 C 
BRANCH  51  52
ATOM     52  O   UNL     1      71.675 235.571 331.304  0.00  0.00    +0.000 OA
ATOM     53  H   UNL     1      70.786 235.371 330.948  0.00  0.00    +0.000 HD
ENDBRANCH  51  52
ENDBRANCH   8  51
TORSDOF 13
ENDMDL
MODEL 3
REMARK VINA RESULT:      -5.4      1.428      2.371
REMARK  Name = 102471178_CandidaspongiolideCore.pdbqt.pdb
REMARK  13 active torsions:
REMARK  status: ('A' for Active; 'I' for Inactive)
REMARK    1  A    between atoms: C_6  and  C_39
REMARK    2  A    between atoms: C_8  and  O_27
REMARK    3  A    between atoms: C_8  and  C_51
REMARK    4  A    between atoms: C_10  and  O_29
REMARK    5  A    between atoms: C_15  and  O_31
REMARK    6  A    between atoms: C_16  and  O_33
REMARK    7  A    between atoms: C_21  and  O_35
REMARK    8  A    between atoms: O_35  and  C_37
REMARK    9  A    between atoms: C_39  and  C_41
REMARK   10  A    between atoms: C_39  and  O_49
REMARK   11  A    between atoms: C_42  and  C_44
REMARK   12  A    between atoms: C_44  and  C_46
REMARK   13  A    between atoms: C_51  and  O_52
REMARK                            x       y       z     vdW  Elec       q    Type
REMARK                         _______ _______ _______ _____ _____    ______ ____
ROOT
ATOM      1  O   UNL     1      47.251 241.086 326.499  0.00  0.00    +0.000 OA
ATOM      2  O   UNL     1      46.853 239.534 324.853  0.00  0.00    +0.000 OA
ATOM      3  O   UNL     1      48.012 236.333 321.269  0.00  0.00    +0.000 OA
ATOM      4  O   UNL     1      45.948 240.295 328.165  0.00  0.00    +0.000 OA
ATOM      5  O   UNL     1      43.721 238.703 325.954  0.00  0.00    +0.000 OA
ATOM      6  C   UNL     1      48.984 240.620 325.032  0.00  0.00    +0.000 C 
ATOM      7  C   UNL     1      49.412 240.504 323.680  0.00  0.00    +0.000 C 
ATOM      8  C   UNL     1      49.939 240.525 322.313  0.00  0.00    +0.000 C 
ATOM      9  C   UNL     1      47.582 240.328 325.434  0.00  0.00    +0.000 C 
ATOM     10  C   UNL     1      50.235 239.135 321.794  0.00  0.00    +0.000 C 
ATOM     11  C   UNL     1      49.399 238.005 321.998  0.00  0.00    +0.000 C 
ATOM     12  C   UNL     1      48.483 236.911 322.242  0.00  0.00    +0.000 C 
ATOM     13  C   UNL     1      46.058 240.809 327.058  0.00  0.00    +0.000 C 
ATOM     14  C   UNL     1      48.098 236.543 323.638  0.00  0.00    +0.000 C 
ATOM     15  C   UNL     1      44.877 241.439 326.417  0.00  0.00    +0.000 C 
ATOM     16  C   UNL     1      44.610 241.428 324.993  0.00  0.00    +0.000 C 
ATOM     17  C   UNL     1      43.879 240.391 324.276  0.00  0.00    +0.000 C 
ATOM     18  C   UNL     1      46.809 236.014 323.892  0.00  0.00    +0.000 C 
ATOM     19  C   UNL     1      44.375 237.919 323.810  0.00  0.00    +0.000 C 
ATOM     20  C   UNL     1      48.914 236.974 324.849  0.00  0.00    +0.000 C 
ATOM     21  C   UNL     1      44.500 236.557 324.317  0.00  0.00    +0.000 C 
ATOM     22  C   UNL     1      43.946 238.983 324.774  0.00  0.00    +0.000 C 
ATOM     23  C   UNL     1      45.585 235.619 324.067  0.00  0.00    +0.000 C 
ATOM     24  C   UNL     1      42.819 240.744 323.237  0.00  0.00    +0.000 C 
ATOM     25  C   UNL     1      44.956 238.256 322.444  0.00  0.00    +0.000 C 
ATOM     26  C   UNL     1      45.365 234.128 324.047  0.00  0.00    +0.000 C 
ENDROOT
BRANCH   8  27
ATOM     27  O   UNL     1      51.165 241.257 322.382  0.00  0.00    +0.000 OA
ATOM     28  H   UNL     1      51.859 240.568 322.371  0.00  0.00    +0.000 HD
ENDBRANCH   8  27
BRANCH  10  29
ATOM     29  O   UNL     1      51.379 238.983 321.025  0.00  0.00    +0.000 OA
ATOM     30  H   UNL     1      52.096 238.540 321.514  0.00  0.00    +0.000 HD
ENDBRANCH  10  29
BRANCH  15  31
ATOM     31  O   UNL     1      43.744 241.624 327.194  0.00  0.00    +0.000 OA
ATOM     32  H   UNL     1      43.577 242.581 327.334  0.00  0.00    +0.000 HD
ENDBRANCH  15  31
BRANCH  16  33
ATOM     33  O   UNL     1      44.607 242.670 324.384  0.00  0.00    +0.000 OA
ATOM     34  C   UNL     1      45.820 242.852 323.695  0.00  0.00    +0.000 C 
ENDBRANCH  16  33
BRANCH  21  35
ATOM     35  O   UNL     1      43.345 236.071 324.981  0.00  0.00    +0.000 OA
BRANCH  35  37
ATOM     36  O   UNL     1      42.175 235.348 323.088  0.00  0.00    +0.000 OA
ATOM     37  C   UNL     1      42.274 235.934 324.151  0.00  0.00    +0.000 C 
ATOM     38  C   UNL     1      41.026 236.573 324.644  0.00  0.00    +0.000 C 
ENDBRANCH  35  37
ENDBRANCH  21  35
BRANCH   6  39
ATOM     39  C   UNL     1      49.985 240.946 326.022  0.00  0.00    +0.000 C 
BRANCH  39  41
ATOM     40  O   UNL     1      49.783 243.453 325.603  0.00  0.00    +0.000 OA
ATOM     41  C   UNL     1      50.541 242.325 326.099  0.00  0.00    +0.000 C 
ATOM     42  C   UNL     1      49.734 243.200 326.945  0.00  0.00    +0.000 C 
ATOM     43  C   UNL     1      52.067 242.551 325.803  0.00  0.00    +0.000 C 
BRANCH  42  44
ATOM     44  C   UNL     1      50.268 244.196 327.823  0.00  0.00    +0.000 C 
ATOM     45  C   UNL     1      50.572 245.582 327.304  0.00  0.00    +0.000 C 
BRANCH  44  46
ATOM     46  C   UNL     1      50.095 244.087 329.226  0.00  0.00    +0.000 C 
ATOM     47  C   UNL     1      49.907 243.968 330.405  0.00  0.00    +0.000 C 
ATOM     48  C   UNL     1      49.617 243.767 331.898  0.00  0.00    +0.000 C 
ENDBRANCH  44  46
ENDBRANCH  42  44
ENDBRANCH  39  41
BRANCH  39  49
ATOM     49  O   UNL     1      50.433 239.910 326.825  0.00  0.00    +0.000 OA
ATOM     50  H   UNL     1      50.506 239.049 326.371  0.00  0.00    +0.000 HD
ENDBRANCH  39  49
ENDBRANCH   6  39
BRANCH   8  51
ATOM     51  C   UNL     1      49.043 241.238 321.388  0.00  0.00    +0.000 C 
BRANCH  51  52
ATOM     52  O   UNL     1      48.235 241.850 320.521  0.00  0.00    +0.000 OA
ATOM     53  H   UNL     1      47.519 242.327 320.988  0.00  0.00    +0.000 HD
ENDBRANCH  51  52
ENDBRANCH   8  51
TORSDOF 13
ENDMDL
MODEL 4
REMARK VINA RESULT:      -5.2     32.780     36.122
REMARK  Name = 102471178_CandidaspongiolideCore.pdbqt.pdb
REMARK  13 active torsions:
REMARK  status: ('A' for Active; 'I' for Inactive)
REMARK    1  A    between atoms: C_6  and  C_39
REMARK    2  A    between atoms: C_8  and  O_27
REMARK    3  A    between atoms: C_8  and  C_51
REMARK    4  A    between atoms: C_10  and  O_29
REMARK    5  A    between atoms: C_15  and  O_31
REMARK    6  A    between atoms: C_16  and  O_33
REMARK    7  A    between atoms: C_21  and  O_35
REMARK    8  A    between atoms: O_35  and  C_37
REMARK    9  A    between atoms: C_39  and  C_41
REMARK   10  A    between atoms: C_39  and  O_49
REMARK   11  A    between atoms: C_42  and  C_44
REMARK   12  A    between atoms: C_44  and  C_46
REMARK   13  A    between atoms: C_51  and  O_52
REMARK                            x       y       z     vdW  Elec       q    Type
REMARK                         _______ _______ _______ _____ _____    ______ ____
ROOT
ATOM      1  O   UNL     1      72.046 218.794 336.837  0.00  0.00    +0.000 OA
ATOM      2  O   UNL     1      73.099 219.829 338.597  0.00  0.00    +0.000 OA
ATOM      3  O   UNL     1      74.427 223.608 341.495  0.00  0.00    +0.000 OA
ATOM      4  O   UNL     1      71.113 217.018 337.873  0.00  0.00    +0.000 OA
ATOM      5  O   UNL     1      73.530 216.972 340.430  0.00  0.00    +0.000 OA
ATOM      6  C   UNL     1      72.216 221.105 336.769  0.00  0.00    +0.000 C 
ATOM      7  C   UNL     1      73.057 222.249 336.863  0.00  0.00    +0.000 C 
ATOM      8  C   UNL     1      73.902 223.444 336.796  0.00  0.00    +0.000 C 
ATOM      9  C   UNL     1      72.507 219.859 337.525  0.00  0.00    +0.000 C 
ATOM     10  C   UNL     1      73.746 224.324 338.017  0.00  0.00    +0.000 C 
ATOM     11  C   UNL     1      73.654 223.841 339.350  0.00  0.00    +0.000 C 
ATOM     12  C   UNL     1      73.582 223.264 340.676  0.00  0.00    +0.000 C 
ATOM     13  C   UNL     1      72.109 217.615 337.483  0.00  0.00    +0.000 C 
ATOM     14  C   UNL     1      72.534 222.250 341.004  0.00  0.00    +0.000 C 
ATOM     15  C   UNL     1      73.415 216.912 337.426  0.00  0.00    +0.000 C 
ATOM     16  C   UNL     1      74.696 217.532 337.698  0.00  0.00    +0.000 C 
ATOM     17  C   UNL     1      75.324 217.641 339.008  0.00  0.00    +0.000 C 
ATOM     18  C   UNL     1      72.816 221.236 341.952  0.00  0.00    +0.000 C 
ATOM     19  C   UNL     1      74.691 218.916 341.140  0.00  0.00    +0.000 C 
ATOM     20  C   UNL     1      71.279 222.074 340.162  0.00  0.00    +0.000 C 
ATOM     21  C   UNL     1      73.800 219.062 342.286  0.00  0.00    +0.000 C 
ATOM     22  C   UNL     1      74.456 217.758 340.219  0.00  0.00    +0.000 C 
ATOM     23  C   UNL     1      73.168 220.285 342.762  0.00  0.00    +0.000 C 
ATOM     24  C   UNL     1      76.805 217.331 339.205  0.00  0.00    +0.000 C 
ATOM     25  C   UNL     1      75.607 220.073 340.762  0.00  0.00    +0.000 C 
ATOM     26  C   UNL     1      72.837 220.500 344.216  0.00  0.00    +0.000 C 
ENDROOT
BRANCH   8  27
ATOM     27  O   UNL     1      73.455 224.171 335.650  0.00  0.00    +0.000 OA
ATOM     28  H   UNL     1      72.617 224.585 335.938  0.00  0.00    +0.000 HD
ENDBRANCH   8  27
BRANCH  10  29
ATOM     29  O   UNL     1      73.745 225.694 337.807  0.00  0.00    +0.000 OA
ATOM     30  H   UNL     1      74.089 226.185 338.576  0.00  0.00    +0.000 HD
ENDBRANCH  10  29
BRANCH  15  31
ATOM     31  O   UNL     1      73.414 215.537 337.602  0.00  0.00    +0.000 OA
ATOM     32  H   UNL     1      72.638 215.260 338.134  0.00  0.00    +0.000 HD
ENDBRANCH  15  31
BRANCH  16  33
ATOM     33  O   UNL     1      75.571 217.570 336.627  0.00  0.00    +0.000 OA
ATOM     34  C   UNL     1      75.567 218.861 336.070  0.00  0.00    +0.000 C 
ENDBRANCH  16  33
BRANCH  21  35
ATOM     35  O   UNL     1      73.696 217.904 343.098  0.00  0.00    +0.000 OA
BRANCH  35  37
ATOM     36  O   UNL     1      75.594 218.268 344.417  0.00  0.00    +0.000 OA
ATOM     37  C   UNL     1      74.865 217.585 343.720  0.00  0.00    +0.000 C 
ATOM     38  C   UNL     1      75.291 216.172 343.547  0.00  0.00    +0.000 C 
ENDBRANCH  35  37
ENDBRANCH  21  35
BRANCH   6  39
ATOM     39  C   UNL     1      71.013 221.227 335.978  0.00  0.00    +0.000 C 
BRANCH  39  41
ATOM     40  O   UNL     1      68.463 221.195 335.999  0.00  0.00    +0.000 OA
ATOM     41  C   UNL     1      69.714 221.551 336.632  0.00  0.00    +0.000 C 
ATOM     42  C   UNL     1      68.947 220.352 336.959  0.00  0.00    +0.000 C 
ATOM     43  C   UNL     1      69.553 222.927 337.370  0.00  0.00    +0.000 C 
BRANCH  42  44
ATOM     44  C   UNL     1      68.166 220.189 338.148  0.00  0.00    +0.000 C 
ATOM     45  C   UNL     1      66.660 220.110 338.062  0.00  0.00    +0.000 C 
BRANCH  44  46
ATOM     46  C   UNL     1      68.747 219.648 339.323  0.00  0.00    +0.000 C 
ATOM     47  C   UNL     1      69.276 219.222 340.311  0.00  0.00    +0.000 C 
ATOM     48  C   UNL     1      69.998 218.732 341.573  0.00  0.00    +0.000 C 
ENDBRANCH  44  46
ENDBRANCH  42  44
ENDBRANCH  39  41
BRANCH  39  49
ATOM     49  O   UNL     1      71.124 220.963 334.623  0.00  0.00    +0.000 OA
ATOM     50  H   UNL     1      70.481 221.439 334.064  0.00  0.00    +0.000 HD
ENDBRANCH  39  49
ENDBRANCH   6  39
BRANCH   8  51
ATOM     51  C   UNL     1      75.320 223.105 336.587  0.00  0.00    +0.000 C 
BRANCH  51  52
ATOM     52  O   UNL     1      76.613 222.818 336.435  0.00  0.00    +0.000 OA
ATOM     53  H   UNL     1      77.161 223.626 336.497  0.00  0.00    +0.000 HD
ENDBRANCH  51  52
ENDBRANCH   8  51
TORSDOF 13
ENDMDL
MODEL 5
REMARK VINA RESULT:      -5.2     32.278     35.041
REMARK  Name = 102471178_CandidaspongiolideCore.pdbqt.pdb
REMARK  13 active torsions:
REMARK  status: ('A' for Active; 'I' for Inactive)
REMARK    1  A    between atoms: C_6  and  C_39
REMARK    2  A    between atoms: C_8  and  O_27
REMARK    3  A    between atoms: C_8  and  C_51
REMARK    4  A    between atoms: C_10  and  O_29
REMARK    5  A    between atoms: C_15  and  O_31
REMARK    6  A    between atoms: C_16  and  O_33
REMARK    7  A    between atoms: C_21  and  O_35
REMARK    8  A    between atoms: O_35  and  C_37
REMARK    9  A    between atoms: C_39  and  C_41
REMARK   10  A    between atoms: C_39  and  O_49
REMARK   11  A    between atoms: C_42  and  C_44
REMARK   12  A    between atoms: C_44  and  C_46
REMARK   13  A    between atoms: C_51  and  O_52
REMARK                            x       y       z     vdW  Elec       q    Type
REMARK                         _______ _______ _______ _____ _____    ______ ____
ROOT
ATOM      1  O   UNL     1      53.411 226.267 353.811  0.00  0.00    +0.000 OA
ATOM      2  O   UNL     1      55.577 226.884 354.261  0.00  0.00    +0.000 OA
ATOM      3  O   UNL     1      60.452 226.252 354.791  0.00  0.00    +0.000 OA
ATOM      4  O   UNL     1      52.762 227.934 352.434  0.00  0.00    +0.000 OA
ATOM      5  O   UNL     1      55.055 230.233 353.791  0.00  0.00    +0.000 OA
ATOM      6  C   UNL     1      54.948 224.571 354.180  0.00  0.00    +0.000 C 
ATOM      7  C   UNL     1      55.958 224.031 355.024  0.00  0.00    +0.000 C 
ATOM      8  C   UNL     1      56.888 223.357 355.934  0.00  0.00    +0.000 C 
ATOM      9  C   UNL     1      54.711 226.036 354.086  0.00  0.00    +0.000 C 
ATOM     10  C   UNL     1      58.315 223.406 355.431  0.00  0.00    +0.000 C 
ATOM     11  C   UNL     1      58.920 224.547 354.840  0.00  0.00    +0.000 C 
ATOM     12  C   UNL     1      59.462 225.759 354.261  0.00  0.00    +0.000 C 
ATOM     13  C   UNL     1      53.093 227.548 353.549  0.00  0.00    +0.000 C 
ATOM     14  C   UNL     1      58.797 226.400 353.087  0.00  0.00    +0.000 C 
ATOM     15  C   UNL     1      52.854 228.414 354.730  0.00  0.00    +0.000 C 
ATOM     16  C   UNL     1      53.730 228.497 355.880  0.00  0.00    +0.000 C 
ATOM     17  C   UNL     1      54.867 229.398 356.017  0.00  0.00    +0.000 C 
ATOM     18  C   UNL     1      58.850 227.807 352.936  0.00  0.00    +0.000 C 
ATOM     19  C   UNL     1      57.107 229.571 354.783  0.00  0.00    +0.000 C 
ATOM     20  C   UNL     1      57.817 225.650 352.196  0.00  0.00    +0.000 C 
ATOM     21  C   UNL     1      57.835 229.901 353.562  0.00  0.00    +0.000 C 
ATOM     22  C   UNL     1      55.626 229.795 354.792  0.00  0.00    +0.000 C 
ATOM     23  C   UNL     1      58.861 229.105 352.904  0.00  0.00    +0.000 C 
ATOM     24  C   UNL     1      55.108 230.179 357.305  0.00  0.00    +0.000 C 
ATOM     25  C   UNL     1      57.806 228.756 355.863  0.00  0.00    +0.000 C 
ATOM     26  C   UNL     1      59.971 229.735 352.104  0.00  0.00    +0.000 C 
ENDROOT
BRANCH   8  27
ATOM     27  O   UNL     1      56.467 221.992 355.976  0.00  0.00    +0.000 OA
ATOM     28  H   UNL     1      57.272 221.483 355.753  0.00  0.00    +0.000 HD
ENDBRANCH   8  27
BRANCH  10  29
ATOM     29  O   UNL     1      59.085 222.268 355.615  0.00  0.00    +0.000 OA
ATOM     30  H   UNL     1      59.046 221.940 356.533  0.00  0.00    +0.000 HD
ENDBRANCH  10  29
BRANCH  15  31
ATOM     31  O   UNL     1      52.056 229.534 354.557  0.00  0.00    +0.000 OA
ATOM     32  H   UNL     1      51.636 229.522 353.670  0.00  0.00    +0.000 HD
ENDBRANCH  15  31
BRANCH  16  33
ATOM     33  O   UNL     1      53.177 228.072 357.075  0.00  0.00    +0.000 OA
ATOM     34  C   UNL     1      53.684 226.801 357.396  0.00  0.00    +0.000 C 
ENDBRANCH  16  33
BRANCH  21  35
ATOM     35  O   UNL     1      57.614 231.219 353.087  0.00  0.00    +0.000 OA
BRANCH  35  37
ATOM     36  O   UNL     1      59.184 232.301 354.443  0.00  0.00    +0.000 OA
ATOM     37  C   UNL     1      58.084 232.175 353.936  0.00  0.00    +0.000 C 
ATOM     38  C   UNL     1      57.107 233.247 354.260  0.00  0.00    +0.000 C 
ENDBRANCH  35  37
ENDBRANCH  21  35
BRANCH   6  39
ATOM     39  C   UNL     1      54.215 223.648 353.344  0.00  0.00    +0.000 C 
BRANCH  39  41
ATOM     40  O   UNL     1      52.819 221.525 353.127  0.00  0.00    +0.000 OA
ATOM     41  C   UNL     1      53.658 222.393 353.923  0.00  0.00    +0.000 C 
ATOM     42  C   UNL     1      54.143 221.203 353.229  0.00  0.00    +0.000 C 
ATOM     43  C   UNL     1      53.145 222.398 355.407  0.00  0.00    +0.000 C 
BRANCH  42  44
ATOM     44  C   UNL     1      54.472 219.968 353.873  0.00  0.00    +0.000 C 
ATOM     45  C   UNL     1      53.399 218.934 354.126  0.00  0.00    +0.000 C 
BRANCH  44  46
ATOM     46  C   UNL     1      55.805 219.485 353.867  0.00  0.00    +0.000 C 
ATOM     47  C   UNL     1      56.949 219.124 353.869  0.00  0.00    +0.000 C 
ATOM     48  C   UNL     1      58.430 218.726 353.894  0.00  0.00    +0.000 C 
ENDBRANCH  44  46
ENDBRANCH  42  44
ENDBRANCH  39  41
BRANCH  39  49
ATOM     49  O   UNL     1      54.125 223.957 351.997  0.00  0.00    +0.000 OA
ATOM     50  H   UNL     1      53.299 223.661 351.569  0.00  0.00    +0.000 HD
ENDBRANCH  39  49
ENDBRANCH   6  39
BRANCH   8  51
ATOM     51  C   UNL     1      56.809 223.893 357.302  0.00  0.00    +0.000 C 
BRANCH  51  52
ATOM     52  O   UNL     1      56.692 224.383 358.537  0.00  0.00    +0.000 OA
ATOM     53  H   UNL     1      55.798 224.752 358.685  0.00  0.00    +0.000 HD
ENDBRANCH  51  52
ENDBRANCH   8  51
TORSDOF 13
ENDMDL
MODEL 6
REMARK VINA RESULT:      -5.1     30.590     33.724
REMARK  Name = 102471178_CandidaspongiolideCore.pdbqt.pdb
REMARK  13 active torsions:
REMARK  status: ('A' for Active; 'I' for Inactive)
REMARK    1  A    between atoms: C_6  and  C_39
REMARK    2  A    between atoms: C_8  and  O_27
REMARK    3  A    between atoms: C_8  and  C_51
REMARK    4  A    between atoms: C_10  and  O_29
REMARK    5  A    between atoms: C_15  and  O_31
REMARK    6  A    between atoms: C_16  and  O_33
REMARK    7  A    between atoms: C_21  and  O_35
REMARK    8  A    between atoms: O_35  and  C_37
REMARK    9  A    between atoms: C_39  and  C_41
REMARK   10  A    between atoms: C_39  and  O_49
REMARK   11  A    between atoms: C_42  and  C_44
REMARK   12  A    between atoms: C_44  and  C_46
REMARK   13  A    between atoms: C_51  and  O_52
REMARK                            x       y       z     vdW  Elec       q    Type
REMARK                         _______ _______ _______ _____ _____    ______ ____
ROOT
ATOM      1  O   UNL     1      65.129 228.613 350.153  0.00  0.00    +0.000 OA
ATOM      2  O   UNL     1      63.651 229.090 351.845  0.00  0.00    +0.000 OA
ATOM      3  O   UNL     1      59.998 231.525 354.118  0.00  0.00    +0.000 OA
ATOM      4  O   UNL     1      64.887 226.374 349.983  0.00  0.00    +0.000 OA
ATOM      5  O   UNL     1      63.875 226.018 353.335  0.00  0.00    +0.000 OA
ATOM      6  C   UNL     1      64.061 230.669 350.087  0.00  0.00    +0.000 C 
ATOM      7  C   UNL     1      63.725 231.868 350.776  0.00  0.00    +0.000 C 
ATOM      8  C   UNL     1      63.489 233.179 351.386  0.00  0.00    +0.000 C 
ATOM      9  C   UNL     1      64.232 229.379 350.806  0.00  0.00    +0.000 C 
ATOM     10  C   UNL     1      62.040 233.375 351.776  0.00  0.00    +0.000 C 
ATOM     11  C   UNL     1      61.229 232.379 352.382  0.00  0.00    +0.000 C 
ATOM     12  C   UNL     1      60.479 231.311 353.010  0.00  0.00    +0.000 C 
ATOM     13  C   UNL     1      65.262 227.355 350.614  0.00  0.00    +0.000 C 
ATOM     14  C   UNL     1      60.344 229.983 352.338  0.00  0.00    +0.000 C 
ATOM     15  C   UNL     1      66.168 227.182 351.777  0.00  0.00    +0.000 C 
ATOM     16  C   UNL     1      66.133 227.995 352.975  0.00  0.00    +0.000 C 
ATOM     17  C   UNL     1      65.312 227.737 354.151  0.00  0.00    +0.000 C 
ATOM     18  C   UNL     1      60.245 228.809 353.123  0.00  0.00    +0.000 C 
ATOM     19  C   UNL     1      62.778 227.744 354.540  0.00  0.00    +0.000 C 
ATOM     20  C   UNL     1      60.599 229.794 350.849  0.00  0.00    +0.000 C 
ATOM     21  C   UNL     1      61.482 227.116 354.311  0.00  0.00    +0.000 C 
ATOM     22  C   UNL     1      63.989 227.064 353.976  0.00  0.00    +0.000 C 
ATOM     23  C   UNL     1      60.247 227.768 353.898  0.00  0.00    +0.000 C 
ATOM     24  C   UNL     1      65.889 227.849 355.560  0.00  0.00    +0.000 C 
ATOM     25  C   UNL     1      62.826 229.174 355.062  0.00  0.00    +0.000 C 
ATOM     26  C   UNL     1      58.892 227.244 354.301  0.00  0.00    +0.000 C 
ENDROOT
BRANCH   8  27
ATOM     27  O   UNL     1      63.824 234.140 350.382  0.00  0.00    +0.000 OA
ATOM     28  H   UNL     1      64.565 233.728 349.892  0.00  0.00    +0.000 HD
ENDBRANCH   8  27
BRANCH  10  29
ATOM     29  O   UNL     1      61.498 234.633 351.566  0.00  0.00    +0.000 OA
ATOM     30  H   UNL     1      62.088 235.346 351.876  0.00  0.00    +0.000 HD
ENDBRANCH  10  29
BRANCH  15  31
ATOM     31  O   UNL     1      66.738 225.933 351.969  0.00  0.00    +0.000 OA
ATOM     32  H   UNL     1      66.290 225.461 352.703  0.00  0.00    +0.000 HD
ENDBRANCH  15  31
BRANCH  16  33
ATOM     33  O   UNL     1      67.271 228.744 353.212  0.00  0.00    +0.000 OA
ATOM     34  C   UNL     1      67.039 230.077 352.826  0.00  0.00    +0.000 C 
ENDBRANCH  16  33
BRANCH  21  35
ATOM     35  O   UNL     1      61.412 225.756 354.706  0.00  0.00    +0.000 OA
BRANCH  35  37
ATOM     36  O   UNL     1      60.925 226.095 356.969  0.00  0.00    +0.000 OA
ATOM     37  C   UNL     1      61.543 225.586 356.051  0.00  0.00    +0.000 C 
ATOM     38  C   UNL     1      62.578 224.598 356.451  0.00  0.00    +0.000 C 
ENDBRANCH  35  37
ENDBRANCH  21  35
BRANCH   6  39
ATOM     39  C   UNL     1      64.145 230.731 348.646  0.00  0.00    +0.000 C 
BRANCH  39  41
ATOM     40  O   UNL     1      66.229 229.896 347.437  0.00  0.00    +0.000 OA
ATOM     41  C   UNL     1      65.452 230.989 347.981  0.00  0.00    +0.000 C 
ATOM     42  C   UNL     1      65.441 230.603 346.573  0.00  0.00    +0.000 C 
ATOM     43  C   UNL     1      66.420 232.065 348.591  0.00  0.00    +0.000 C 
BRANCH  42  44
ATOM     44  C   UNL     1      66.096 231.330 345.528  0.00  0.00    +0.000 C 
ATOM     45  C   UNL     1      66.547 230.617 344.274  0.00  0.00    +0.000 C 
BRANCH  44  46
ATOM     46  C   UNL     1      65.933 232.734 345.416  0.00  0.00    +0.000 C 
ATOM     47  C   UNL     1      65.838 233.923 345.297  0.00  0.00    +0.000 C 
ATOM     48  C   UNL     1      65.772 235.443 345.098  0.00  0.00    +0.000 C 
ENDBRANCH  44  46
ENDBRANCH  42  44
ENDBRANCH  39  41
BRANCH  39  49
ATOM     49  O   UNL     1      62.957 230.608 347.943  0.00  0.00    +0.000 OA
ATOM     50  H   UNL     1      62.470 229.779 348.114  0.00  0.00    +0.000 HD
ENDBRANCH  39  49
ENDBRANCH   6  39
BRANCH   8  51
ATOM     51  C   UNL     1      64.367 233.416 352.543  0.00  0.00    +0.000 C 
BRANCH  51  52
ATOM     52  O   UNL     1      65.164 233.673 353.581  0.00  0.00    +0.000 OA
ATOM     53  H   UNL     1      65.798 234.386 353.367  0.00  0.00    +0.000 HD
ENDBRANCH  51  52
ENDBRANCH   8  51
TORSDOF 13
ENDMDL
MODEL 7
REMARK VINA RESULT:      -5.1     32.486     35.983
REMARK  Name = 102471178_CandidaspongiolideCore.pdbqt.pdb
REMARK  13 active torsions:
REMARK  status: ('A' for Active; 'I' for Inactive)
REMARK    1  A    between atoms: C_6  and  C_39
REMARK    2  A    between atoms: C_8  and  O_27
REMARK    3  A    between atoms: C_8  and  C_51
REMARK    4  A    between atoms: C_10  and  O_29
REMARK    5  A    between atoms: C_15  and  O_31
REMARK    6  A    between atoms: C_16  and  O_33
REMARK    7  A    between atoms: C_21  and  O_35
REMARK    8  A    between atoms: O_35  and  C_37
REMARK    9  A    between atoms: C_39  and  C_41
REMARK   10  A    between atoms: C_39  and  O_49
REMARK   11  A    between atoms: C_42  and  C_44
REMARK   12  A    between atoms: C_44  and  C_46
REMARK   13  A    between atoms: C_51  and  O_52
REMARK                            x       y       z     vdW  Elec       q    Type
REMARK                         _______ _______ _______ _____ _____    ______ ____
ROOT
ATOM      1  O   UNL     1      63.335 230.281 355.259  0.00  0.00    +0.000 OA
ATOM      2  O   UNL     1      64.657 229.592 353.511  0.00  0.00    +0.000 OA
ATOM      3  O   UNL     1      65.984 226.775 349.671  0.00  0.00    +0.000 OA
ATOM      4  O   UNL     1      63.249 232.507 354.886  0.00  0.00    +0.000 OA
ATOM      5  O   UNL     1      66.336 232.557 353.196  0.00  0.00    +0.000 OA
ATOM      6  C   UNL     1      62.933 228.172 354.385  0.00  0.00    +0.000 C 
ATOM      7  C   UNL     1      63.467 226.908 354.010  0.00  0.00    +0.000 C 
ATOM      8  C   UNL     1      63.939 225.545 353.756  0.00  0.00    +0.000 C 
ATOM      9  C   UNL     1      63.745 229.415 354.309  0.00  0.00    +0.000 C 
ATOM     10  C   UNL     1      64.010 225.231 352.277  0.00  0.00    +0.000 C 
ATOM     11  C   UNL     1      64.493 226.128 351.287  0.00  0.00    +0.000 C 
ATOM     12  C   UNL     1      65.013 227.098 350.347  0.00  0.00    +0.000 C 
ATOM     13  C   UNL     1      63.886 231.508 355.200  0.00  0.00    +0.000 C 
ATOM     14  C   UNL     1      64.405 228.460 350.251  0.00  0.00    +0.000 C 
ATOM     15  C   UNL     1      65.219 231.654 355.838  0.00  0.00    +0.000 C 
ATOM     16  C   UNL     1      66.335 230.756 355.624  0.00  0.00    +0.000 C 
ATOM     17  C   UNL     1      67.330 230.876 354.566  0.00  0.00    +0.000 C 
ATOM     18  C   UNL     1      65.220 229.566 349.906  0.00  0.00    +0.000 C 
ATOM     19  C   UNL     1      67.187 230.683 352.014  0.00  0.00    +0.000 C 
ATOM     20  C   UNL     1      63.014 228.772 350.785  0.00  0.00    +0.000 C 
ATOM     21  C   UNL     1      66.733 231.243 350.746  0.00  0.00    +0.000 C 
ATOM     22  C   UNL     1      66.925 231.476 353.258  0.00  0.00    +0.000 C 
ATOM     23  C   UNL     1      66.037 230.547 349.673  0.00  0.00    +0.000 C 
ATOM     24  C   UNL     1      68.818 230.700 354.854  0.00  0.00    +0.000 C 
ATOM     25  C   UNL     1      67.625 229.225 352.064  0.00  0.00    +0.000 C 
ATOM     26  C   UNL     1      66.183 230.955 348.229  0.00  0.00    +0.000 C 
ENDROOT
BRANCH   8  27
ATOM     27  O   UNL     1      62.971 224.682 354.359  0.00  0.00    +0.000 OA
ATOM     28  H   UNL     1      62.527 224.250 353.601  0.00  0.00    +0.000 HD
ENDBRANCH   8  27
BRANCH  10  29
ATOM     29  O   UNL     1      63.621 223.959 351.886  0.00  0.00    +0.000 OA
ATOM     30  H   UNL     1      63.706 223.827 350.923  0.00  0.00    +0.000 HD
ENDBRANCH  10  29
BRANCH  15  31
ATOM     31  O   UNL     1      65.596 232.919 356.261  0.00  0.00    +0.000 OA
ATOM     32  H   UNL     1      66.417 233.202 355.806  0.00  0.00    +0.000 HD
ENDBRANCH  15  31
BRANCH  16  33
ATOM     33  O   UNL     1      66.758 230.064 356.745  0.00  0.00    +0.000 OA
ATOM     34  C   UNL     1      66.298 228.737 356.673  0.00  0.00    +0.000 C 
ENDBRANCH  16  33
BRANCH  21  35
ATOM     35  O   UNL     1      67.183 232.564 350.495  0.00  0.00    +0.000 OA
BRANCH  35  37
ATOM     36  O   UNL     1      69.359 232.002 349.844  0.00  0.00    +0.000 OA
ATOM     37  C   UNL     1      68.541 232.665 350.457  0.00  0.00    +0.000 C 
ATOM     38  C   UNL     1      69.100 233.781 351.262  0.00  0.00    +0.000 C 
ENDBRANCH  35  37
ENDBRANCH  21  35
BRANCH   6  39
ATOM     39  C   UNL     1      61.538 228.220 354.762  0.00  0.00    +0.000 C 
BRANCH  39  41
ATOM     40  O   UNL     1      60.474 226.675 353.036  0.00  0.00    +0.000 OA
ATOM     41  C   UNL     1      60.480 227.929 353.756  0.00  0.00    +0.000 C 
ATOM     42  C   UNL     1      59.663 226.779 354.131  0.00  0.00    +0.000 C 
ATOM     43  C   UNL     1      59.994 229.080 352.803  0.00  0.00    +0.000 C 
BRANCH  42  44
ATOM     44  C   UNL     1      58.251 226.683 353.916  0.00  0.00    +0.000 C 
ATOM     45  C   UNL     1      57.711 225.865 352.766  0.00  0.00    +0.000 C 
BRANCH  44  46
ATOM     46  C   UNL     1      57.343 226.932 354.976  0.00  0.00    +0.000 C 
ATOM     47  C   UNL     1      56.575 227.095 355.883  0.00  0.00    +0.000 C 
ATOM     48  C   UNL     1      55.606 227.236 357.065  0.00  0.00    +0.000 C 
ENDBRANCH  44  46
ENDBRANCH  42  44
ENDBRANCH  39  41
BRANCH  39  49
ATOM     49  O   UNL     1      61.253 228.611 356.060  0.00  0.00    +0.000 OA
ATOM     50  H   UNL     1      61.123 229.572 356.174  0.00  0.00    +0.000 HD
ENDBRANCH  39  49
ENDBRANCH   6  39
BRANCH   8  51
ATOM     51  C   UNL     1      65.236 225.280 354.398  0.00  0.00    +0.000 C 
BRANCH  51  52
ATOM     52  O   UNL     1      66.392 225.042 355.020  0.00  0.00    +0.000 OA
ATOM     53  H   UNL     1      66.663 225.811 355.562  0.00  0.00    +0.000 HD
ENDBRANCH  51  52
ENDBRANCH   8  51
TORSDOF 13
ENDMDL
MODEL 8
REMARK VINA RESULT:      -5.1     31.988     34.813
REMARK  Name = 102471178_CandidaspongiolideCore.pdbqt.pdb
REMARK  13 active torsions:
REMARK  status: ('A' for Active; 'I' for Inactive)
REMARK    1  A    between atoms: C_6  and  C_39
REMARK    2  A    between atoms: C_8  and  O_27
REMARK    3  A    between atoms: C_8  and  C_51
REMARK    4  A    between atoms: C_10  and  O_29
REMARK    5  A    between atoms: C_15  and  O_31
REMARK    6  A    between atoms: C_16  and  O_33
REMARK    7  A    between atoms: C_21  and  O_35
REMARK    8  A    between atoms: O_35  and  C_37
REMARK    9  A    between atoms: C_39  and  C_41
REMARK   10  A    between atoms: C_39  and  O_49
REMARK   11  A    between atoms: C_42  and  C_44
REMARK   12  A    between atoms: C_44  and  C_46
REMARK   13  A    between atoms: C_51  and  O_52
REMARK                            x       y       z     vdW  Elec       q    Type
REMARK                         _______ _______ _______ _____ _____    ______ ____
ROOT
ATOM      1  O   UNL     1      53.560 226.310 353.811  0.00  0.00    +0.000 OA
ATOM      2  O   UNL     1      55.686 227.012 354.326  0.00  0.00    +0.000 OA
ATOM      3  O   UNL     1      60.556 226.562 355.044  0.00  0.00    +0.000 OA
ATOM      4  O   UNL     1      52.904 227.927 352.378  0.00  0.00    +0.000 OA
ATOM      5  O   UNL     1      55.066 230.331 353.769  0.00  0.00    +0.000 OA
ATOM      6  C   UNL     1      55.140 224.677 354.269  0.00  0.00    +0.000 C 
ATOM      7  C   UNL     1      56.136 224.189 355.160  0.00  0.00    +0.000 C 
ATOM      8  C   UNL     1      57.055 223.566 356.115  0.00  0.00    +0.000 C 
ATOM      9  C   UNL     1      54.856 226.131 354.137  0.00  0.00    +0.000 C 
ATOM     10  C   UNL     1      58.497 223.655 355.664  0.00  0.00    +0.000 C 
ATOM     11  C   UNL     1      59.084 224.806 355.072  0.00  0.00    +0.000 C 
ATOM     12  C   UNL     1      59.604 226.024 354.489  0.00  0.00    +0.000 C 
ATOM     13  C   UNL     1      53.208 227.574 353.511  0.00  0.00    +0.000 C 
ATOM     14  C   UNL     1      58.961 226.620 353.279  0.00  0.00    +0.000 C 
ATOM     15  C   UNL     1      52.895 228.453 354.666  0.00  0.00    +0.000 C 
ATOM     16  C   UNL     1      53.726 228.589 355.845  0.00  0.00    +0.000 C 
ATOM     17  C   UNL     1      54.825 229.532 356.004  0.00  0.00    +0.000 C 
ATOM     18  C   UNL     1      58.971 228.025 353.101  0.00  0.00    +0.000 C 
ATOM     19  C   UNL     1      57.102 229.761 354.848  0.00  0.00    +0.000 C 
ATOM     20  C   UNL     1      58.041 225.819 352.368  0.00  0.00    +0.000 C 
ATOM     21  C   UNL     1      57.861 230.093 353.648  0.00  0.00    +0.000 C 
ATOM     22  C   UNL     1      55.614 229.933 354.799  0.00  0.00    +0.000 C 
ATOM     23  C   UNL     1      58.938 229.321 353.044  0.00  0.00    +0.000 C 
ATOM     24  C   UNL     1      54.991 230.346 357.284  0.00  0.00    +0.000 C 
ATOM     25  C   UNL     1      57.788 228.992 355.969  0.00  0.00    +0.000 C 
ATOM     26  C   UNL     1      60.055 229.975 352.271  0.00  0.00    +0.000 C 
ENDROOT
BRANCH   8  27
ATOM     27  O   UNL     1      56.680 222.187 356.170  0.00  0.00    +0.000 OA
ATOM     28  H   UNL     1      57.461 221.710 355.824  0.00  0.00    +0.000 HD
ENDBRANCH   8  27
BRANCH  10  29
ATOM     29  O   UNL     1      59.298 222.549 355.898  0.00  0.00    +0.000 OA
ATOM     30  H   UNL     1      60.131 222.785 356.347  0.00  0.00    +0.000 HD
ENDBRANCH  10  29
BRANCH  15  31
ATOM     31  O   UNL     1      52.066 229.541 354.441  0.00  0.00    +0.000 OA
ATOM     32  H   UNL     1      52.515 230.374 354.703  0.00  0.00    +0.000 HD
ENDBRANCH  15  31
BRANCH  16  33
ATOM     33  O   UNL     1      53.144 228.168 357.027  0.00  0.00    +0.000 OA
ATOM     34  C   UNL     1      53.689 226.926 357.397  0.00  0.00    +0.000 C 
ENDBRANCH  16  33
BRANCH  21  35
ATOM     35  O   UNL     1      57.613 231.393 353.139  0.00  0.00    +0.000 OA
BRANCH  35  37
ATOM     36  O   UNL     1      59.113 232.554 354.508  0.00  0.00    +0.000 OA
ATOM     37  C   UNL     1      58.030 232.381 353.979  0.00  0.00    +0.000 C 
ATOM     38  C   UNL     1      57.010 233.425 354.258  0.00  0.00    +0.000 C 
ENDBRANCH  35  37
ENDBRANCH  21  35
BRANCH   6  39
ATOM     39  C   UNL     1      54.471 223.713 353.426  0.00  0.00    +0.000 C 
BRANCH  39  41
ATOM     40  O   UNL     1      53.054 222.735 355.308  0.00  0.00    +0.000 OA
ATOM     41  C   UNL     1      53.722 222.578 354.035  0.00  0.00    +0.000 C 
ATOM     42  C   UNL     1      52.299 222.869 354.177  0.00  0.00    +0.000 C 
ATOM     43  C   UNL     1      54.318 221.128 353.933  0.00  0.00    +0.000 C 
BRANCH  42  44
ATOM     44  C   UNL     1      51.252 221.915 353.968  0.00  0.00    +0.000 C 
ATOM     45  C   UNL     1      50.357 221.506 355.115  0.00  0.00    +0.000 C 
BRANCH  44  46
ATOM     46  C   UNL     1      50.731 221.690 352.669  0.00  0.00    +0.000 C 
ATOM     47  C   UNL     1      50.327 221.467 351.562  0.00  0.00    +0.000 C 
ATOM     48  C   UNL     1      49.854 221.125 350.143  0.00  0.00    +0.000 C 
ENDBRANCH  44  46
ENDBRANCH  42  44
ENDBRANCH  39  41
BRANCH  39  49
ATOM     49  O   UNL     1      54.622 223.864 352.058  0.00  0.00    +0.000 OA
ATOM     50  H   UNL     1      55.518 223.664 351.726  0.00  0.00    +0.000 HD
ENDBRANCH  39  49
ENDBRANCH   6  39
BRANCH   8  51
ATOM     51  C   UNL     1      56.907 224.124 357.469  0.00  0.00    +0.000 C 
BRANCH  51  52
ATOM     52  O   UNL     1      56.760 224.669 358.678  0.00  0.00    +0.000 OA
ATOM     53  H   UNL     1      56.949 225.629 358.654  0.00  0.00    +0.000 HD
ENDBRANCH  51  52
ENDBRANCH   8  51
TORSDOF 13
ENDMDL
MODEL 9
REMARK VINA RESULT:      -5.0     22.253     26.546
REMARK  Name = 102471178_CandidaspongiolideCore.pdbqt.pdb
REMARK  13 active torsions:
REMARK  status: ('A' for Active; 'I' for Inactive)
REMARK    1  A    between atoms: C_6  and  C_39
REMARK    2  A    between atoms: C_8  and  O_27
REMARK    3  A    between atoms: C_8  and  C_51
REMARK    4  A    between atoms: C_10  and  O_29
REMARK    5  A    between atoms: C_15  and  O_31
REMARK    6  A    between atoms: C_16  and  O_33
REMARK    7  A    between atoms: C_21  and  O_35
REMARK    8  A    between atoms: O_35  and  C_37
REMARK    9  A    between atoms: C_39  and  C_41
REMARK   10  A    between atoms: C_39  and  O_49
REMARK   11  A    between atoms: C_42  and  C_44
REMARK   12  A    between atoms: C_44  and  C_46
REMARK   13  A    between atoms: C_51  and  O_52
REMARK                            x       y       z     vdW  Elec       q    Type
REMARK                         _______ _______ _______ _____ _____    ______ ____
ROOT
ATOM      1  O   UNL     1      70.213 241.518 339.831  0.00  0.00    +0.000 OA
ATOM      2  O   UNL     1      68.087 242.381 339.733  0.00  0.00    +0.000 OA
ATOM      3  O   UNL     1      63.164 242.260 339.291  0.00  0.00    +0.000 OA
ATOM      4  O   UNL     1      71.030 242.581 341.648  0.00  0.00    +0.000 OA
ATOM      5  O   UNL     1      68.874 245.337 341.267  0.00  0.00    +0.000 OA
ATOM      6  C   UNL     1      68.542 240.143 339.001  0.00  0.00    +0.000 C 
ATOM      7  C   UNL     1      67.468 239.982 338.082  0.00  0.00    +0.000 C 
ATOM      8  C   UNL     1      66.462 239.711 337.052  0.00  0.00    +0.000 C 
ATOM      9  C   UNL     1      68.892 241.473 339.566  0.00  0.00    +0.000 C 
ATOM     10  C   UNL     1      65.060 239.674 337.619  0.00  0.00    +0.000 C 
ATOM     11  C   UNL     1      64.561 240.583 338.591  0.00  0.00    +0.000 C 
ATOM     12  C   UNL     1      64.131 241.558 339.570  0.00  0.00    +0.000 C 
ATOM     13  C   UNL     1      70.635 242.614 340.489  0.00  0.00    +0.000 C 
ATOM     14  C   UNL     1      64.879 241.724 340.853  0.00  0.00    +0.000 C 
ATOM     15  C   UNL     1      70.902 243.812 339.653  0.00  0.00    +0.000 C 
ATOM     16  C   UNL     1      69.998 244.331 338.647  0.00  0.00    +0.000 C 
ATOM     17  C   UNL     1      68.929 245.292 338.883  0.00  0.00    +0.000 C 
ATOM     18  C   UNL     1      64.937 242.999 341.468  0.00  0.00    +0.000 C 
ATOM     19  C   UNL     1      66.748 245.174 340.225  0.00  0.00    +0.000 C 
ATOM     20  C   UNL     1      65.827 240.660 341.386  0.00  0.00    +0.000 C 
ATOM     21  C   UNL     1      66.086 245.116 341.524  0.00  0.00    +0.000 C 
ATOM     22  C   UNL     1      68.241 245.298 340.210  0.00  0.00    +0.000 C 
ATOM     23  C   UNL     1      65.024 244.208 341.933  0.00  0.00    +0.000 C 
ATOM     24  C   UNL     1      68.707 246.476 337.945  0.00  0.00    +0.000 C 
ATOM     25  C   UNL     1      65.957 244.815 338.975  0.00  0.00    +0.000 C 
ATOM     26  C   UNL     1      63.990 244.596 342.958  0.00  0.00    +0.000 C 
ENDROOT
BRANCH   8  27
ATOM     27  O   UNL     1      66.778 238.418 336.532  0.00  0.00    +0.000 OA
ATOM     28  H   UNL     1      65.909 238.029 336.307  0.00  0.00    +0.000 HD
ENDBRANCH   8  27
BRANCH  10  29
ATOM     29  O   UNL     1      64.201 238.713 337.108  0.00  0.00    +0.000 OA
ATOM     30  H   UNL     1      63.486 239.105 336.573  0.00  0.00    +0.000 HD
ENDBRANCH  10  29
BRANCH  15  31
ATOM     31  O   UNL     1      71.787 244.758 340.147  0.00  0.00    +0.000 OA
ATOM     32  H   UNL     1      72.277 244.399 340.918  0.00  0.00    +0.000 HD
ENDBRANCH  15  31
BRANCH  16  33
ATOM     33  O   UNL     1      70.481 244.302 337.351  0.00  0.00    +0.000 OA
ATOM     34  C   UNL     1      69.883 243.235 336.657  0.00  0.00    +0.000 C 
ENDBRANCH  16  33
BRANCH  21  35
ATOM     35  O   UNL     1      66.421 246.180 342.399  0.00  0.00    +0.000 OA
BRANCH  35  37
ATOM     36  O   UNL     1      64.877 247.749 341.607  0.00  0.00    +0.000 OA
ATOM     37  C   UNL     1      65.989 247.391 341.951  0.00  0.00    +0.000 C 
ATOM     38  C   UNL     1      67.037 248.445 341.914  0.00  0.00    +0.000 C 
ENDBRANCH  35  37
ENDBRANCH  21  35
BRANCH   6  39
ATOM     39  C   UNL     1      69.229 238.949 339.438  0.00  0.00    +0.000 C 
BRANCH  39  41
ATOM     40  O   UNL     1      69.917 237.588 341.481  0.00  0.00    +0.000 OA
ATOM     41  C   UNL     1      68.916 238.347 340.764  0.00  0.00    +0.000 C 
ATOM     42  C   UNL     1      69.747 238.898 341.830  0.00  0.00    +0.000 C 
ATOM     43  C   UNL     1      67.504 237.698 340.994  0.00  0.00    +0.000 C 
BRANCH  42  44
ATOM     44  C   UNL     1      69.286 239.172 343.157  0.00  0.00    +0.000 C 
ATOM     45  C   UNL     1      69.706 238.284 344.306  0.00  0.00    +0.000 C 
BRANCH  44  46
ATOM     46  C   UNL     1      68.841 240.471 343.512  0.00  0.00    +0.000 C 
ATOM     47  C   UNL     1      68.433 241.567 343.775  0.00  0.00    +0.000 C 
ATOM     48  C   UNL     1      67.855 242.958 344.065  0.00  0.00    +0.000 C 
ENDBRANCH  44  46
ENDBRANCH  42  44
ENDBRANCH  39  41
BRANCH  39  49
ATOM     49  O   UNL     1      70.218 238.454 338.604  0.00  0.00    +0.000 OA
ATOM     50  H   UNL     1      71.083 238.322 339.037  0.00  0.00    +0.000 HD
ENDBRANCH  39  49
ENDBRANCH   6  39
BRANCH   8  51
ATOM     51  C   UNL     1      66.539 240.672 335.939  0.00  0.00    +0.000 C 
BRANCH  51  52
ATOM     52  O   UNL     1      66.643 241.520 334.915  0.00  0.00    +0.000 OA
ATOM     53  H   UNL     1      66.572 241.048 334.061  0.00  0.00    +0.000 HD
ENDBRANCH  51  52
ENDBRANCH   8  51
TORSDOF 13
ENDMDL
