MODEL 1
REMARK VINA RESULT:      -5.7      0.000      0.000
REMARK  Name = 10288191_Binimetinib.pdbqt.pdb
REMARK  6 active torsions:
REMARK  status: ('A' for Active; 'I' for Inactive)
REMARK    1  A    between atoms: C_6  and  N_21
REMARK    2  A    between atoms: C_7  and  C_14
REMARK    3  A    between atoms: N_13  and  O_16
REMARK    4  A    between atoms: O_16  and  C_17
REMARK    5  A    between atoms: C_18  and  O_19
REMARK    6  A    between atoms: N_21  and  C_25
REMARK                            x       y       z     vdW  Elec       q    Type
REMARK                         _______ _______ _______ _____ _____    ______ ____
ROOT
ATOM      1  F   UNL     1      52.009 241.732 322.474  0.00  0.00    +0.000 F 
ATOM      2  N   UNL     1      55.051 245.002 321.777  0.00  0.00    +0.000 N 
ATOM      3  N   UNL     1      53.796 243.432 320.865  0.00  0.00    +0.000 NA
ATOM      4  C   UNL     1      54.358 244.467 322.825  0.00  0.00    +0.000 A 
ATOM      5  C   UNL     1      53.573 243.484 322.229  0.00  0.00    +0.000 A 
ATOM      6  C   UNL     1      52.642 242.945 324.439  0.00  0.00    +0.000 A 
ATOM      7  C   UNL     1      53.475 243.949 324.999  0.00  0.00    +0.000 A 
ATOM      8  C   UNL     1      54.339 244.718 324.198  0.00  0.00    +0.000 A 
ATOM      9  C   UNL     1      52.715 242.721 323.044  0.00  0.00    +0.000 A 
ATOM     10  C   UNL     1      54.696 244.367 320.626  0.00  0.00    +0.000 A 
ATOM     11  C   UNL     1      55.986 246.074 321.864  0.00  0.00    +0.000 C 
ENDROOT
BRANCH   7  14
ATOM     12  O   UNL     1      53.978 243.379 327.233  0.00  0.00    +0.000 OA
ATOM     13  N   UNL     1      52.941 245.408 326.892  0.00  0.00    +0.000 N 
ATOM     14  C   UNL     1      53.492 244.213 326.474  0.00  0.00    +0.000 C 
ATOM     15  H   UNL     1      52.248 245.898 326.341  0.00  0.00    +0.000 HD
BRANCH  13  16
ATOM     16  O   UNL     1      52.726 245.479 328.285  0.00  0.00    +0.000 OA
BRANCH  16  17
ATOM     17  C   UNL     1      51.608 244.796 328.525  0.00  0.00    +0.000 C 
ATOM     18  C   UNL     1      50.328 244.004 328.812  0.00  0.00    +0.000 C 
BRANCH  18  19
ATOM     19  O   UNL     1      49.222 243.315 329.068  0.00  0.00    +0.000 OA
ATOM     20  H   UNL     1      49.364 242.723 329.826  0.00  0.00    +0.000 HD
ENDBRANCH  18  19
ENDBRANCH  16  17
ENDBRANCH  13  16
ENDBRANCH   7  14
BRANCH   6  21
ATOM     21  N   UNL     1      51.746 242.215 325.261  0.00  0.00    +0.000 N 
ATOM     22  H   UNL     1      52.218 241.706 326.025  0.00  0.00    +0.000 HD
BRANCH  21  25
ATOM     23 BR   UNL     1      45.760 242.742 326.300  0.00  0.00    +0.000 Br
ATOM     24  F   UNL     1      50.276 240.198 326.436  0.00  0.00    +0.000 F 
ATOM     25  C   UNL     1      50.370 242.386 325.524  0.00  0.00    +0.000 A 
ATOM     26  C   UNL     1      49.640 241.331 326.097  0.00  0.00    +0.000 A 
ATOM     27  C   UNL     1      49.665 243.537 325.169  0.00  0.00    +0.000 A 
ATOM     28  C   UNL     1      48.273 241.424 326.336  0.00  0.00    +0.000 A 
ATOM     29  C   UNL     1      48.294 243.650 325.401  0.00  0.00    +0.000 A 
ATOM     30  C   UNL     1      47.609 242.591 325.984  0.00  0.00    +0.000 A 
ENDBRANCH  21  25
ENDBRANCH   6  21
TORSDOF 6
ENDMDL
MODEL 2
REMARK VINA RESULT:      -5.4     30.687     32.683
REMARK  Name = 10288191_Binimetinib.pdbqt.pdb
REMARK  6 active torsions:
REMARK  status: ('A' for Active; 'I' for Inactive)
REMARK    1  A    between atoms: C_6  and  N_21
REMARK    2  A    between atoms: C_7  and  C_14
REMARK    3  A    between atoms: N_13  and  O_16
REMARK    4  A    between atoms: O_16  and  C_17
REMARK    5  A    between atoms: C_18  and  O_19
REMARK    6  A    between atoms: N_21  and  C_25
REMARK                            x       y       z     vdW  Elec       q    Type
REMARK                         _______ _______ _______ _____ _____    ______ ____
ROOT
ATOM      1  F   UNL     1      59.231 225.661 352.739  0.00  0.00    +0.000 F 
ATOM      2  N   UNL     1      54.777 226.042 353.412  0.00  0.00    +0.000 N 
ATOM      3  N   UNL     1      56.449 224.702 352.885  0.00  0.00    +0.000 NA
ATOM      4  C   UNL     1      55.885 226.837 353.479  0.00  0.00    +0.000 A 
ATOM      5  C   UNL     1      56.926 225.974 353.148  0.00  0.00    +0.000 A 
ATOM      6  C   UNL     1      58.506 227.835 353.431  0.00  0.00    +0.000 A 
ATOM      7  C   UNL     1      57.408 228.677 353.748  0.00  0.00    +0.000 A 
ATOM      8  C   UNL     1      56.089 228.186 353.775  0.00  0.00    +0.000 A 
ATOM      9  C   UNL     1      58.239 226.480 353.123  0.00  0.00    +0.000 A 
ATOM     10  C   UNL     1      55.143 224.780 353.056  0.00  0.00    +0.000 A 
ATOM     11  C   UNL     1      53.442 226.458 353.691  0.00  0.00    +0.000 C 
ENDROOT
BRANCH   7  14
ATOM     12  O   UNL     1      58.091 230.477 355.112  0.00  0.00    +0.000 OA
ATOM     13  N   UNL     1      57.206 231.016 353.054  0.00  0.00    +0.000 N 
ATOM     14  C   UNL     1      57.602 230.133 354.039  0.00  0.00    +0.000 C 
ATOM     15  H   UNL     1      56.504 230.770 352.367  0.00  0.00    +0.000 HD
BRANCH  13  16
ATOM     16  O   UNL     1      57.145 232.359 353.484  0.00  0.00    +0.000 OA
BRANCH  16  17
ATOM     17  C   UNL     1      55.852 232.670 353.554  0.00  0.00    +0.000 C 
ATOM     18  C   UNL     1      54.365 233.035 353.624  0.00  0.00    +0.000 C 
BRANCH  18  19
ATOM     19  O   UNL     1      53.077 233.356 353.678  0.00  0.00    +0.000 OA
ATOM     20  H   UNL     1      52.606 232.750 354.275  0.00  0.00    +0.000 HD
ENDBRANCH  18  19
ENDBRANCH  16  17
ENDBRANCH  13  16
ENDBRANCH   7  14
BRANCH   6  21
ATOM     21  N   UNL     1      59.830 228.343 353.456  0.00  0.00    +0.000 N 
ATOM     22  H   UNL     1      60.385 227.996 354.254  0.00  0.00    +0.000 HD
BRANCH  21  25
ATOM     23 BR   UNL     1      63.542 230.599 349.175  0.00  0.00    +0.000 Br
ATOM     24  F   UNL     1      62.570 228.055 353.588  0.00  0.00    +0.000 F 
ATOM     25  C   UNL     1      60.657 228.843 352.427  0.00  0.00    +0.000 A 
ATOM     26  C   UNL     1      62.051 228.706 352.534  0.00  0.00    +0.000 A 
ATOM     27  C   UNL     1      60.162 229.545 351.326  0.00  0.00    +0.000 A 
ATOM     28  C   UNL     1      62.918 229.220 351.575  0.00  0.00    +0.000 A 
ATOM     29  C   UNL     1      61.015 230.066 350.354  0.00  0.00    +0.000 A 
ATOM     30  C   UNL     1      62.388 229.898 350.487  0.00  0.00    +0.000 A 
ENDBRANCH  21  25
ENDBRANCH   6  21
TORSDOF 6
ENDMDL
MODEL 3
REMARK VINA RESULT:      -5.3      1.479      2.017
REMARK  Name = 10288191_Binimetinib.pdbqt.pdb
REMARK  6 active torsions:
REMARK  status: ('A' for Active; 'I' for Inactive)
REMARK    1  A    between atoms: C_6  and  N_21
REMARK    2  A    between atoms: C_7  and  C_14
REMARK    3  A    between atoms: N_13  and  O_16
REMARK    4  A    between atoms: O_16  and  C_17
REMARK    5  A    between atoms: C_18  and  O_19
REMARK    6  A    between atoms: N_21  and  C_25
REMARK                            x       y       z     vdW  Elec       q    Type
REMARK                         _______ _______ _______ _____ _____    ______ ____
ROOT
ATOM      1  F   UNL     1      52.457 241.841 322.391  0.00  0.00    +0.000 F 
ATOM      2  N   UNL     1      55.238 245.377 321.950  0.00  0.00    +0.000 N 
ATOM      3  N   UNL     1      54.188 243.725 320.931  0.00  0.00    +0.000 NA
ATOM      4  C   UNL     1      54.529 244.761 322.941  0.00  0.00    +0.000 A 
ATOM      5  C   UNL     1      53.873 243.728 322.278  0.00  0.00    +0.000 A 
ATOM      6  C   UNL     1      52.853 243.061 324.413  0.00  0.00    +0.000 A 
ATOM      7  C   UNL     1      53.557 244.121 325.043  0.00  0.00    +0.000 A 
ATOM      8  C   UNL     1      54.400 244.979 324.314  0.00  0.00    +0.000 A 
ATOM      9  C   UNL     1      53.035 242.875 323.022  0.00  0.00    +0.000 A 
ATOM     10  C   UNL     1      55.015 244.740 320.767  0.00  0.00    +0.000 A 
ATOM     11  C   UNL     1      56.068 246.524 322.116  0.00  0.00    +0.000 C 
ENDROOT
BRANCH   7  14
ATOM     12  O   UNL     1      53.837 243.481 327.297  0.00  0.00    +0.000 OA
ATOM     13  N   UNL     1      52.924 245.562 326.918  0.00  0.00    +0.000 N 
ATOM     14  C   UNL     1      53.456 244.352 326.520  0.00  0.00    +0.000 C 
ATOM     15  H   UNL     1      52.303 246.095 326.322  0.00  0.00    +0.000 HD
BRANCH  13  16
ATOM     16  O   UNL     1      52.590 245.614 328.289  0.00  0.00    +0.000 OA
BRANCH  16  17
ATOM     17  C   UNL     1      52.789 246.873 328.674  0.00  0.00    +0.000 C 
ATOM     18  C   UNL     1      53.020 248.325 329.104  0.00  0.00    +0.000 C 
BRANCH  18  19
ATOM     19  O   UNL     1      53.219 249.587 329.469  0.00  0.00    +0.000 OA
ATOM     20  H   UNL     1      52.788 250.190 328.840  0.00  0.00    +0.000 HD
ENDBRANCH  18  19
ENDBRANCH  16  17
ENDBRANCH  13  16
ENDBRANCH   7  14
BRANCH   6  21
ATOM     21  N   UNL     1      51.974 242.238 325.162  0.00  0.00    +0.000 N 
ATOM     22  H   UNL     1      52.428 241.790 325.973  0.00  0.00    +0.000 HD
BRANCH  21  25
ATOM     23 BR   UNL     1      45.925 242.177 325.940  0.00  0.00    +0.000 Br
ATOM     24  F   UNL     1      50.796 242.889 327.570  0.00  0.00    +0.000 F 
ATOM     25  C   UNL     1      50.569 242.252 325.296  0.00  0.00    +0.000 A 
ATOM     26  C   UNL     1      49.997 242.561 326.541  0.00  0.00    +0.000 A 
ATOM     27  C   UNL     1      49.702 241.897 324.261  0.00  0.00    +0.000 A 
ATOM     28  C   UNL     1      48.621 242.545 326.746  0.00  0.00    +0.000 A 
ATOM     29  C   UNL     1      48.319 241.877 324.446  0.00  0.00    +0.000 A 
ATOM     30  C   UNL     1      47.791 242.202 325.689  0.00  0.00    +0.000 A 
ENDBRANCH  21  25
ENDBRANCH   6  21
TORSDOF 6
ENDMDL
MODEL 4
REMARK VINA RESULT:      -5.2     31.404     32.737
REMARK  Name = 10288191_Binimetinib.pdbqt.pdb
REMARK  6 active torsions:
REMARK  status: ('A' for Active; 'I' for Inactive)
REMARK    1  A    between atoms: C_6  and  N_21
REMARK    2  A    between atoms: C_7  and  C_14
REMARK    3  A    between atoms: N_13  and  O_16
REMARK    4  A    between atoms: O_16  and  C_17
REMARK    5  A    between atoms: C_18  and  O_19
REMARK    6  A    between atoms: N_21  and  C_25
REMARK                            x       y       z     vdW  Elec       q    Type
REMARK                         _______ _______ _______ _____ _____    ______ ____
ROOT
ATOM      1  F   UNL     1      68.815 219.478 340.222  0.00  0.00    +0.000 F 
ATOM      2  N   UNL     1      67.871 218.830 335.849  0.00  0.00    +0.000 N 
ATOM      3  N   UNL     1      67.625 218.088 337.913  0.00  0.00    +0.000 NA
ATOM      4  C   UNL     1      68.530 219.743 336.621  0.00  0.00    +0.000 A 
ATOM      5  C   UNL     1      68.359 219.261 337.915  0.00  0.00    +0.000 A 
ATOM      6  C   UNL     1      69.649 221.176 338.756  0.00  0.00    +0.000 A 
ATOM      7  C   UNL     1      69.806 221.617 337.416  0.00  0.00    +0.000 A 
ATOM      8  C   UNL     1      69.249 220.906 336.337  0.00  0.00    +0.000 A 
ATOM      9  C   UNL     1      68.925 219.982 338.983  0.00  0.00    +0.000 A 
ATOM     10  C   UNL     1      67.344 217.858 336.645  0.00  0.00    +0.000 A 
ATOM     11  C   UNL     1      67.734 218.888 334.431  0.00  0.00    +0.000 C 
ENDROOT
BRANCH   7  14
ATOM     12  O   UNL     1      70.049 223.943 337.096  0.00  0.00    +0.000 OA
ATOM     13  N   UNL     1      71.935 222.654 336.790  0.00  0.00    +0.000 N 
ATOM     14  C   UNL     1      70.600 222.845 337.089  0.00  0.00    +0.000 C 
ATOM     15  H   UNL     1      72.283 221.771 336.440  0.00  0.00    +0.000 HD
BRANCH  13  16
ATOM     16  O   UNL     1      72.558 223.785 336.219  0.00  0.00    +0.000 OA
BRANCH  16  17
ATOM     17  C   UNL     1      73.326 224.308 337.173  0.00  0.00    +0.000 C 
ATOM     18  C   UNL     1      74.214 224.920 338.262  0.00  0.00    +0.000 C 
BRANCH  18  19
ATOM     19  O   UNL     1      74.985 225.457 339.201  0.00  0.00    +0.000 OA
ATOM     20  H   UNL     1      75.723 225.940 338.793  0.00  0.00    +0.000 HD
ENDBRANCH  18  19
ENDBRANCH  16  17
ENDBRANCH  13  16
ENDBRANCH   7  14
BRANCH   6  21
ATOM     21  N   UNL     1      70.182 221.936 339.829  0.00  0.00    +0.000 N 
ATOM     22  H   UNL     1      69.466 222.471 340.343  0.00  0.00    +0.000 HD
BRANCH  21  25
ATOM     23 BR   UNL     1      75.144 221.301 343.316  0.00  0.00    +0.000 Br
ATOM     24  F   UNL     1      70.154 220.483 342.172  0.00  0.00    +0.000 F 
ATOM     25  C   UNL     1      71.359 221.776 340.591  0.00  0.00    +0.000 A 
ATOM     26  C   UNL     1      71.309 221.054 341.795  0.00  0.00    +0.000 A 
ATOM     27  C   UNL     1      72.575 222.370 340.248  0.00  0.00    +0.000 A 
ATOM     28  C   UNL     1      72.425 220.903 342.612  0.00  0.00    +0.000 A 
ATOM     29  C   UNL     1      73.705 222.229 341.053  0.00  0.00    +0.000 A 
ATOM     30  C   UNL     1      73.620 221.495 342.229  0.00  0.00    +0.000 A 
ENDBRANCH  21  25
ENDBRANCH   6  21
TORSDOF 6
ENDMDL
MODEL 5
REMARK VINA RESULT:      -5.2      3.045      5.985
REMARK  Name = 10288191_Binimetinib.pdbqt.pdb
REMARK  6 active torsions:
REMARK  status: ('A' for Active; 'I' for Inactive)
REMARK    1  A    between atoms: C_6  and  N_21
REMARK    2  A    between atoms: C_7  and  C_14
REMARK    3  A    between atoms: N_13  and  O_16
REMARK    4  A    between atoms: O_16  and  C_17
REMARK    5  A    between atoms: C_18  and  O_19
REMARK    6  A    between atoms: N_21  and  C_25
REMARK                            x       y       z     vdW  Elec       q    Type
REMARK                         _______ _______ _______ _____ _____    ______ ____
ROOT
ATOM      1  F   UNL     1      50.355 241.671 322.994  0.00  0.00    +0.000 F 
ATOM      2  N   UNL     1      46.623 241.773 325.543  0.00  0.00    +0.000 N 
ATOM      3  N   UNL     1      47.488 241.311 323.566  0.00  0.00    +0.000 NA
ATOM      4  C   UNL     1      47.955 242.036 325.683  0.00  0.00    +0.000 A 
ATOM      5  C   UNL     1      48.481 241.735 324.430  0.00  0.00    +0.000 A 
ATOM      6  C   UNL     1      50.710 242.352 325.261  0.00  0.00    +0.000 A 
ATOM      7  C   UNL     1      50.122 242.659 326.516  0.00  0.00    +0.000 A 
ATOM      8  C   UNL     1      48.741 242.504 326.738  0.00  0.00    +0.000 A 
ATOM      9  C   UNL     1      49.864 241.898 324.222  0.00  0.00    +0.000 A 
ATOM     10  C   UNL     1      46.375 241.344 324.274  0.00  0.00    +0.000 A 
ATOM     11  C   UNL     1      45.641 241.904 326.568  0.00  0.00    +0.000 C 
ENDROOT
BRANCH   7  14
ATOM     12  O   UNL     1      51.964 242.599 327.989  0.00  0.00    +0.000 OA
ATOM     13  N   UNL     1      50.481 244.342 328.258  0.00  0.00    +0.000 N 
ATOM     14  C   UNL     1      50.942 243.191 327.651  0.00  0.00    +0.000 C 
ATOM     15  H   UNL     1      49.505 244.607 328.228  0.00  0.00    +0.000 HD
BRANCH  13  16
ATOM     16  O   UNL     1      51.120 244.636 329.482  0.00  0.00    +0.000 OA
BRANCH  16  17
ATOM     17  C   UNL     1      50.355 244.111 330.437  0.00  0.00    +0.000 C 
ATOM     18  C   UNL     1      49.476 243.495 331.530  0.00  0.00    +0.000 C 
BRANCH  18  19
ATOM     19  O   UNL     1      48.715 242.953 332.475  0.00  0.00    +0.000 OA
ATOM     20  H   UNL     1      49.235 242.328 333.007  0.00  0.00    +0.000 HD
ENDBRANCH  18  19
ENDBRANCH  16  17
ENDBRANCH  13  16
ENDBRANCH   7  14
BRANCH   6  21
ATOM     21  N   UNL     1      52.112 242.474 325.076  0.00  0.00    +0.000 N 
ATOM     22  H   UNL     1      52.598 241.564 325.047  0.00  0.00    +0.000 HD
BRANCH  21  25
ATOM     23 BR   UNL     1      55.648 246.745 322.540  0.00  0.00    +0.000 Br
ATOM     24  F   UNL     1      53.301 242.122 322.613  0.00  0.00    +0.000 F 
ATOM     25  C   UNL     1      52.891 243.499 324.501  0.00  0.00    +0.000 A 
ATOM     26  C   UNL     1      53.508 243.282 323.257  0.00  0.00    +0.000 A 
ATOM     27  C   UNL     1      53.151 244.711 325.144  0.00  0.00    +0.000 A 
ATOM     28  C   UNL     1      54.326 244.237 322.663  0.00  0.00    +0.000 A 
ATOM     29  C   UNL     1      53.967 245.681 324.564  0.00  0.00    +0.000 A 
ATOM     30  C   UNL     1      54.548 245.436 323.326  0.00  0.00    +0.000 A 
ENDBRANCH  21  25
ENDBRANCH   6  21
TORSDOF 6
ENDMDL
MODEL 6
REMARK VINA RESULT:      -4.9     31.681     32.805
REMARK  Name = 10288191_Binimetinib.pdbqt.pdb
REMARK  6 active torsions:
REMARK  status: ('A' for Active; 'I' for Inactive)
REMARK    1  A    between atoms: C_6  and  N_21
REMARK    2  A    between atoms: C_7  and  C_14
REMARK    3  A    between atoms: N_13  and  O_16
REMARK    4  A    between atoms: O_16  and  C_17
REMARK    5  A    between atoms: C_18  and  O_19
REMARK    6  A    between atoms: N_21  and  C_25
REMARK                            x       y       z     vdW  Elec       q    Type
REMARK                         _______ _______ _______ _____ _____    ______ ____
ROOT
ATOM      1  F   UNL     1      74.008 224.482 340.915  0.00  0.00    +0.000 F 
ATOM      2  N   UNL     1      76.087 225.002 336.935  0.00  0.00    +0.000 N 
ATOM      3  N   UNL     1      76.224 225.234 339.126  0.00  0.00    +0.000 NA
ATOM      4  C   UNL     1      74.897 224.526 337.404  0.00  0.00    +0.000 A 
ATOM      5  C   UNL     1      75.005 224.677 338.783  0.00  0.00    +0.000 A 
ATOM      6  C   UNL     1      72.754 223.720 339.024  0.00  0.00    +0.000 A 
ATOM      7  C   UNL     1      72.688 223.602 337.611  0.00  0.00    +0.000 A 
ATOM      8  C   UNL     1      73.758 224.003 336.789  0.00  0.00    +0.000 A 
ATOM      9  C   UNL     1      73.925 224.274 339.592  0.00  0.00    +0.000 A 
ATOM     10  C   UNL     1      76.855 225.415 337.982  0.00  0.00    +0.000 A 
ATOM     11  C   UNL     1      76.482 225.044 335.566  0.00  0.00    +0.000 C 
ENDROOT
BRANCH   7  14
ATOM     12  O   UNL     1      70.413 223.706 336.992  0.00  0.00    +0.000 OA
ATOM     13  N   UNL     1      71.601 221.870 336.264  0.00  0.00    +0.000 N 
ATOM     14  C   UNL     1      71.463 223.071 336.930  0.00  0.00    +0.000 C 
ATOM     15  H   UNL     1      72.321 221.202 336.509  0.00  0.00    +0.000 HD
BRANCH  13  16
ATOM     16  O   UNL     1      70.373 221.282 335.890  0.00  0.00    +0.000 OA
BRANCH  16  17
ATOM     17  C   UNL     1      70.303 220.121 336.538  0.00  0.00    +0.000 C 
ATOM     18  C   UNL     1      70.211 218.788 337.288  0.00  0.00    +0.000 C 
BRANCH  18  19
ATOM     19  O   UNL     1      70.124 217.634 337.941  0.00  0.00    +0.000 OA
ATOM     20  H   UNL     1      71.012 217.277 338.111  0.00  0.00    +0.000 HD
ENDBRANCH  18  19
ENDBRANCH  16  17
ENDBRANCH  13  16
ENDBRANCH   7  14
BRANCH   6  21
ATOM     21  N   UNL     1      71.680 223.266 339.833  0.00  0.00    +0.000 N 
ATOM     22  H   UNL     1      70.799 223.774 339.662  0.00  0.00    +0.000 HD
BRANCH  21  25
ATOM     23 BR   UNL     1      70.464 217.979 342.618  0.00  0.00    +0.000 Br
ATOM     24  F   UNL     1      69.476 221.739 339.187  0.00  0.00    +0.000 F 
ATOM     25  C   UNL     1      71.451 222.028 340.469  0.00  0.00    +0.000 A 
ATOM     26  C   UNL     1      70.305 221.284 340.140  0.00  0.00    +0.000 A 
ATOM     27  C   UNL     1      72.273 221.527 341.481  0.00  0.00    +0.000 A 
ATOM     28  C   UNL     1      70.002 220.080 340.767  0.00  0.00    +0.000 A 
ATOM     29  C   UNL     1      71.987 220.322 342.121  0.00  0.00    +0.000 A 
ATOM     30  C   UNL     1      70.852 219.607 341.757  0.00  0.00    +0.000 A 
ENDBRANCH  21  25
ENDBRANCH   6  21
TORSDOF 6
ENDMDL
MODEL 7
REMARK VINA RESULT:      -4.9     32.390     33.576
REMARK  Name = 10288191_Binimetinib.pdbqt.pdb
REMARK  6 active torsions:
REMARK  status: ('A' for Active; 'I' for Inactive)
REMARK    1  A    between atoms: C_6  and  N_21
REMARK    2  A    between atoms: C_7  and  C_14
REMARK    3  A    between atoms: N_13  and  O_16
REMARK    4  A    between atoms: O_16  and  C_17
REMARK    5  A    between atoms: C_18  and  O_19
REMARK    6  A    between atoms: N_21  and  C_25
REMARK                            x       y       z     vdW  Elec       q    Type
REMARK                         _______ _______ _______ _____ _____    ______ ____
ROOT
ATOM      1  F   UNL     1      69.833 218.080 342.411  0.00  0.00    +0.000 F 
ATOM      2  N   UNL     1      70.374 221.657 339.701  0.00  0.00    +0.000 N 
ATOM      3  N   UNL     1      70.977 220.663 341.577  0.00  0.00    +0.000 NA
ATOM      4  C   UNL     1      69.658 220.494 339.717  0.00  0.00    +0.000 A 
ATOM      5  C   UNL     1      70.055 219.883 340.902  0.00  0.00    +0.000 A 
ATOM      6  C   UNL     1      68.556 218.004 340.388  0.00  0.00    +0.000 A 
ATOM      7  C   UNL     1      68.174 218.677 339.198  0.00  0.00    +0.000 A 
ATOM      8  C   UNL     1      68.721 219.927 338.852  0.00  0.00    +0.000 A 
ATOM      9  C   UNL     1      69.497 218.634 341.236  0.00  0.00    +0.000 A 
ATOM     10  C   UNL     1      71.148 221.729 340.819  0.00  0.00    +0.000 A 
ATOM     11  C   UNL     1      70.337 222.638 338.668  0.00  0.00    +0.000 C 
ENDROOT
BRANCH   7  14
ATOM     12  O   UNL     1      67.328 216.985 337.786  0.00  0.00    +0.000 OA
ATOM     13  N   UNL     1      66.037 218.880 338.019  0.00  0.00    +0.000 N 
ATOM     14  C   UNL     1      67.147 218.099 338.272  0.00  0.00    +0.000 C 
ATOM     15  H   UNL     1      66.060 219.888 338.115  0.00  0.00    +0.000 HD
BRANCH  13  16
ATOM     16  O   UNL     1      65.253 218.422 336.938  0.00  0.00    +0.000 OA
BRANCH  16  17
ATOM     17  C   UNL     1      65.518 219.233 335.915  0.00  0.00    +0.000 C 
ATOM     18  C   UNL     1      65.836 220.168 334.743  0.00  0.00    +0.000 C 
BRANCH  18  19
ATOM     19  O   UNL     1      66.120 220.978 333.729  0.00  0.00    +0.000 OA
ATOM     20  H   UNL     1      66.414 220.461 332.960  0.00  0.00    +0.000 HD
ENDBRANCH  18  19
ENDBRANCH  16  17
ENDBRANCH  13  16
ENDBRANCH   7  14
BRANCH   6  21
ATOM     21  N   UNL     1      68.024 216.724 340.691  0.00  0.00    +0.000 N 
ATOM     22  H   UNL     1      68.710 215.962 340.580  0.00  0.00    +0.000 HD
BRANCH  21  25
ATOM     23 BR   UNL     1      63.467 214.848 344.282  0.00  0.00    +0.000 Br
ATOM     24  F   UNL     1      68.437 215.963 343.309  0.00  0.00    +0.000 F 
ATOM     25  C   UNL     1      66.941 216.334 341.506  0.00  0.00    +0.000 A 
ATOM     26  C   UNL     1      67.183 215.924 342.828  0.00  0.00    +0.000 A 
ATOM     27  C   UNL     1      65.626 216.258 341.041  0.00  0.00    +0.000 A 
ATOM     28  C   UNL     1      66.162 215.483 343.663  0.00  0.00    +0.000 A 
ATOM     29  C   UNL     1      64.588 215.820 341.863  0.00  0.00    +0.000 A 
ATOM     30  C   UNL     1      64.866 215.437 343.170  0.00  0.00    +0.000 A 
ENDBRANCH  21  25
ENDBRANCH   6  21
TORSDOF 6
ENDMDL
MODEL 8
REMARK VINA RESULT:      -4.9     31.449     32.691
REMARK  Name = 10288191_Binimetinib.pdbqt.pdb
REMARK  6 active torsions:
REMARK  status: ('A' for Active; 'I' for Inactive)
REMARK    1  A    between atoms: C_6  and  N_21
REMARK    2  A    between atoms: C_7  and  C_14
REMARK    3  A    between atoms: N_13  and  O_16
REMARK    4  A    between atoms: O_16  and  C_17
REMARK    5  A    between atoms: C_18  and  O_19
REMARK    6  A    between atoms: N_21  and  C_25
REMARK                            x       y       z     vdW  Elec       q    Type
REMARK                         _______ _______ _______ _____ _____    ______ ____
ROOT
ATOM      1  F   UNL     1      73.183 223.595 340.836  0.00  0.00    +0.000 F 
ATOM      2  N   UNL     1      77.465 224.862 340.134  0.00  0.00    +0.000 N 
ATOM      3  N   UNL     1      75.991 224.081 341.580  0.00  0.00    +0.000 NA
ATOM      4  C   UNL     1      76.309 224.748 339.416  0.00  0.00    +0.000 A 
ATOM      5  C   UNL     1      75.397 224.252 340.343  0.00  0.00    +0.000 A 
ATOM      6  C   UNL     1      73.674 224.260 338.590  0.00  0.00    +0.000 A 
ATOM      7  C   UNL     1      74.639 224.780 337.688  0.00  0.00    +0.000 A 
ATOM      8  C   UNL     1      75.964 225.028 338.093  0.00  0.00    +0.000 A 
ATOM      9  C   UNL     1      74.074 224.011 339.924  0.00  0.00    +0.000 A 
ATOM     10  C   UNL     1      77.245 224.458 341.416  0.00  0.00    +0.000 A 
ATOM     11  C   UNL     1      78.717 225.312 339.623  0.00  0.00    +0.000 C 
ENDROOT
BRANCH   7  14
ATOM     12  O   UNL     1      73.646 226.139 336.035  0.00  0.00    +0.000 OA
ATOM     13  N   UNL     1      74.699 224.225 335.304  0.00  0.00    +0.000 N 
ATOM     14  C   UNL     1      74.281 225.115 336.273  0.00  0.00    +0.000 C 
ATOM     15  H   UNL     1      74.886 223.253 335.516  0.00  0.00    +0.000 HD
BRANCH  13  16
ATOM     16  O   UNL     1      74.101 224.433 334.042  0.00  0.00    +0.000 OA
BRANCH  16  17
ATOM     17  C   UNL     1      73.645 223.247 333.646  0.00  0.00    +0.000 C 
ATOM     18  C   UNL     1      73.122 221.877 333.201  0.00  0.00    +0.000 C 
BRANCH  18  19
ATOM     19  O   UNL     1      72.670 220.686 332.824  0.00  0.00    +0.000 OA
ATOM     20  H   UNL     1      72.596 220.647 331.856  0.00  0.00    +0.000 HD
ENDBRANCH  18  19
ENDBRANCH  16  17
ENDBRANCH  13  16
ENDBRANCH   7  14
BRANCH   6  21
ATOM     21  N   UNL     1      72.357 223.975 338.145  0.00  0.00    +0.000 N 
ATOM     22  H   UNL     1      72.009 224.651 337.448  0.00  0.00    +0.000 HD
BRANCH  21  25
ATOM     23 BR   UNL     1      69.213 218.751 338.243  0.00  0.00    +0.000 Br
ATOM     24  F   UNL     1      70.338 223.511 339.965  0.00  0.00    +0.000 F 
ATOM     25  C   UNL     1      71.623 222.771 338.114  0.00  0.00    +0.000 A 
ATOM     26  C   UNL     1      70.618 222.549 339.070  0.00  0.00    +0.000 A 
ATOM     27  C   UNL     1      71.895 221.736 337.216  0.00  0.00    +0.000 A 
ATOM     28  C   UNL     1      69.893 221.363 339.119  0.00  0.00    +0.000 A 
ATOM     29  C   UNL     1      71.178 220.540 337.248  0.00  0.00    +0.000 A 
ATOM     30  C   UNL     1      70.182 220.364 338.200  0.00  0.00    +0.000 A 
ENDBRANCH  21  25
ENDBRANCH   6  21
TORSDOF 6
ENDMDL
MODEL 9
REMARK VINA RESULT:      -4.9      3.538      6.037
REMARK  Name = 10288191_Binimetinib.pdbqt.pdb
REMARK  6 active torsions:
REMARK  status: ('A' for Active; 'I' for Inactive)
REMARK    1  A    between atoms: C_6  and  N_21
REMARK    2  A    between atoms: C_7  and  C_14
REMARK    3  A    between atoms: N_13  and  O_16
REMARK    4  A    between atoms: O_16  and  C_17
REMARK    5  A    between atoms: C_18  and  O_19
REMARK    6  A    between atoms: N_21  and  C_25
REMARK                            x       y       z     vdW  Elec       q    Type
REMARK                         _______ _______ _______ _____ _____    ______ ____
ROOT
ATOM      1  F   UNL     1      53.362 246.336 326.416  0.00  0.00    +0.000 F 
ATOM      2  N   UNL     1      51.680 248.962 329.687  0.00  0.00    +0.000 N 
ATOM      3  N   UNL     1      52.914 248.863 327.860  0.00  0.00    +0.000 NA
ATOM      4  C   UNL     1      51.622 247.652 329.307  0.00  0.00    +0.000 A 
ATOM      5  C   UNL     1      52.401 247.613 328.154  0.00  0.00    +0.000 A 
ATOM      6  C   UNL     1      51.933 245.207 327.970  0.00  0.00    +0.000 A 
ATOM      7  C   UNL     1      51.161 245.298 329.158  0.00  0.00    +0.000 A 
ATOM      8  C   UNL     1      50.999 246.520 329.836  0.00  0.00    +0.000 A 
ATOM      9  C   UNL     1      52.557 246.382 327.488  0.00  0.00    +0.000 A 
ATOM     10  C   UNL     1      52.455 249.657 328.809  0.00  0.00    +0.000 A 
ATOM     11  C   UNL     1      51.017 249.527 330.816  0.00  0.00    +0.000 C 
ENDROOT
BRANCH   7  14
ATOM     12  O   UNL     1      49.963 243.270 329.025  0.00  0.00    +0.000 OA
ATOM     13  N   UNL     1      50.569 243.978 331.133  0.00  0.00    +0.000 N 
ATOM     14  C   UNL     1      50.510 244.090 329.758  0.00  0.00    +0.000 C 
ATOM     15  H   UNL     1      50.685 244.786 331.730  0.00  0.00    +0.000 HD
BRANCH  13  16
ATOM     16  O   UNL     1      49.709 242.990 331.661  0.00  0.00    +0.000 OA
BRANCH  16  17
ATOM     17  C   UNL     1      48.728 243.643 332.280  0.00  0.00    +0.000 C 
ATOM     18  C   UNL     1      47.605 244.394 333.005  0.00  0.00    +0.000 C 
BRANCH  18  19
ATOM     19  O   UNL     1      46.637 245.045 333.640  0.00  0.00    +0.000 OA
ATOM     20  H   UNL     1      46.006 245.414 332.999  0.00  0.00    +0.000 HD
ENDBRANCH  18  19
ENDBRANCH  16  17
ENDBRANCH  13  16
ENDBRANCH   7  14
BRANCH   6  21
ATOM     21  N   UNL     1      52.044 243.972 327.280  0.00  0.00    +0.000 N 
ATOM     22  H   UNL     1      51.894 243.152 327.887  0.00  0.00    +0.000 HD
BRANCH  21  25
ATOM     23 BR   UNL     1      51.150 242.419 321.451  0.00  0.00    +0.000 Br
ATOM     24  F   UNL     1      49.533 243.928 326.140  0.00  0.00    +0.000 F 
ATOM     25  C   UNL     1      51.878 243.647 325.917  0.00  0.00    +0.000 A 
ATOM     26  C   UNL     1      50.584 243.605 325.370  0.00  0.00    +0.000 A 
ATOM     27  C   UNL     1      52.939 243.284 325.085  0.00  0.00    +0.000 A 
ATOM     28  C   UNL     1      50.354 243.246 324.046  0.00  0.00    +0.000 A 
ATOM     29  C   UNL     1      52.729 242.921 323.755  0.00  0.00    +0.000 A 
ATOM     30  C   UNL     1      51.436 242.906 323.246  0.00  0.00    +0.000 A 
ENDBRANCH  21  25
ENDBRANCH   6  21
TORSDOF 6
ENDMDL
