MODEL 1
REMARK VINA RESULT:      -3.7      0.000      0.000
REMARK  Name = 10281_Thymoquinone.pdbqt.pdb
REMARK  1 active torsions:
REMARK  status: ('A' for Active; 'I' for Inactive)
REMARK    1  A    between atoms: C_3  and  C_10
REMARK                            x       y       z     vdW  Elec       q    Type
REMARK                         _______ _______ _______ _____ _____    ______ ____
ROOT
ATOM      1  O   UNL     1      39.937 235.958 337.414  0.00  0.00    +0.000 OA
ATOM      2  O   UNL     1      43.844 237.079 333.889  0.00  0.00    +0.000 OA
ATOM      3  C   UNL     1      42.231 236.658 337.096  0.00  0.00    +0.000 C 
ATOM      4  C   UNL     1      40.858 236.225 336.668  0.00  0.00    +0.000 C 
ATOM      5  C   UNL     1      43.003 236.871 336.060  0.00  0.00    +0.000 C 
ATOM      6  C   UNL     1      41.493 236.362 334.180  0.00  0.00    +0.000 C 
ATOM      7  C   UNL     1      42.897 236.804 334.601  0.00  0.00    +0.000 C 
ATOM      8  C   UNL     1      40.728 236.152 335.217  0.00  0.00    +0.000 C 
ATOM      9  C   UNL     1      41.004 236.182 332.780  0.00  0.00    +0.000 C 
ENDROOT
BRANCH   3  10
ATOM     10  C   UNL     1      42.554 236.786 338.478  0.00  0.00    +0.000 C 
ATOM     11  C   UNL     1      42.399 238.111 339.183  0.00  0.00    +0.000 C 
ATOM     12  C   UNL     1      42.646 235.565 339.360  0.00  0.00    +0.000 C 
ENDBRANCH   3  10
TORSDOF 1
ENDMDL
MODEL 2
REMARK VINA RESULT:      -3.7     11.481     13.597
REMARK  Name = 10281_Thymoquinone.pdbqt.pdb
REMARK  1 active torsions:
REMARK  status: ('A' for Active; 'I' for Inactive)
REMARK    1  A    between atoms: C_3  and  C_10
REMARK                            x       y       z     vdW  Elec       q    Type
REMARK                         _______ _______ _______ _____ _____    ______ ____
ROOT
ATOM      1  O   UNL     1      45.356 235.471 324.153  0.00  0.00    +0.000 OA
ATOM      2  O   UNL     1      49.832 238.070 325.623  0.00  0.00    +0.000 OA
ATOM      3  C   UNL     1      47.758 235.648 323.922  0.00  0.00    +0.000 C 
ATOM      4  C   UNL     1      46.401 236.018 324.446  0.00  0.00    +0.000 C 
ATOM      5  C   UNL     1      48.686 236.423 324.424  0.00  0.00    +0.000 C 
ATOM      6  C   UNL     1      47.375 237.916 325.882  0.00  0.00    +0.000 C 
ATOM      7  C   UNL     1      48.766 237.550 325.355  0.00  0.00    +0.000 C 
ATOM      8  C   UNL     1      46.455 237.139 325.377  0.00  0.00    +0.000 C 
ATOM      9  C   UNL     1      47.054 239.008 326.850  0.00  0.00    +0.000 C 
ENDROOT
BRANCH   3  10
ATOM     10  C   UNL     1      47.910 234.576 322.995  0.00  0.00    +0.000 C 
ATOM     11  C   UNL     1      48.119 234.854 321.526  0.00  0.00    +0.000 C 
ATOM     12  C   UNL     1      48.288 233.195 323.474  0.00  0.00    +0.000 C 
ENDBRANCH   3  10
TORSDOF 1
ENDMDL
MODEL 3
REMARK VINA RESULT:      -3.6     24.397     25.547
REMARK  Name = 10281_Thymoquinone.pdbqt.pdb
REMARK  1 active torsions:
REMARK  status: ('A' for Active; 'I' for Inactive)
REMARK    1  A    between atoms: C_3  and  C_10
REMARK                            x       y       z     vdW  Elec       q    Type
REMARK                         _______ _______ _______ _____ _____    ______ ____
ROOT
ATOM      1  O   UNL     1      61.170 226.351 322.315  0.00  0.00    +0.000 OA
ATOM      2  O   UNL     1      63.552 228.743 326.503  0.00  0.00    +0.000 OA
ATOM      3  C   UNL     1      61.986 228.422 323.263  0.00  0.00    +0.000 C 
ATOM      4  C   UNL     1      61.704 226.947 323.229  0.00  0.00    +0.000 C 
ATOM      5  C   UNL     1      62.569 228.765 324.384  0.00  0.00    +0.000 C 
ATOM      6  C   UNL     1      62.729 226.607 325.562  0.00  0.00    +0.000 C 
ATOM      7  C   UNL     1      63.022 228.109 325.611  0.00  0.00    +0.000 C 
ATOM      8  C   UNL     1      62.148 226.271 324.442  0.00  0.00    +0.000 C 
ATOM      9  C   UNL     1      63.047 225.608 326.626  0.00  0.00    +0.000 C 
ENDROOT
BRANCH   3  10
ATOM     10  C   UNL     1      61.621 229.256 322.166  0.00  0.00    +0.000 C 
ATOM     11  C   UNL     1      60.200 229.740 322.009  0.00  0.00    +0.000 C 
ATOM     12  C   UNL     1      62.674 230.011 321.393  0.00  0.00    +0.000 C 
ENDBRANCH   3  10
TORSDOF 1
ENDMDL
MODEL 4
REMARK VINA RESULT:      -3.6     24.160     25.409
REMARK  Name = 10281_Thymoquinone.pdbqt.pdb
REMARK  1 active torsions:
REMARK  status: ('A' for Active; 'I' for Inactive)
REMARK    1  A    between atoms: C_3  and  C_10
REMARK                            x       y       z     vdW  Elec       q    Type
REMARK                         _______ _______ _______ _____ _____    ______ ____
ROOT
ATOM      1  O   UNL     1      56.689 215.080 339.471  0.00  0.00    +0.000 OA
ATOM      2  O   UNL     1      58.665 220.083 339.555  0.00  0.00    +0.000 OA
ATOM      3  C   UNL     1      58.125 216.666 340.600  0.00  0.00    +0.000 C 
ATOM      4  C   UNL     1      57.168 216.195 339.544  0.00  0.00    +0.000 C 
ATOM      5  C   UNL     1      58.462 217.917 340.407  0.00  0.00    +0.000 C 
ATOM      6  C   UNL     1      57.187 218.485 338.377  0.00  0.00    +0.000 C 
ATOM      7  C   UNL     1      58.164 218.981 339.447  0.00  0.00    +0.000 C 
ATOM      8  C   UNL     1      56.855 217.238 338.575  0.00  0.00    +0.000 C 
ATOM      9  C   UNL     1      56.649 219.282 337.233  0.00  0.00    +0.000 C 
ENDROOT
BRANCH   3  10
ATOM     10  C   UNL     1      58.554 215.786 341.636  0.00  0.00    +0.000 C 
ATOM     11  C   UNL     1      59.553 214.692 341.349  0.00  0.00    +0.000 C 
ATOM     12  C   UNL     1      58.372 216.162 343.086  0.00  0.00    +0.000 C 
ENDBRANCH   3  10
TORSDOF 1
ENDMDL
MODEL 5
REMARK VINA RESULT:      -3.5      1.675      4.133
REMARK  Name = 10281_Thymoquinone.pdbqt.pdb
REMARK  1 active torsions:
REMARK  status: ('A' for Active; 'I' for Inactive)
REMARK    1  A    between atoms: C_3  and  C_10
REMARK                            x       y       z     vdW  Elec       q    Type
REMARK                         _______ _______ _______ _____ _____    ______ ____
ROOT
ATOM      1  O   UNL     1      39.321 235.998 335.801  0.00  0.00    +0.000 OA
ATOM      2  O   UNL     1      44.115 236.819 338.100  0.00  0.00    +0.000 OA
ATOM      3  C   UNL     1      41.669 236.473 335.462  0.00  0.00    +0.000 C 
ATOM      4  C   UNL     1      40.429 236.191 336.261  0.00  0.00    +0.000 C 
ATOM      5  C   UNL     1      42.707 236.637 336.244  0.00  0.00    +0.000 C 
ATOM      6  C   UNL     1      41.718 236.332 338.480  0.00  0.00    +0.000 C 
ATOM      7  C   UNL     1      42.991 236.621 337.680  0.00  0.00    +0.000 C 
ATOM      8  C   UNL     1      40.688 236.169 337.696  0.00  0.00    +0.000 C 
ATOM      9  C   UNL     1      41.611 236.235 339.968  0.00  0.00    +0.000 C 
ENDROOT
BRANCH   3  10
ATOM     10  C   UNL     1      41.617 236.537 334.039  0.00  0.00    +0.000 C 
ATOM     11  C   UNL     1      42.006 237.802 333.314  0.00  0.00    +0.000 C 
ATOM     12  C   UNL     1      41.591 235.274 333.214  0.00  0.00    +0.000 C 
ENDBRANCH   3  10
TORSDOF 1
ENDMDL
MODEL 6
REMARK VINA RESULT:      -3.5      8.973      9.830
REMARK  Name = 10281_Thymoquinone.pdbqt.pdb
REMARK  1 active torsions:
REMARK  status: ('A' for Active; 'I' for Inactive)
REMARK    1  A    between atoms: C_3  and  C_10
REMARK                            x       y       z     vdW  Elec       q    Type
REMARK                         _______ _______ _______ _____ _____    ______ ____
ROOT
ATOM      1  O   UNL     1      45.600 240.780 345.968  0.00  0.00    +0.000 OA
ATOM      2  O   UNL     1      47.531 240.698 340.948  0.00  0.00    +0.000 OA
ATOM      3  C   UNL     1      46.441 239.425 344.150  0.00  0.00    +0.000 C 
ATOM      4  C   UNL     1      46.042 240.697 344.839  0.00  0.00    +0.000 C 
ATOM      5  C   UNL     1      46.880 239.662 342.939  0.00  0.00    +0.000 C 
ATOM      6  C   UNL     1      46.676 242.113 342.790  0.00  0.00    +0.000 C 
ATOM      7  C   UNL     1      47.087 240.824 342.073  0.00  0.00    +0.000 C 
ATOM      8  C   UNL     1      46.240 241.870 343.996  0.00  0.00    +0.000 C 
ATOM      9  C   UNL     1      46.745 243.497 342.230  0.00  0.00    +0.000 C 
ENDROOT
BRANCH   3  10
ATOM     10  C   UNL     1      46.317 238.169 344.813  0.00  0.00    +0.000 C 
ATOM     11  C   UNL     1      45.004 237.425 344.806  0.00  0.00    +0.000 C 
ATOM     12  C   UNL     1      47.543 237.362 345.163  0.00  0.00    +0.000 C 
ENDBRANCH   3  10
TORSDOF 1
ENDMDL
MODEL 7
REMARK VINA RESULT:      -3.5     32.154     33.506
REMARK  Name = 10281_Thymoquinone.pdbqt.pdb
REMARK  1 active torsions:
REMARK  status: ('A' for Active; 'I' for Inactive)
REMARK    1  A    between atoms: C_3  and  C_10
REMARK                            x       y       z     vdW  Elec       q    Type
REMARK                         _______ _______ _______ _____ _____    ______ ____
ROOT
ATOM      1  O   UNL     1      69.892 220.778 340.027  0.00  0.00    +0.000 OA
ATOM      2  O   UNL     1      74.445 223.566 340.690  0.00  0.00    +0.000 OA
ATOM      3  C   UNL     1      71.299 222.571 339.216  0.00  0.00    +0.000 C 
ATOM      4  C   UNL     1      70.904 221.443 340.125  0.00  0.00    +0.000 C 
ATOM      5  C   UNL     1      72.444 223.091 339.580  0.00  0.00    +0.000 C 
ATOM      6  C   UNL     1      73.028 221.724 341.545  0.00  0.00    +0.000 C 
ATOM      7  C   UNL     1      73.445 222.877 340.627  0.00  0.00    +0.000 C 
ATOM      8  C   UNL     1      71.886 221.210 341.177  0.00  0.00    +0.000 C 
ATOM      9  C   UNL     1      73.792 221.211 342.722  0.00  0.00    +0.000 C 
ENDROOT
BRANCH   3  10
ATOM     10  C   UNL     1      70.463 222.952 338.126  0.00  0.00    +0.000 C 
ATOM     11  C   UNL     1      70.619 222.300 336.774  0.00  0.00    +0.000 C 
ATOM     12  C   UNL     1      69.162 223.676 338.374  0.00  0.00    +0.000 C 
ENDBRANCH   3  10
TORSDOF 1
ENDMDL
MODEL 8
REMARK VINA RESULT:      -3.5     33.970     35.095
REMARK  Name = 10281_Thymoquinone.pdbqt.pdb
REMARK  1 active torsions:
REMARK  status: ('A' for Active; 'I' for Inactive)
REMARK    1  A    between atoms: C_3  and  C_10
REMARK                            x       y       z     vdW  Elec       q    Type
REMARK                         _______ _______ _______ _____ _____    ______ ____
ROOT
ATOM      1  O   UNL     1      78.891 234.350 337.631  0.00  0.00    +0.000 OA
ATOM      2  O   UNL     1      73.804 234.272 339.379  0.00  0.00    +0.000 OA
ATOM      3  C   UNL     1      77.404 233.985 339.504  0.00  0.00    +0.000 C 
ATOM      4  C   UNL     1      77.765 234.316 338.085  0.00  0.00    +0.000 C 
ATOM      5  C   UNL     1      76.108 234.032 339.685  0.00  0.00    +0.000 C 
ATOM      6  C   UNL     1      75.298 234.652 337.442  0.00  0.00    +0.000 C 
ATOM      7  C   UNL     1      74.915 234.317 338.887  0.00  0.00    +0.000 C 
ATOM      8  C   UNL     1      76.591 234.603 337.268  0.00  0.00    +0.000 C 
ATOM      9  C   UNL     1      74.356 234.995 336.334  0.00  0.00    +0.000 C 
ENDROOT
BRANCH   3  10
ATOM     10  C   UNL     1      78.418 233.677 340.458  0.00  0.00    +0.000 C 
ATOM     11  C   UNL     1      78.766 234.658 341.551  0.00  0.00    +0.000 C 
ATOM     12  C   UNL     1      78.863 232.251 340.672  0.00  0.00    +0.000 C 
ENDBRANCH   3  10
TORSDOF 1
ENDMDL
MODEL 9
REMARK VINA RESULT:      -3.5     20.473     21.196
REMARK  Name = 10281_Thymoquinone.pdbqt.pdb
REMARK  1 active torsions:
REMARK  status: ('A' for Active; 'I' for Inactive)
REMARK    1  A    between atoms: C_3  and  C_10
REMARK                            x       y       z     vdW  Elec       q    Type
REMARK                         _______ _______ _______ _____ _____    ______ ____
ROOT
ATOM      1  O   UNL     1      53.056 217.945 329.394  0.00  0.00    +0.000 OA
ATOM      2  O   UNL     1      48.573 219.395 331.990  0.00  0.00    +0.000 OA
ATOM      3  C   UNL     1      52.022 218.418 331.529  0.00  0.00    +0.000 C 
ATOM      4  C   UNL     1      52.077 218.269 330.036  0.00  0.00    +0.000 C 
ATOM      5  C   UNL     1      50.826 218.778 331.924  0.00  0.00    +0.000 C 
ATOM      6  C   UNL     1      49.601 218.916 329.790  0.00  0.00    +0.000 C 
ATOM      7  C   UNL     1      49.529 219.074 331.311  0.00  0.00    +0.000 C 
ATOM      8  C   UNL     1      50.795 218.557 329.403  0.00  0.00    +0.000 C 
ATOM      9  C   UNL     1      48.481 219.130 328.825  0.00  0.00    +0.000 C 
ENDROOT
BRANCH   3  10
ATOM     10  C   UNL     1      53.179 218.181 332.326  0.00  0.00    +0.000 C 
ATOM     11  C   UNL     1      53.520 216.785 332.788  0.00  0.00    +0.000 C 
ATOM     12  C   UNL     1      54.297 219.193 332.376  0.00  0.00    +0.000 C 
ENDBRANCH   3  10
TORSDOF 1
ENDMDL
