MODEL 1
REMARK VINA RESULT:      -5.8      0.000      0.000
REMARK  Name = 10639_Physcion.pdbqt.pdb
REMARK  3 active torsions:
REMARK  status: ('A' for Active; 'I' for Inactive)
REMARK    1  A    between atoms: C_10  and  O_18
REMARK    2  A    between atoms: C_12  and  O_20
REMARK    3  A    between atoms: C_15  and  O_22
REMARK                            x       y       z     vdW  Elec       q    Type
REMARK                         _______ _______ _______ _____ _____    ______ ____
ROOT
ATOM      1  O   UNL     1      54.549 243.438 321.630  0.00  0.00    +0.000 OA
ATOM      2  O   UNL     1      53.749 247.077 325.438  0.00  0.00    +0.000 OA
ATOM      3  C   UNL     1      54.924 246.446 323.519  0.00  0.00    +0.000 A 
ATOM      4  C   UNL     1      55.127 245.490 322.527  0.00  0.00    +0.000 A 
ATOM      5  C   UNL     1      53.312 244.019 323.587  0.00  0.00    +0.000 A 
ATOM      6  C   UNL     1      53.131 244.995 324.567  0.00  0.00    +0.000 A 
ATOM      7  C   UNL     1      54.329 244.245 322.527  0.00  0.00    +0.000 C 
ATOM      8  C   UNL     1      53.923 246.234 324.570  0.00  0.00    +0.000 C 
ATOM      9  C   UNL     1      55.669 247.628 323.534  0.00  0.00    +0.000 A 
ATOM     10  C   UNL     1      56.094 245.734 321.542  0.00  0.00    +0.000 A 
ATOM     11  C   UNL     1      56.624 247.855 322.550  0.00  0.00    +0.000 A 
ATOM     12  C   UNL     1      52.522 242.864 323.647  0.00  0.00    +0.000 A 
ATOM     13  C   UNL     1      52.186 244.828 325.585  0.00  0.00    +0.000 A 
ATOM     14  C   UNL     1      56.841 246.912 321.552  0.00  0.00    +0.000 A 
ATOM     15  C   UNL     1      51.404 243.678 325.639  0.00  0.00    +0.000 A 
ATOM     16  C   UNL     1      51.579 242.698 324.664  0.00  0.00    +0.000 A 
ATOM     17  C   UNL     1      57.422 249.125 322.569  0.00  0.00    +0.000 C 
ENDROOT
BRANCH  10  18
ATOM     18  O   UNL     1      56.365 244.855 320.528  0.00  0.00    +0.000 OA
ATOM     19  H   UNL     1      56.596 245.366 319.717  0.00  0.00    +0.000 HD
ENDBRANCH  10  18
BRANCH  12  20
ATOM     20  O   UNL     1      52.643 241.867 322.723  0.00  0.00    +0.000 OA
ATOM     21  H   UNL     1      53.095 241.100 323.119  0.00  0.00    +0.000 HD
ENDBRANCH  12  20
BRANCH  15  22
ATOM     22  O   UNL     1      50.507 243.609 326.676  0.00  0.00    +0.000 OA
ATOM     23  C   UNL     1      51.037 243.902 327.940  0.00  0.00    +0.000 C 
ENDBRANCH  15  22
TORSDOF 3
ENDMDL
MODEL 2
REMARK VINA RESULT:      -5.7     31.736     32.883
REMARK  Name = 10639_Physcion.pdbqt.pdb
REMARK  3 active torsions:
REMARK  status: ('A' for Active; 'I' for Inactive)
REMARK    1  A    between atoms: C_10  and  O_18
REMARK    2  A    between atoms: C_12  and  O_20
REMARK    3  A    between atoms: C_15  and  O_22
REMARK                            x       y       z     vdW  Elec       q    Type
REMARK                         _______ _______ _______ _____ _____    ______ ____
ROOT
ATOM      1  O   UNL     1      69.640 219.165 341.309  0.00  0.00    +0.000 OA
ATOM      2  O   UNL     1      69.537 222.630 337.264  0.00  0.00    +0.000 OA
ATOM      3  C   UNL     1      70.595 221.895 339.215  0.00  0.00    +0.000 A 
ATOM      4  C   UNL     1      70.614 220.986 340.269  0.00  0.00    +0.000 A 
ATOM      5  C   UNL     1      68.510 219.862 339.326  0.00  0.00    +0.000 A 
ATOM      6  C   UNL     1      68.516 220.787 338.281  0.00  0.00    +0.000 A 
ATOM      7  C   UNL     1      69.573 219.939 340.361  0.00  0.00    +0.000 C 
ATOM      8  C   UNL     1      69.550 221.829 338.188  0.00  0.00    +0.000 C 
ATOM      9  C   UNL     1      71.570 222.890 339.112  0.00  0.00    +0.000 A 
ATOM     10  C   UNL     1      71.631 221.086 341.228  0.00  0.00    +0.000 A 
ATOM     11  C   UNL     1      72.572 222.977 340.071  0.00  0.00    +0.000 A 
ATOM     12  C   UNL     1      67.495 218.898 339.351  0.00  0.00    +0.000 A 
ATOM     13  C   UNL     1      67.535 220.754 337.284  0.00  0.00    +0.000 A 
ATOM     14  C   UNL     1      72.608 222.078 341.132  0.00  0.00    +0.000 A 
ATOM     15  C   UNL     1      66.530 219.793 337.315  0.00  0.00    +0.000 A 
ATOM     16  C   UNL     1      66.516 218.866 338.355  0.00  0.00    +0.000 A 
ATOM     17  C   UNL     1      73.617 224.046 339.959  0.00  0.00    +0.000 C 
ENDROOT
BRANCH  10  18
ATOM     18  O   UNL     1      71.734 220.239 342.299  0.00  0.00    +0.000 OA
ATOM     19  H   UNL     1      70.947 219.645 342.312  0.00  0.00    +0.000 HD
ENDBRANCH  10  18
BRANCH  12  20
ATOM     20  O   UNL     1      67.424 217.961 340.341  0.00  0.00    +0.000 OA
ATOM     21  H   UNL     1      68.235 217.984 340.880  0.00  0.00    +0.000 HD
ENDBRANCH  12  20
BRANCH  15  22
ATOM     22  O   UNL     1      65.617 219.846 336.292  0.00  0.00    +0.000 OA
ATOM     23  C   UNL     1      66.163 220.057 335.018  0.00  0.00    +0.000 C 
ENDBRANCH  15  22
TORSDOF 3
ENDMDL
MODEL 3
REMARK VINA RESULT:      -5.5      2.978      5.732
REMARK  Name = 10639_Physcion.pdbqt.pdb
REMARK  3 active torsions:
REMARK  status: ('A' for Active; 'I' for Inactive)
REMARK    1  A    between atoms: C_10  and  O_18
REMARK    2  A    between atoms: C_12  and  O_20
REMARK    3  A    between atoms: C_15  and  O_22
REMARK                            x       y       z     vdW  Elec       q    Type
REMARK                         _______ _______ _______ _____ _____    ______ ____
ROOT
ATOM      1  O   UNL     1      50.691 242.639 327.782  0.00  0.00    +0.000 OA
ATOM      2  O   UNL     1      53.456 247.163 327.259  0.00  0.00    +0.000 OA
ATOM      3  C   UNL     1      52.847 245.099 326.347  0.00  0.00    +0.000 A 
ATOM      4  C   UNL     1      52.121 243.919 326.492  0.00  0.00    +0.000 A 
ATOM      5  C   UNL     1      51.273 244.731 328.772  0.00  0.00    +0.000 A 
ATOM      6  C   UNL     1      52.010 245.903 328.600  0.00  0.00    +0.000 A 
ATOM      7  C   UNL     1      51.310 243.694 327.708  0.00  0.00    +0.000 C 
ATOM      8  C   UNL     1      52.817 246.129 327.392  0.00  0.00    +0.000 C 
ATOM      9  C   UNL     1      53.618 245.327 325.205  0.00  0.00    +0.000 A 
ATOM     10  C   UNL     1      52.179 242.962 325.469  0.00  0.00    +0.000 A 
ATOM     11  C   UNL     1      53.665 244.368 324.200  0.00  0.00    +0.000 A 
ATOM     12  C   UNL     1      50.527 244.585 329.949  0.00  0.00    +0.000 A 
ATOM     13  C   UNL     1      52.006 246.908 329.574  0.00  0.00    +0.000 A 
ATOM     14  C   UNL     1      52.947 243.184 324.326  0.00  0.00    +0.000 A 
ATOM     15  C   UNL     1      51.263 246.756 330.740  0.00  0.00    +0.000 A 
ATOM     16  C   UNL     1      50.524 245.588 330.920  0.00  0.00    +0.000 A 
ATOM     17  C   UNL     1      54.493 244.616 322.975  0.00  0.00    +0.000 C 
ENDROOT
BRANCH  10  18
ATOM     18  O   UNL     1      51.501 241.774 325.521  0.00  0.00    +0.000 OA
ATOM     19  H   UNL     1      51.144 241.649 326.432  0.00  0.00    +0.000 HD
ENDBRANCH  10  18
BRANCH  12  20
ATOM     20  O   UNL     1      49.782 243.466 330.187  0.00  0.00    +0.000 OA
ATOM     21  H   UNL     1      49.080 243.665 330.833  0.00  0.00    +0.000 HD
ENDBRANCH  12  20
BRANCH  15  22
ATOM     22  O   UNL     1      51.325 247.796 331.632  0.00  0.00    +0.000 OA
ATOM     23  C   UNL     1      51.395 247.419 332.981  0.00  0.00    +0.000 C 
ENDBRANCH  15  22
TORSDOF 3
ENDMDL
MODEL 4
REMARK VINA RESULT:      -5.5     31.981     32.983
REMARK  Name = 10639_Physcion.pdbqt.pdb
REMARK  3 active torsions:
REMARK  status: ('A' for Active; 'I' for Inactive)
REMARK    1  A    between atoms: C_10  and  O_18
REMARK    2  A    between atoms: C_12  and  O_20
REMARK    3  A    between atoms: C_15  and  O_22
REMARK                            x       y       z     vdW  Elec       q    Type
REMARK                         _______ _______ _______ _____ _____    ______ ____
ROOT
ATOM      1  O   UNL     1      72.067 223.349 336.260  0.00  0.00    +0.000 OA
ATOM      2  O   UNL     1      74.167 223.808 341.135  0.00  0.00    +0.000 OA
ATOM      3  C   UNL     1      72.563 222.812 339.756  0.00  0.00    +0.000 A 
ATOM      4  C   UNL     1      72.021 222.699 338.478  0.00  0.00    +0.000 A 
ATOM      5  C   UNL     1      73.728 224.404 337.610  0.00  0.00    +0.000 A 
ATOM      6  C   UNL     1      74.252 224.497 338.900  0.00  0.00    +0.000 A 
ATOM      7  C   UNL     1      72.583 223.489 337.363  0.00  0.00    +0.000 C 
ATOM      8  C   UNL     1      73.694 223.712 340.011  0.00  0.00    +0.000 C 
ATOM      9  C   UNL     1      72.044 222.073 340.821  0.00  0.00    +0.000 A 
ATOM     10  C   UNL     1      70.941 221.827 338.280  0.00  0.00    +0.000 A 
ATOM     11  C   UNL     1      70.973 221.212 340.608  0.00  0.00    +0.000 A 
ATOM     12  C   UNL     1      74.310 225.182 336.601  0.00  0.00    +0.000 A 
ATOM     13  C   UNL     1      75.329 225.344 339.182  0.00  0.00    +0.000 A 
ATOM     14  C   UNL     1      70.417 221.085 339.339  0.00  0.00    +0.000 A 
ATOM     15  C   UNL     1      75.903 226.114 338.174  0.00  0.00    +0.000 A 
ATOM     16  C   UNL     1      75.386 226.027 336.883  0.00  0.00    +0.000 A 
ATOM     17  C   UNL     1      70.418 220.420 341.753  0.00  0.00    +0.000 C 
ENDROOT
BRANCH  10  18
ATOM     18  O   UNL     1      70.341 221.648 337.062  0.00  0.00    +0.000 OA
ATOM     19  H   UNL     1      71.040 221.540 336.375  0.00  0.00    +0.000 HD
ENDBRANCH  10  18
BRANCH  12  20
ATOM     20  O   UNL     1      73.852 225.143 335.316  0.00  0.00    +0.000 OA
ATOM     21  H   UNL     1      73.501 224.257 335.114  0.00  0.00    +0.000 HD
ENDBRANCH  12  20
BRANCH  15  22
ATOM     22  O   UNL     1      76.953 226.912 338.552  0.00  0.00    +0.000 OA
ATOM     23  C   UNL     1      77.517 226.600 339.797  0.00  0.00    +0.000 C 
ENDBRANCH  15  22
TORSDOF 3
ENDMDL
MODEL 5
REMARK VINA RESULT:      -5.3     22.023     25.681
REMARK  Name = 10639_Physcion.pdbqt.pdb
REMARK  3 active torsions:
REMARK  status: ('A' for Active; 'I' for Inactive)
REMARK    1  A    between atoms: C_10  and  O_18
REMARK    2  A    between atoms: C_12  and  O_20
REMARK    3  A    between atoms: C_15  and  O_22
REMARK                            x       y       z     vdW  Elec       q    Type
REMARK                         _______ _______ _______ _____ _____    ______ ____
ROOT
ATOM      1  O   UNL     1      55.140 239.083 349.083  0.00  0.00    +0.000 OA
ATOM      2  O   UNL     1      57.133 244.001 348.610  0.00  0.00    +0.000 OA
ATOM      3  C   UNL     1      57.219 241.925 349.680  0.00  0.00    +0.000 A 
ATOM      4  C   UNL     1      56.692 240.641 349.797  0.00  0.00    +0.000 A 
ATOM      5  C   UNL     1      54.995 241.179 347.951  0.00  0.00    +0.000 A 
ATOM      6  C   UNL     1      55.544 242.458 347.855  0.00  0.00    +0.000 A 
ATOM      7  C   UNL     1      55.563 240.224 348.938  0.00  0.00    +0.000 C 
ATOM      8  C   UNL     1      56.666 242.875 348.709  0.00  0.00    +0.000 C 
ATOM      9  C   UNL     1      58.285 242.335 350.484  0.00  0.00    +0.000 A 
ATOM     10  C   UNL     1      57.251 239.766 350.739  0.00  0.00    +0.000 A 
ATOM     11  C   UNL     1      58.829 241.455 351.413  0.00  0.00    +0.000 A 
ATOM     12  C   UNL     1      53.927 240.851 347.106  0.00  0.00    +0.000 A 
ATOM     13  C   UNL     1      55.043 243.392 346.941  0.00  0.00    +0.000 A 
ATOM     14  C   UNL     1      58.316 240.169 351.545  0.00  0.00    +0.000 A 
ATOM     15  C   UNL     1      53.982 243.059 346.105  0.00  0.00    +0.000 A 
ATOM     16  C   UNL     1      53.428 241.784 346.194  0.00  0.00    +0.000 A 
ATOM     17  C   UNL     1      59.973 241.898 352.274  0.00  0.00    +0.000 C 
ENDROOT
BRANCH  10  18
ATOM     18  O   UNL     1      56.802 238.486 350.927  0.00  0.00    +0.000 OA
ATOM     19  H   UNL     1      57.448 237.859 350.525  0.00  0.00    +0.000 HD
ENDBRANCH  10  18
BRANCH  12  20
ATOM     20  O   UNL     1      53.340 239.620 347.142  0.00  0.00    +0.000 OA
ATOM     21  H   UNL     1      53.035 239.423 348.045  0.00  0.00    +0.000 HD
ENDBRANCH  12  20
BRANCH  15  22
ATOM     22  O   UNL     1      53.564 244.044 345.244  0.00  0.00    +0.000 OA
ATOM     23  C   UNL     1      52.252 244.492 345.447  0.00  0.00    +0.000 C 
ENDBRANCH  15  22
TORSDOF 3
ENDMDL
MODEL 6
REMARK VINA RESULT:      -5.3     23.809     25.885
REMARK  Name = 10639_Physcion.pdbqt.pdb
REMARK  3 active torsions:
REMARK  status: ('A' for Active; 'I' for Inactive)
REMARK    1  A    between atoms: C_10  and  O_18
REMARK    2  A    between atoms: C_12  and  O_20
REMARK    3  A    between atoms: C_15  and  O_22
REMARK                            x       y       z     vdW  Elec       q    Type
REMARK                         _______ _______ _______ _____ _____    ______ ____
ROOT
ATOM      1  O   UNL     1      55.629 242.530 347.006  0.00  0.00    +0.000 OA
ATOM      2  O   UNL     1      55.522 239.205 351.166  0.00  0.00    +0.000 OA
ATOM      3  C   UNL     1      56.583 240.981 350.079  0.00  0.00    +0.000 A 
ATOM      4  C   UNL     1      56.604 241.846 348.988  0.00  0.00    +0.000 A 
ATOM      5  C   UNL     1      54.496 240.715 348.062  0.00  0.00    +0.000 A 
ATOM      6  C   UNL     1      54.501 239.861 349.166  0.00  0.00    +0.000 A 
ATOM      7  C   UNL     1      55.562 241.743 347.943  0.00  0.00    +0.000 C 
ATOM      8  C   UNL     1      55.535 239.962 350.206  0.00  0.00    +0.000 C 
ATOM      9  C   UNL     1      57.559 241.064 351.075  0.00  0.00    +0.000 A 
ATOM     10  C   UNL     1      57.624 242.804 348.906  0.00  0.00    +0.000 A 
ATOM     11  C   UNL     1      58.564 242.020 350.979  0.00  0.00    +0.000 A 
ATOM     12  C   UNL     1      53.480 240.561 347.111  0.00  0.00    +0.000 A 
ATOM     13  C   UNL     1      53.518 238.878 349.322  0.00  0.00    +0.000 A 
ATOM     14  C   UNL     1      58.602 242.893 349.897  0.00  0.00    +0.000 A 
ATOM     15  C   UNL     1      52.511 238.731 348.373  0.00  0.00    +0.000 A 
ATOM     16  C   UNL     1      52.499 239.579 347.267  0.00  0.00    +0.000 A 
ATOM     17  C   UNL     1      59.610 242.107 352.050  0.00  0.00    +0.000 C 
ENDROOT
BRANCH  10  18
ATOM     18  O   UNL     1      57.728 243.697 347.874  0.00  0.00    +0.000 OA
ATOM     19  H   UNL     1      58.621 244.114 347.901  0.00  0.00    +0.000 HD
ENDBRANCH  10  18
BRANCH  12  20
ATOM     20  O   UNL     1      53.410 241.359 346.005  0.00  0.00    +0.000 OA
ATOM     21  H   UNL     1      54.056 242.084 346.077  0.00  0.00    +0.000 HD
ENDBRANCH  12  20
BRANCH  15  22
ATOM     22  O   UNL     1      51.596 237.738 348.617  0.00  0.00    +0.000 OA
ATOM     23  C   UNL     1      50.254 238.133 348.528  0.00  0.00    +0.000 C 
ENDBRANCH  15  22
TORSDOF 3
ENDMDL
MODEL 7
REMARK VINA RESULT:      -5.2     32.584     33.679
REMARK  Name = 10639_Physcion.pdbqt.pdb
REMARK  3 active torsions:
REMARK  status: ('A' for Active; 'I' for Inactive)
REMARK    1  A    between atoms: C_10  and  O_18
REMARK    2  A    between atoms: C_12  and  O_20
REMARK    3  A    between atoms: C_15  and  O_22
REMARK                            x       y       z     vdW  Elec       q    Type
REMARK                         _______ _______ _______ _____ _____    ______ ____
ROOT
ATOM      1  O   UNL     1      73.120 223.800 339.025  0.00  0.00    +0.000 OA
ATOM      2  O   UNL     1      70.287 219.849 341.204  0.00  0.00    +0.000 OA
ATOM      3  C   UNL     1      72.157 221.246 341.329  0.00  0.00    +0.000 A 
ATOM      4  C   UNL     1      72.891 222.279 340.752  0.00  0.00    +0.000 A 
ATOM      5  C   UNL     1      71.192 222.406 338.835  0.00  0.00    +0.000 A 
ATOM      6  C   UNL     1      70.477 221.369 339.436  0.00  0.00    +0.000 A 
ATOM      7  C   UNL     1      72.435 222.894 339.487  0.00  0.00    +0.000 C 
ATOM      8  C   UNL     1      70.928 220.757 340.694  0.00  0.00    +0.000 C 
ATOM      9  C   UNL     1      72.573 220.654 342.523  0.00  0.00    +0.000 A 
ATOM     10  C   UNL     1      74.059 222.716 341.393  0.00  0.00    +0.000 A 
ATOM     11  C   UNL     1      73.734 221.099 343.147  0.00  0.00    +0.000 A 
ATOM     12  C   UNL     1      70.702 222.941 337.637  0.00  0.00    +0.000 A 
ATOM     13  C   UNL     1      69.301 220.876 338.860  0.00  0.00    +0.000 A 
ATOM     14  C   UNL     1      74.481 222.129 342.587  0.00  0.00    +0.000 A 
ATOM     15  C   UNL     1      68.820 221.413 337.669  0.00  0.00    +0.000 A 
ATOM     16  C   UNL     1      69.529 222.448 337.063  0.00  0.00    +0.000 A 
ATOM     17  C   UNL     1      74.178 220.461 344.429  0.00  0.00    +0.000 C 
ENDROOT
BRANCH  10  18
ATOM     18  O   UNL     1      74.847 223.723 340.904  0.00  0.00    +0.000 OA
ATOM     19  H   UNL     1      74.607 224.565 341.359  0.00  0.00    +0.000 HD
ENDBRANCH  10  18
BRANCH  12  20
ATOM     20  O   UNL     1      71.348 223.956 336.992  0.00  0.00    +0.000 OA
ATOM     21  H   UNL     1      71.807 223.612 336.205  0.00  0.00    +0.000 HD
ENDBRANCH  12  20
BRANCH  15  22
ATOM     22  O   UNL     1      67.660 220.860 337.186  0.00  0.00    +0.000 OA
ATOM     23  C   UNL     1      66.927 220.111 338.117  0.00  0.00    +0.000 C 
ENDBRANCH  15  22
TORSDOF 3
ENDMDL
MODEL 8
REMARK VINA RESULT:      -5.2     31.118     32.493
REMARK  Name = 10639_Physcion.pdbqt.pdb
REMARK  3 active torsions:
REMARK  status: ('A' for Active; 'I' for Inactive)
REMARK    1  A    between atoms: C_10  and  O_18
REMARK    2  A    between atoms: C_12  and  O_20
REMARK    3  A    between atoms: C_15  and  O_22
REMARK                            x       y       z     vdW  Elec       q    Type
REMARK                         _______ _______ _______ _____ _____    ______ ____
ROOT
ATOM      1  O   UNL     1      67.009 217.927 339.754  0.00  0.00    +0.000 OA
ATOM      2  O   UNL     1      68.941 221.704 336.532  0.00  0.00    +0.000 OA
ATOM      3  C   UNL     1      69.091 220.578 338.575  0.00  0.00    +0.000 A 
ATOM      4  C   UNL     1      68.580 219.589 339.410  0.00  0.00    +0.000 A 
ATOM      5  C   UNL     1      66.798 219.036 337.651  0.00  0.00    +0.000 A 
ATOM      6  C   UNL     1      67.332 220.033 336.834  0.00  0.00    +0.000 A 
ATOM      7  C   UNL     1      67.417 218.784 338.978  0.00  0.00    +0.000 C 
ATOM      8  C   UNL     1      68.488 220.834 337.262  0.00  0.00    +0.000 C 
ATOM      9  C   UNL     1      70.189 221.348 338.967  0.00  0.00    +0.000 A 
ATOM     10  C   UNL     1      69.187 219.378 340.656  0.00  0.00    +0.000 A 
ATOM     11  C   UNL     1      70.781 221.126 340.206  0.00  0.00    +0.000 A 
ATOM     12  C   UNL     1      65.696 218.312 337.178  0.00  0.00    +0.000 A 
ATOM     13  C   UNL     1      66.783 220.306 335.577  0.00  0.00    +0.000 A 
ATOM     14  C   UNL     1      70.284 220.143 341.055  0.00  0.00    +0.000 A 
ATOM     15  C   UNL     1      65.688 219.583 335.113  0.00  0.00    +0.000 A 
ATOM     16  C   UNL     1      65.149 218.585 335.922  0.00  0.00    +0.000 A 
ATOM     17  C   UNL     1      71.959 221.953 340.624  0.00  0.00    +0.000 C 
ENDROOT
BRANCH  10  18
ATOM     18  O   UNL     1      68.757 218.431 341.546  0.00  0.00    +0.000 OA
ATOM     19  H   UNL     1      69.311 217.621 341.443  0.00  0.00    +0.000 HD
ENDBRANCH  10  18
BRANCH  12  20
ATOM     20  O   UNL     1      65.120 217.322 337.920  0.00  0.00    +0.000 OA
ATOM     21  H   UNL     1      65.769 216.616 338.094  0.00  0.00    +0.000 HD
ENDBRANCH  12  20
BRANCH  15  22
ATOM     22  O   UNL     1      65.225 219.927 333.868  0.00  0.00    +0.000 OA
ATOM     23  C   UNL     1      66.219 220.230 332.927  0.00  0.00    +0.000 C 
ENDBRANCH  15  22
TORSDOF 3
ENDMDL
MODEL 9
REMARK VINA RESULT:      -5.2     20.360     21.920
REMARK  Name = 10639_Physcion.pdbqt.pdb
REMARK  3 active torsions:
REMARK  status: ('A' for Active; 'I' for Inactive)
REMARK    1  A    between atoms: C_10  and  O_18
REMARK    2  A    between atoms: C_12  and  O_20
REMARK    3  A    between atoms: C_15  and  O_22
REMARK                            x       y       z     vdW  Elec       q    Type
REMARK                         _______ _______ _______ _____ _____    ______ ____
ROOT
ATOM      1  O   UNL     1      63.999 225.780 327.395  0.00  0.00    +0.000 OA
ATOM      2  O   UNL     1      60.140 224.636 323.904  0.00  0.00    +0.000 OA
ATOM      3  C   UNL     1      61.934 226.015 324.490  0.00  0.00    +0.000 A 
ATOM      4  C   UNL     1      62.940 226.307 325.408  0.00  0.00    +0.000 A 
ATOM      5  C   UNL     1      62.177 224.334 326.858  0.00  0.00    +0.000 A 
ATOM      6  C   UNL     1      61.179 224.065 325.922  0.00  0.00    +0.000 A 
ATOM      7  C   UNL     1      63.096 225.478 326.622  0.00  0.00    +0.000 C 
ATOM      8  C   UNL     1      61.022 224.889 324.713  0.00  0.00    +0.000 C 
ATOM      9  C   UNL     1      61.773 226.788 323.338  0.00  0.00    +0.000 A 
ATOM     10  C   UNL     1      63.790 227.393 325.154  0.00  0.00    +0.000 A 
ATOM     11  C   UNL     1      62.624 227.861 323.101  0.00  0.00    +0.000 A 
ATOM     12  C   UNL     1      62.267 223.508 327.986  0.00  0.00    +0.000 A 
ATOM     13  C   UNL     1      60.290 223.000 326.101  0.00  0.00    +0.000 A 
ATOM     14  C   UNL     1      63.634 228.169 324.005  0.00  0.00    +0.000 A 
ATOM     15  C   UNL     1      60.385 222.183 327.223  0.00  0.00    +0.000 A 
ATOM     16  C   UNL     1      61.380 222.445 328.163  0.00  0.00    +0.000 A 
ATOM     17  C   UNL     1      62.448 228.689 321.863  0.00  0.00    +0.000 C 
ENDROOT
BRANCH  10  18
ATOM     18  O   UNL     1      64.806 227.757 325.996  0.00  0.00    +0.000 OA
ATOM     19  H   UNL     1      64.468 227.756 326.923  0.00  0.00    +0.000 HD
ENDBRANCH  10  18
BRANCH  12  20
ATOM     20  O   UNL     1      63.218 223.710 328.944  0.00  0.00    +0.000 OA
ATOM     21  H   UNL     1      63.592 222.856 329.227  0.00  0.00    +0.000 HD
ENDBRANCH  12  20
BRANCH  15  22
ATOM     22  O   UNL     1      59.468 221.166 327.306  0.00  0.00    +0.000 OA
ATOM     23  C   UNL     1      58.184 221.486 326.843  0.00  0.00    +0.000 C 
ENDBRANCH  15  22
TORSDOF 3
ENDMDL
