MODEL 1
REMARK VINA RESULT:      -5.9      0.000      0.000
REMARK  Name = 10940649_MilnamideD.pdbqt.pdb
REMARK  7 active torsions:
REMARK  status: ('A' for Active; 'I' for Inactive)
REMARK    1  A    between atoms: C_3  and  C_8
REMARK    2  A    between atoms: C_22  and  C_25
REMARK    3  A    between atoms: C_22  and  C_38
REMARK    4  A    between atoms: N_24  and  C_27
REMARK    5  A    between atoms: C_27  and  C_28
REMARK    6  A    between atoms: C_32  and  C_35
REMARK    7  A    between atoms: C_35  and  O_36
REMARK                            x       y       z     vdW  Elec       q    Type
REMARK                         _______ _______ _______ _____ _____    ______ ____
ROOT
ATOM      1  O   UNL     1      49.232 243.129 326.884  0.00  0.00    +0.000 OA
ATOM      2  N   UNL     1      47.082 242.905 327.578  0.00  0.00    +0.000 N 
ATOM      3  C   UNL     1      48.126 242.630 326.716  0.00  0.00    +0.000 C 
ATOM      4  H   UNL     1      46.148 242.549 327.344  0.00  0.00    +0.000 HD
ATOM      5  C   UNL     1      47.176 243.711 328.739  0.00  0.00    +0.000 C 
ENDROOT
BRANCH   3   9
ATOM      6  N   UNL     1      46.953 242.137 324.478  0.00  0.00    +0.000 NA
ATOM      7  N   UNL     1      47.125 238.706 322.585  0.00  0.00    +0.000 N 
ATOM      8  C   UNL     1      48.240 240.215 325.811  0.00  0.00    +0.000 C 
ATOM      9  C   UNL     1      47.826 241.699 325.580  0.00  0.00    +0.000 C 
ATOM     10  C   UNL     1      47.954 239.282 324.593  0.00  0.00    +0.000 A 
ATOM     11  C   UNL     1      47.248 239.706 323.486  0.00  0.00    +0.000 A 
ATOM     12  C   UNL     1      47.390 239.603 326.964  0.00  0.00    +0.000 C 
ATOM     13  C   UNL     1      49.780 240.130 326.019  0.00  0.00    +0.000 C 
ATOM     14  C   UNL     1      48.267 237.900 324.330  0.00  0.00    +0.000 A 
ATOM     15  C   UNL     1      46.834 241.040 323.554  0.00  0.00    +0.000 C 
ATOM     16  C   UNL     1      47.738 237.573 323.065  0.00  0.00    +0.000 A 
ATOM     17  C   UNL     1      47.543 243.253 323.754  0.00  0.00    +0.000 C 
ATOM     18  C   UNL     1      48.946 236.900 325.053  0.00  0.00    +0.000 A 
ATOM     19  C   UNL     1      46.444 238.822 321.341  0.00  0.00    +0.000 C 
ATOM     20  C   UNL     1      47.872 236.291 322.509  0.00  0.00    +0.000 A 
ATOM     21  C   UNL     1      49.082 235.623 324.506  0.00  0.00    +0.000 A 
ATOM     22  C   UNL     1      48.555 235.328 323.255  0.00  0.00    +0.000 A 
ENDBRANCH   3   9
BRANCH   5  25
ATOM     23  O   UNL     1      49.191 243.397 329.862  0.00  0.00    +0.000 OA
ATOM     24  N   UNL     1      48.865 245.482 328.799  0.00  0.00    +0.000 N 
ATOM     25  C   UNL     1      48.499 244.180 329.216  0.00  0.00    +0.000 C 
ATOM     26  C   UNL     1      47.982 246.394 328.062  0.00  0.00    +0.000 C 
BRANCH  24  27
ATOM     27  C   UNL     1      50.155 245.978 329.059  0.00  0.00    +0.000 C 
ATOM     28  C   UNL     1      51.287 245.552 328.283  0.00  0.00    +0.000 C 
ATOM     29  C   UNL     1      52.317 245.171 327.586  0.00  0.00    +0.000 C 
ATOM     30  C   UNL     1      52.937 246.237 326.707  0.00  0.00    +0.000 C 
BRANCH  27  31
ATOM     31  C   UNL     1      50.399 246.960 330.106  0.00  0.00    +0.000 C 
ATOM     32  C   UNL     1      50.504 248.434 329.768  0.00  0.00    +0.000 C 
ATOM     33  C   UNL     1      49.952 246.664 331.526  0.00  0.00    +0.000 C 
ENDBRANCH  27  31
BRANCH  29  35
ATOM     34  O   UNL     1      53.898 243.370 327.314  0.00  0.00    +0.000 OA
ATOM     35  C   UNL     1      52.806 243.769 327.690  0.00  0.00    +0.000 C 
BRANCH  35  36
ATOM     36  O   UNL     1      51.929 242.910 328.251  0.00  0.00    +0.000 OA
ATOM     37  H   UNL     1      52.437 242.087 328.406  0.00  0.00    +0.000 HD
ENDBRANCH  35  36
ENDBRANCH  29  35
ENDBRANCH  24  27
ENDBRANCH   5  25
BRANCH   5  38
ATOM     38  C   UNL     1      46.029 243.933 329.712  0.00  0.00    +0.000 C 
ATOM     39  C   UNL     1      45.405 242.529 329.997  0.00  0.00    +0.000 C 
ATOM     40  C   UNL     1      46.630 244.477 331.040  0.00  0.00    +0.000 C 
ATOM     41  C   UNL     1      44.928 244.875 329.168  0.00  0.00    +0.000 C 
ENDBRANCH   5  38
TORSDOF 7
ENDMDL
MODEL 2
REMARK VINA RESULT:      -5.6     19.317     23.351
REMARK  Name = 10940649_MilnamideD.pdbqt.pdb
REMARK  7 active torsions:
REMARK  status: ('A' for Active; 'I' for Inactive)
REMARK    1  A    between atoms: C_3  and  C_8
REMARK    2  A    between atoms: C_22  and  C_25
REMARK    3  A    between atoms: C_22  and  C_38
REMARK    4  A    between atoms: N_24  and  C_27
REMARK    5  A    between atoms: C_27  and  C_28
REMARK    6  A    between atoms: C_32  and  C_35
REMARK    7  A    between atoms: C_35  and  O_36
REMARK                            x       y       z     vdW  Elec       q    Type
REMARK                         _______ _______ _______ _____ _____    ______ ____
ROOT
ATOM      1  O   UNL     1      69.496 238.944 335.182  0.00  0.00    +0.000 OA
ATOM      2  N   UNL     1      69.901 240.829 336.382  0.00  0.00    +0.000 N 
ATOM      3  C   UNL     1      69.225 240.117 335.409  0.00  0.00    +0.000 C 
ATOM      4  H   UNL     1      69.715 241.834 336.470  0.00  0.00    +0.000 HD
ATOM      5  C   UNL     1      70.899 240.296 337.233  0.00  0.00    +0.000 C 
ENDROOT
BRANCH   3   9
ATOM      6  N   UNL     1      66.768 240.842 335.148  0.00  0.00    +0.000 NA
ATOM      7  N   UNL     1      65.392 243.008 332.182  0.00  0.00    +0.000 N 
ATOM      8  C   UNL     1      68.567 241.359 333.244  0.00  0.00    +0.000 C 
ATOM      9  C   UNL     1      68.158 240.859 334.661  0.00  0.00    +0.000 C 
ATOM     10  C   UNL     1      67.449 242.165 332.511  0.00  0.00    +0.000 A 
ATOM     11  C   UNL     1      66.167 242.275 333.011  0.00  0.00    +0.000 A 
ATOM     12  C   UNL     1      68.828 240.141 332.309  0.00  0.00    +0.000 C 
ATOM     13  C   UNL     1      69.756 242.356 333.365  0.00  0.00    +0.000 C 
ATOM     14  C   UNL     1      67.427 242.889 331.266  0.00  0.00    +0.000 A 
ATOM     15  C   UNL     1      65.975 241.616 334.230  0.00  0.00    +0.000 C 
ATOM     16  C   UNL     1      66.128 243.407 331.091  0.00  0.00    +0.000 A 
ATOM     17  C   UNL     1      66.662 241.474 336.454  0.00  0.00    +0.000 C 
ATOM     18  C   UNL     1      68.391 243.146 330.271  0.00  0.00    +0.000 A 
ATOM     19  C   UNL     1      64.017 243.297 332.411  0.00  0.00    +0.000 C 
ATOM     20  C   UNL     1      65.772 244.169 329.967  0.00  0.00    +0.000 A 
ATOM     21  C   UNL     1      68.043 243.902 329.151  0.00  0.00    +0.000 A 
ATOM     22  C   UNL     1      66.756 244.405 329.006  0.00  0.00    +0.000 A 
ENDBRANCH   3   9
BRANCH   5  25
ATOM     23  O   UNL     1      70.428 238.129 337.939  0.00  0.00    +0.000 OA
ATOM     24  N   UNL     1      72.201 238.398 336.400  0.00  0.00    +0.000 N 
ATOM     25  C   UNL     1      71.160 238.837 337.254  0.00  0.00    +0.000 C 
ATOM     26  C   UNL     1      73.076 239.292 335.633  0.00  0.00    +0.000 C 
BRANCH  24  27
ATOM     27  C   UNL     1      72.442 237.024 336.218  0.00  0.00    +0.000 C 
ATOM     28  C   UNL     1      71.689 236.256 335.265  0.00  0.00    +0.000 C 
ATOM     29  C   UNL     1      71.012 235.554 334.404  0.00  0.00    +0.000 C 
ATOM     30  C   UNL     1      71.799 235.049 333.213  0.00  0.00    +0.000 C 
BRANCH  27  31
ATOM     31  C   UNL     1      73.476 236.325 336.966  0.00  0.00    +0.000 C 
ATOM     32  C   UNL     1      73.443 236.294 338.481  0.00  0.00    +0.000 C 
ATOM     33  C   UNL     1      74.202 235.156 336.323  0.00  0.00    +0.000 C 
ENDBRANCH  27  31
BRANCH  29  35
ATOM     34  O   UNL     1      69.098 234.317 335.194  0.00  0.00    +0.000 OA
ATOM     35  C   UNL     1      69.564 235.298 334.633  0.00  0.00    +0.000 C 
BRANCH  35  36
ATOM     36  O   UNL     1      68.742 236.258 334.158  0.00  0.00    +0.000 OA
ATOM     37  H   UNL     1      69.324 236.878 333.673  0.00  0.00    +0.000 HD
ENDBRANCH  35  36
ENDBRANCH  29  35
ENDBRANCH  24  27
ENDBRANCH   5  25
BRANCH   5  38
ATOM     38  C   UNL     1      71.571 241.083 338.348  0.00  0.00    +0.000 C 
ATOM     39  C   UNL     1      72.250 242.320 337.678  0.00  0.00    +0.000 C 
ATOM     40  C   UNL     1      70.458 241.597 339.305  0.00  0.00    +0.000 C 
ATOM     41  C   UNL     1      72.642 240.273 339.119  0.00  0.00    +0.000 C 
ENDBRANCH   5  38
TORSDOF 7
ENDMDL
MODEL 3
REMARK VINA RESULT:      -5.5     20.387     22.960
REMARK  Name = 10940649_MilnamideD.pdbqt.pdb
REMARK  7 active torsions:
REMARK  status: ('A' for Active; 'I' for Inactive)
REMARK    1  A    between atoms: C_3  and  C_8
REMARK    2  A    between atoms: C_22  and  C_25
REMARK    3  A    between atoms: C_22  and  C_38
REMARK    4  A    between atoms: N_24  and  C_27
REMARK    5  A    between atoms: C_27  and  C_28
REMARK    6  A    between atoms: C_32  and  C_35
REMARK    7  A    between atoms: C_35  and  O_36
REMARK                            x       y       z     vdW  Elec       q    Type
REMARK                         _______ _______ _______ _____ _____    ______ ____
ROOT
ATOM      1  O   UNL     1      67.316 239.667 335.831  0.00  0.00    +0.000 OA
ATOM      2  N   UNL     1      67.896 238.439 337.650  0.00  0.00    +0.000 N 
ATOM      3  C   UNL     1      68.007 238.779 336.315  0.00  0.00    +0.000 C 
ATOM      4  H   UNL     1      68.417 237.623 337.992  0.00  0.00    +0.000 HD
ATOM      5  C   UNL     1      67.054 239.085 338.588  0.00  0.00    +0.000 C 
ENDROOT
BRANCH   3   9
ATOM      6  N   UNL     1      68.897 236.541 335.408  0.00  0.00    +0.000 NA
ATOM      7  N   UNL     1      72.124 236.158 333.211  0.00  0.00    +0.000 N 
ATOM      8  C   UNL     1      70.271 238.806 335.078  0.00  0.00    +0.000 C 
ATOM      9  C   UNL     1      69.007 238.005 335.511  0.00  0.00    +0.000 C 
ATOM     10  C   UNL     1      71.271 237.984 334.205  0.00  0.00    +0.000 A 
ATOM     11  C   UNL     1      71.121 236.630 333.983  0.00  0.00    +0.000 A 
ATOM     12  C   UNL     1      71.103 239.199 336.335  0.00  0.00    +0.000 C 
ATOM     13  C   UNL     1      69.849 240.000 334.175  0.00  0.00    +0.000 C 
ATOM     14  C   UNL     1      72.482 238.344 333.511  0.00  0.00    +0.000 A 
ATOM     15  C   UNL     1      69.992 236.077 334.596  0.00  0.00    +0.000 C 
ATOM     16  C   UNL     1      72.988 237.181 332.897  0.00  0.00    +0.000 A 
ATOM     17  C   UNL     1      67.665 236.153 334.738  0.00  0.00    +0.000 C 
ATOM     18  C   UNL     1      73.194 239.550 333.354  0.00  0.00    +0.000 A 
ATOM     19  C   UNL     1      72.260 234.800 332.810  0.00  0.00    +0.000 C 
ATOM     20  C   UNL     1      74.168 237.191 332.138  0.00  0.00    +0.000 A 
ATOM     21  C   UNL     1      74.368 239.566 332.600  0.00  0.00    +0.000 A 
ATOM     22  C   UNL     1      74.843 238.405 332.002  0.00  0.00    +0.000 A 
ENDBRANCH   3   9
BRANCH   5  25
ATOM     23  O   UNL     1      65.150 240.264 337.953  0.00  0.00    +0.000 OA
ATOM     24  N   UNL     1      67.128 241.513 338.285  0.00  0.00    +0.000 N 
ATOM     25  C   UNL     1      66.347 240.334 338.217  0.00  0.00    +0.000 C 
ATOM     26  C   UNL     1      68.568 241.536 338.564  0.00  0.00    +0.000 C 
BRANCH  24  27
ATOM     27  C   UNL     1      66.532 242.774 338.104  0.00  0.00    +0.000 C 
ATOM     28  C   UNL     1      65.587 243.294 339.054  0.00  0.00    +0.000 C 
ATOM     29  C   UNL     1      64.730 243.771 339.908  0.00  0.00    +0.000 C 
ATOM     30  C   UNL     1      65.199 244.976 340.695  0.00  0.00    +0.000 C 
BRANCH  27  31
ATOM     31  C   UNL     1      66.862 243.618 336.966  0.00  0.00    +0.000 C 
ATOM     32  C   UNL     1      66.862 243.050 335.560  0.00  0.00    +0.000 C 
ATOM     33  C   UNL     1      66.609 245.113 337.046  0.00  0.00    +0.000 C 
ENDBRANCH  27  31
BRANCH  29  35
ATOM     34  O   UNL     1      62.465 243.574 340.714  0.00  0.00    +0.000 OA
ATOM     35  C   UNL     1      63.394 243.131 340.055  0.00  0.00    +0.000 C 
BRANCH  35  36
ATOM     36  O   UNL     1      63.254 241.966 339.387  0.00  0.00    +0.000 OA
ATOM     37  H   UNL     1      63.889 241.350 339.806  0.00  0.00    +0.000 HD
ENDBRANCH  35  36
ENDBRANCH  29  35
ENDBRANCH  24  27
ENDBRANCH   5  25
BRANCH   5  38
ATOM     38  C   UNL     1      67.011 238.740 340.068  0.00  0.00    +0.000 C 
ATOM     39  C   UNL     1      66.223 237.396 340.193  0.00  0.00    +0.000 C 
ATOM     40  C   UNL     1      68.472 238.494 340.542  0.00  0.00    +0.000 C 
ATOM     41  C   UNL     1      66.316 239.817 340.935  0.00  0.00    +0.000 C 
ENDBRANCH   5  38
TORSDOF 7
ENDMDL
MODEL 4
REMARK VINA RESULT:      -5.5     17.786     22.170
REMARK  Name = 10940649_MilnamideD.pdbqt.pdb
REMARK  7 active torsions:
REMARK  status: ('A' for Active; 'I' for Inactive)
REMARK    1  A    between atoms: C_3  and  C_8
REMARK    2  A    between atoms: C_22  and  C_25
REMARK    3  A    between atoms: C_22  and  C_38
REMARK    4  A    between atoms: N_24  and  C_27
REMARK    5  A    between atoms: C_27  and  C_28
REMARK    6  A    between atoms: C_32  and  C_35
REMARK    7  A    between atoms: C_35  and  O_36
REMARK                            x       y       z     vdW  Elec       q    Type
REMARK                         _______ _______ _______ _____ _____    ______ ____
ROOT
ATOM      1  O   UNL     1      66.994 240.646 334.216  0.00  0.00    +0.000 OA
ATOM      2  N   UNL     1      69.116 239.872 334.446  0.00  0.00    +0.000 N 
ATOM      3  C   UNL     1      67.819 240.043 334.892  0.00  0.00    +0.000 C 
ATOM      4  H   UNL     1      69.801 239.452 335.085  0.00  0.00    +0.000 HD
ATOM      5  C   UNL     1      69.608 240.300 333.189  0.00  0.00    +0.000 C 
ENDROOT
BRANCH   3   9
ATOM      6  N   UNL     1      66.971 238.082 336.327  0.00  0.00    +0.000 NA
ATOM      7  N   UNL     1      66.576 238.190 340.228  0.00  0.00    +0.000 N 
ATOM      8  C   UNL     1      67.460 240.473 337.411  0.00  0.00    +0.000 C 
ATOM      9  C   UNL     1      67.492 239.456 336.231  0.00  0.00    +0.000 C 
ATOM     10  C   UNL     1      67.159 239.822 338.798  0.00  0.00    +0.000 A 
ATOM     11  C   UNL     1      66.794 238.498 338.931  0.00  0.00    +0.000 A 
ATOM     12  C   UNL     1      66.291 241.482 337.207  0.00  0.00    +0.000 C 
ATOM     13  C   UNL     1      68.863 241.124 337.577  0.00  0.00    +0.000 C 
ATOM     14  C   UNL     1      67.144 240.350 340.139  0.00  0.00    +0.000 A 
ATOM     15  C   UNL     1      66.735 237.802 337.719  0.00  0.00    +0.000 C 
ATOM     16  C   UNL     1      66.779 239.303 341.009  0.00  0.00    +0.000 A 
ATOM     17  C   UNL     1      67.948 237.117 335.849  0.00  0.00    +0.000 C 
ATOM     18  C   UNL     1      67.402 241.621 340.689  0.00  0.00    +0.000 A 
ATOM     19  C   UNL     1      66.178 236.906 340.695  0.00  0.00    +0.000 C 
ATOM     20  C   UNL     1      66.671 239.490 342.396  0.00  0.00    +0.000 A 
ATOM     21  C   UNL     1      67.296 241.812 342.067  0.00  0.00    +0.000 A 
ATOM     22  C   UNL     1      66.939 240.762 342.903  0.00  0.00    +0.000 A 
ENDBRANCH   3   9
BRANCH   5  25
ATOM     23  O   UNL     1      68.066 240.004 331.470  0.00  0.00    +0.000 OA
ATOM     24  N   UNL     1      68.521 242.225 332.137  0.00  0.00    +0.000 N 
ATOM     25  C   UNL     1      68.674 240.818 332.160  0.00  0.00    +0.000 C 
ATOM     26  C   UNL     1      69.306 243.156 332.956  0.00  0.00    +0.000 C 
BRANCH  24  27
ATOM     27  C   UNL     1      67.553 242.823 331.311  0.00  0.00    +0.000 C 
ATOM     28  C   UNL     1      66.215 243.054 331.780  0.00  0.00    +0.000 C 
ATOM     29  C   UNL     1      65.000 243.266 332.197  0.00  0.00    +0.000 C 
ATOM     30  C   UNL     1      64.617 244.720 332.370  0.00  0.00    +0.000 C 
BRANCH  27  31
ATOM     31  C   UNL     1      67.867 243.258 329.958  0.00  0.00    +0.000 C 
ATOM     32  C   UNL     1      68.758 242.415 329.067  0.00  0.00    +0.000 C 
ATOM     33  C   UNL     1      66.891 244.152 329.215  0.00  0.00    +0.000 C 
ENDBRANCH  27  31
BRANCH  29  35
ATOM     34  O   UNL     1      64.428 241.066 333.004  0.00  0.00    +0.000 OA
ATOM     35  C   UNL     1      64.098 242.114 332.467  0.00  0.00    +0.000 C 
BRANCH  35  36
ATOM     36  O   UNL     1      62.823 242.293 332.061  0.00  0.00    +0.000 OA
ATOM     37  H   UNL     1      62.889 242.646 331.150  0.00  0.00    +0.000 HD
ENDBRANCH  35  36
ENDBRANCH  29  35
ENDBRANCH  24  27
ENDBRANCH   5  25
BRANCH   5  38
ATOM     38  C   UNL     1      71.019 240.028 332.693  0.00  0.00    +0.000 C 
ATOM     39  C   UNL     1      71.984 240.830 333.624  0.00  0.00    +0.000 C 
ATOM     40  C   UNL     1      71.307 238.511 332.885  0.00  0.00    +0.000 C 
ATOM     41  C   UNL     1      71.255 240.461 331.226  0.00  0.00    +0.000 C 
ENDBRANCH   5  38
TORSDOF 7
ENDMDL
MODEL 5
REMARK VINA RESULT:      -5.3     22.370     26.318
REMARK  Name = 10940649_MilnamideD.pdbqt.pdb
REMARK  7 active torsions:
REMARK  status: ('A' for Active; 'I' for Inactive)
REMARK    1  A    between atoms: C_3  and  C_8
REMARK    2  A    between atoms: C_22  and  C_25
REMARK    3  A    between atoms: C_22  and  C_38
REMARK    4  A    between atoms: N_24  and  C_27
REMARK    5  A    between atoms: C_27  and  C_28
REMARK    6  A    between atoms: C_32  and  C_35
REMARK    7  A    between atoms: C_35  and  O_36
REMARK                            x       y       z     vdW  Elec       q    Type
REMARK                         _______ _______ _______ _____ _____    ______ ____
ROOT
ATOM      1  O   UNL     1      70.370 237.956 336.527  0.00  0.00    +0.000 OA
ATOM      2  N   UNL     1      71.905 238.254 334.880  0.00  0.00    +0.000 N 
ATOM      3  C   UNL     1      71.501 237.750 336.102  0.00  0.00    +0.000 C 
ATOM      4  H   UNL     1      72.888 238.147 334.608  0.00  0.00    +0.000 HD
ATOM      5  C   UNL     1      71.081 238.983 333.988  0.00  0.00    +0.000 C 
ENDROOT
BRANCH   3   9
ATOM      6  N   UNL     1      72.618 235.497 336.651  0.00  0.00    +0.000 NA
ATOM      7  N   UNL     1      75.467 235.016 339.304  0.00  0.00    +0.000 N 
ATOM      8  C   UNL     1      73.198 237.699 338.045  0.00  0.00    +0.000 C 
ATOM      9  C   UNL     1      72.516 236.951 336.862  0.00  0.00    +0.000 C 
ATOM     10  C   UNL     1      74.282 236.853 338.787  0.00  0.00    +0.000 A 
ATOM     11  C   UNL     1      74.488 235.516 338.518  0.00  0.00    +0.000 A 
ATOM     12  C   UNL     1      72.145 238.014 339.149  0.00  0.00    +0.000 C 
ATOM     13  C   UNL     1      73.969 238.938 337.505  0.00  0.00    +0.000 C 
ATOM     14  C   UNL     1      75.215 237.171 339.838  0.00  0.00    +0.000 A 
ATOM     15  C   UNL     1      73.656 235.003 337.518  0.00  0.00    +0.000 C 
ATOM     16  C   UNL     1      75.943 236.002 340.135  0.00  0.00    +0.000 A 
ATOM     17  C   UNL     1      73.012 235.192 335.285  0.00  0.00    +0.000 C 
ATOM     18  C   UNL     1      75.501 238.344 340.565  0.00  0.00    +0.000 A 
ATOM     19  C   UNL     1      75.911 233.664 339.275  0.00  0.00    +0.000 C 
ATOM     20  C   UNL     1      76.940 235.975 341.123  0.00  0.00    +0.000 A 
ATOM     21  C   UNL     1      76.491 238.322 341.548  0.00  0.00    +0.000 A 
ATOM     22  C   UNL     1      77.197 237.157 341.818  0.00  0.00    +0.000 A 
ENDBRANCH   3   9
BRANCH   5  25
ATOM     23  O   UNL     1      68.899 238.183 333.865  0.00  0.00    +0.000 OA
ATOM     24  N   UNL     1      69.229 240.239 334.982  0.00  0.00    +0.000 N 
ATOM     25  C   UNL     1      69.625 239.098 334.243  0.00  0.00    +0.000 C 
ATOM     26  C   UNL     1      70.133 241.326 335.373  0.00  0.00    +0.000 C 
BRANCH  24  27
ATOM     27  C   UNL     1      67.899 240.381 335.415  0.00  0.00    +0.000 C 
ATOM     28  C   UNL     1      67.412 239.672 336.566  0.00  0.00    +0.000 C 
ATOM     29  C   UNL     1      66.963 239.032 337.607  0.00  0.00    +0.000 C 
ATOM     30  C   UNL     1      66.618 239.896 338.802  0.00  0.00    +0.000 C 
BRANCH  27  31
ATOM     31  C   UNL     1      66.965 241.267 334.737  0.00  0.00    +0.000 C 
ATOM     32  C   UNL     1      66.689 242.655 335.280  0.00  0.00    +0.000 C 
ATOM     33  C   UNL     1      66.739 241.113 333.244  0.00  0.00    +0.000 C 
ENDBRANCH  27  31
BRANCH  29  35
ATOM     34  O   UNL     1      67.088 236.786 338.477  0.00  0.00    +0.000 OA
ATOM     35  C   UNL     1      66.819 237.552 337.562  0.00  0.00    +0.000 C 
BRANCH  35  36
ATOM     36  O   UNL     1      66.352 237.068 336.392  0.00  0.00    +0.000 OA
ATOM     37  H   UNL     1      65.380 237.021 336.501  0.00  0.00    +0.000 HD
ENDBRANCH  35  36
ENDBRANCH  29  35
ENDBRANCH  24  27
ENDBRANCH   5  25
BRANCH   5  38
ATOM     38  C   UNL     1      71.530 239.458 332.615  0.00  0.00    +0.000 C 
ATOM     39  C   UNL     1      70.308 240.185 331.970  0.00  0.00    +0.000 C 
ATOM     40  C   UNL     1      72.665 240.502 332.820  0.00  0.00    +0.000 C 
ATOM     41  C   UNL     1      71.987 238.311 331.682  0.00  0.00    +0.000 C 
ENDBRANCH   5  38
TORSDOF 7
ENDMDL
MODEL 6
REMARK VINA RESULT:      -5.2     17.682     21.518
REMARK  Name = 10940649_MilnamideD.pdbqt.pdb
REMARK  7 active torsions:
REMARK  status: ('A' for Active; 'I' for Inactive)
REMARK    1  A    between atoms: C_3  and  C_8
REMARK    2  A    between atoms: C_22  and  C_25
REMARK    3  A    between atoms: C_22  and  C_38
REMARK    4  A    between atoms: N_24  and  C_27
REMARK    5  A    between atoms: C_27  and  C_28
REMARK    6  A    between atoms: C_32  and  C_35
REMARK    7  A    between atoms: C_35  and  O_36
REMARK                            x       y       z     vdW  Elec       q    Type
REMARK                         _______ _______ _______ _____ _____    ______ ____
ROOT
ATOM      1  O   UNL     1      67.777 240.888 334.994  0.00  0.00    +0.000 OA
ATOM      2  N   UNL     1      66.277 241.963 336.316  0.00  0.00    +0.000 N 
ATOM      3  C   UNL     1      66.906 241.742 335.106  0.00  0.00    +0.000 C 
ATOM      4  H   UNL     1      65.628 242.754 336.393  0.00  0.00    +0.000 HD
ATOM      5  C   UNL     1      66.512 241.225 337.502  0.00  0.00    +0.000 C 
ENDROOT
BRANCH   3   9
ATOM      6  N   UNL     1      65.745 241.995 332.822  0.00  0.00    +0.000 NA
ATOM      7  N   UNL     1      65.464 245.363 330.831  0.00  0.00    +0.000 N 
ATOM      8  C   UNL     1      67.062 244.035 333.932  0.00  0.00    +0.000 C 
ATOM      9  C   UNL     1      66.462 242.598 333.958  0.00  0.00    +0.000 C 
ATOM     10  C   UNL     1      66.545 244.914 332.749  0.00  0.00    +0.000 A 
ATOM     11  C   UNL     1      65.761 244.403 331.735  0.00  0.00    +0.000 A 
ATOM     12  C   UNL     1      68.601 243.960 333.702  0.00  0.00    +0.000 C 
ATOM     13  C   UNL     1      66.630 244.805 335.213  0.00  0.00    +0.000 C 
ATOM     14  C   UNL     1      66.742 246.300 332.408  0.00  0.00    +0.000 A 
ATOM     15  C   UNL     1      65.465 243.044 331.877  0.00  0.00    +0.000 C 
ATOM     16  C   UNL     1      66.049 246.549 331.206  0.00  0.00    +0.000 A 
ATOM     17  C   UNL     1      64.469 241.437 333.243  0.00  0.00    +0.000 C 
ATOM     18  C   UNL     1      67.447 247.362 333.009  0.00  0.00    +0.000 A 
ATOM     19  C   UNL     1      64.678 245.153 329.664  0.00  0.00    +0.000 C 
ATOM     20  C   UNL     1      66.040 247.815 330.599  0.00  0.00    +0.000 A 
ATOM     21  C   UNL     1      67.442 248.621 332.409  0.00  0.00    +0.000 A 
ATOM     22  C   UNL     1      66.748 248.841 331.226  0.00  0.00    +0.000 A 
ENDBRANCH   3   9
BRANCH   5  25
ATOM     23  O   UNL     1      66.810 238.942 337.155  0.00  0.00    +0.000 OA
ATOM     24  N   UNL     1      68.726 240.205 337.721  0.00  0.00    +0.000 N 
ATOM     25  C   UNL     1      67.349 240.002 337.465  0.00  0.00    +0.000 C 
ATOM     26  C   UNL     1      69.312 241.486 338.131  0.00  0.00    +0.000 C 
BRANCH  24  27
ATOM     27  C   UNL     1      69.643 239.150 337.566  0.00  0.00    +0.000 C 
ATOM     28  C   UNL     1      69.800 238.479 336.305  0.00  0.00    +0.000 C 
ATOM     29  C   UNL     1      69.946 237.866 335.167  0.00  0.00    +0.000 C 
ATOM     30  C   UNL     1      71.278 238.083 334.479  0.00  0.00    +0.000 C 
BRANCH  27  31
ATOM     31  C   UNL     1      70.490 238.706 338.663  0.00  0.00    +0.000 C 
ATOM     32  C   UNL     1      69.877 238.253 339.974  0.00  0.00    +0.000 C 
ATOM     33  C   UNL     1      71.854 238.112 338.361  0.00  0.00    +0.000 C 
ENDBRANCH  27  31
BRANCH  29  35
ATOM     34  O   UNL     1      68.927 235.832 334.364  0.00  0.00    +0.000 OA
ATOM     35  C   UNL     1      68.843 237.022 334.631  0.00  0.00    +0.000 C 
BRANCH  35  36
ATOM     36  O   UNL     1      67.678 237.677 334.441  0.00  0.00    +0.000 OA
ATOM     37  H   UNL     1      67.734 238.046 333.536  0.00  0.00    +0.000 HD
ENDBRANCH  35  36
ENDBRANCH  29  35
ENDBRANCH  24  27
ENDBRANCH   5  25
BRANCH   5  38
ATOM     38  C   UNL     1      65.749 241.440 338.799  0.00  0.00    +0.000 C 
ATOM     39  C   UNL     1      65.665 242.984 339.021  0.00  0.00    +0.000 C 
ATOM     40  C   UNL     1      64.304 240.898 338.598  0.00  0.00    +0.000 C 
ATOM     41  C   UNL     1      66.424 240.787 340.031  0.00  0.00    +0.000 C 
ENDBRANCH   5  38
TORSDOF 7
ENDMDL
MODEL 7
REMARK VINA RESULT:      -5.0     13.620     18.271
REMARK  Name = 10940649_MilnamideD.pdbqt.pdb
REMARK  7 active torsions:
REMARK  status: ('A' for Active; 'I' for Inactive)
REMARK    1  A    between atoms: C_3  and  C_8
REMARK    2  A    between atoms: C_22  and  C_25
REMARK    3  A    between atoms: C_22  and  C_38
REMARK    4  A    between atoms: N_24  and  C_27
REMARK    5  A    between atoms: C_27  and  C_28
REMARK    6  A    between atoms: C_32  and  C_35
REMARK    7  A    between atoms: C_35  and  O_36
REMARK                            x       y       z     vdW  Elec       q    Type
REMARK                         _______ _______ _______ _____ _____    ______ ____
ROOT
ATOM      1  O   UNL     1      58.006 231.668 318.253  0.00  0.00    +0.000 OA
ATOM      2  N   UNL     1      57.294 229.555 317.828  0.00  0.00    +0.000 N 
ATOM      3  C   UNL     1      58.259 230.471 318.200  0.00  0.00    +0.000 C 
ATOM      4  H   UNL     1      57.573 228.576 317.697  0.00  0.00    +0.000 HD
ATOM      5  C   UNL     1      55.945 229.868 317.533  0.00  0.00    +0.000 C 
ENDROOT
BRANCH   3   9
ATOM      6  N   UNL     1      60.496 229.438 317.452  0.00  0.00    +0.000 NA
ATOM      7  N   UNL     1      63.349 228.307 319.894  0.00  0.00    +0.000 N 
ATOM      8  C   UNL     1      59.860 229.624 320.039  0.00  0.00    +0.000 C 
ATOM      9  C   UNL     1      59.613 229.917 318.529  0.00  0.00    +0.000 C 
ATOM     10  C   UNL     1      61.294 229.091 320.352  0.00  0.00    +0.000 A 
ATOM     11  C   UNL     1      62.192 228.756 319.359  0.00  0.00    +0.000 A 
ATOM     12  C   UNL     1      58.919 228.479 320.516  0.00  0.00    +0.000 C 
ATOM     13  C   UNL     1      59.746 230.946 320.852  0.00  0.00    +0.000 C 
ATOM     14  C   UNL     1      61.977 228.802 321.587  0.00  0.00    +0.000 A 
ATOM     15  C   UNL     1      61.705 228.953 318.063  0.00  0.00    +0.000 C 
ATOM     16  C   UNL     1      63.261 228.317 321.266  0.00  0.00    +0.000 A 
ATOM     17  C   UNL     1      60.866 230.523 316.556  0.00  0.00    +0.000 C 
ATOM     18  C   UNL     1      61.619 228.904 322.946  0.00  0.00    +0.000 A 
ATOM     19  C   UNL     1      64.472 227.875 319.134  0.00  0.00    +0.000 C 
ATOM     20  C   UNL     1      64.186 227.942 322.252  0.00  0.00    +0.000 A 
ATOM     21  C   UNL     1      62.535 228.531 323.931  0.00  0.00    +0.000 A 
ATOM     22  C   UNL     1      63.795 228.061 323.587  0.00  0.00    +0.000 A 
ENDBRANCH   3   9
BRANCH   5  25
ATOM     23  O   UNL     1      55.020 231.488 318.927  0.00  0.00    +0.000 OA
ATOM     24  N   UNL     1      55.518 232.134 316.709  0.00  0.00    +0.000 N 
ATOM     25  C   UNL     1      55.422 231.231 317.795  0.00  0.00    +0.000 C 
ATOM     26  C   UNL     1      55.968 231.763 315.362  0.00  0.00    +0.000 C 
BRANCH  24  27
ATOM     27  C   UNL     1      55.197 233.492 316.880  0.00  0.00    +0.000 C 
ATOM     28  C   UNL     1      56.144 234.526 316.566  0.00  0.00    +0.000 C 
ATOM     29  C   UNL     1      56.996 235.468 316.284  0.00  0.00    +0.000 C 
ATOM     30  C   UNL     1      56.633 236.341 315.101  0.00  0.00    +0.000 C 
BRANCH  27  31
ATOM     31  C   UNL     1      53.888 233.913 317.358  0.00  0.00    +0.000 C 
ATOM     32  C   UNL     1      53.758 234.716 318.637  0.00  0.00    +0.000 C 
ATOM     33  C   UNL     1      52.760 234.116 316.364  0.00  0.00    +0.000 C 
ENDBRANCH  27  31
BRANCH  29  35
ATOM     34  O   UNL     1      58.724 236.694 317.438  0.00  0.00    +0.000 OA
ATOM     35  C   UNL     1      58.225 235.627 317.108  0.00  0.00    +0.000 C 
BRANCH  35  36
ATOM     36  O   UNL     1      58.797 234.466 317.493  0.00  0.00    +0.000 OA
ATOM     37  H   UNL     1      58.914 233.951 316.668  0.00  0.00    +0.000 HD
ENDBRANCH  35  36
ENDBRANCH  29  35
ENDBRANCH  24  27
ENDBRANCH   5  25
BRANCH   5  38
ATOM     38  C   UNL     1      54.885 228.829 317.202  0.00  0.00    +0.000 C 
ATOM     39  C   UNL     1      53.538 229.601 317.028  0.00  0.00    +0.000 C 
ATOM     40  C   UNL     1      55.259 228.187 315.836  0.00  0.00    +0.000 C 
ATOM     41  C   UNL     1      54.712 227.750 318.299  0.00  0.00    +0.000 C 
ENDBRANCH   5  38
TORSDOF 7
ENDMDL
MODEL 8
REMARK VINA RESULT:      -4.9     25.442     29.695
REMARK  Name = 10940649_MilnamideD.pdbqt.pdb
REMARK  7 active torsions:
REMARK  status: ('A' for Active; 'I' for Inactive)
REMARK    1  A    between atoms: C_3  and  C_8
REMARK    2  A    between atoms: C_22  and  C_25
REMARK    3  A    between atoms: C_22  and  C_38
REMARK    4  A    between atoms: N_24  and  C_27
REMARK    5  A    between atoms: C_27  and  C_28
REMARK    6  A    between atoms: C_32  and  C_35
REMARK    7  A    between atoms: C_35  and  O_36
REMARK                            x       y       z     vdW  Elec       q    Type
REMARK                         _______ _______ _______ _____ _____    ______ ____
ROOT
ATOM      1  O   UNL     1      56.734 214.999 336.600  0.00  0.00    +0.000 OA
ATOM      2  N   UNL     1      57.909 216.928 336.820  0.00  0.00    +0.000 N 
ATOM      3  C   UNL     1      57.257 215.971 336.068  0.00  0.00    +0.000 C 
ATOM      4  H   UNL     1      58.421 217.671 336.329  0.00  0.00    +0.000 HD
ATOM      5  C   UNL     1      57.997 216.933 338.233  0.00  0.00    +0.000 C 
ENDROOT
BRANCH   3   9
ATOM      6  N   UNL     1      58.350 215.727 333.750  0.00  0.00    +0.000 NA
ATOM      7  N   UNL     1      56.820 217.111 330.413  0.00  0.00    +0.000 N 
ATOM      8  C   UNL     1      56.126 217.168 334.080  0.00  0.00    +0.000 C 
ATOM      9  C   UNL     1      57.230 216.191 334.585  0.00  0.00    +0.000 C 
ATOM     10  C   UNL     1      56.098 217.341 332.529  0.00  0.00    +0.000 A 
ATOM     11  C   UNL     1      57.068 216.805 331.706  0.00  0.00    +0.000 A 
ATOM     12  C   UNL     1      56.408 218.604 334.614  0.00  0.00    +0.000 C 
ATOM     13  C   UNL     1      54.723 216.601 334.439  0.00  0.00    +0.000 C 
ATOM     14  C   UNL     1      55.201 218.039 331.643  0.00  0.00    +0.000 A 
ATOM     15  C   UNL     1      58.056 216.088 332.388  0.00  0.00    +0.000 C 
ATOM     16  C   UNL     1      55.678 217.872 330.328  0.00  0.00    +0.000 A 
ATOM     17  C   UNL     1      58.475 214.279 333.798  0.00  0.00    +0.000 C 
ATOM     18  C   UNL     1      54.031 218.800 331.841  0.00  0.00    +0.000 A 
ATOM     19  C   UNL     1      57.640 216.712 329.321  0.00  0.00    +0.000 C 
ATOM     20  C   UNL     1      55.025 218.434 329.219  0.00  0.00    +0.000 A 
ATOM     21  C   UNL     1      53.378 219.361 330.743  0.00  0.00    +0.000 A 
ATOM     22  C   UNL     1      53.868 219.178 329.456  0.00  0.00    +0.000 A 
ENDBRANCH   3   9
BRANCH   5  25
ATOM     23  O   UNL     1      56.034 216.241 339.276  0.00  0.00    +0.000 OA
ATOM     24  N   UNL     1      57.879 214.767 339.369  0.00  0.00    +0.000 N 
ATOM     25  C   UNL     1      57.206 215.967 339.032  0.00  0.00    +0.000 C 
ATOM     26  C   UNL     1      59.296 214.507 339.090  0.00  0.00    +0.000 C 
BRANCH  24  27
ATOM     27  C   UNL     1      57.187 213.713 339.992  0.00  0.00    +0.000 C 
ATOM     28  C   UNL     1      56.449 212.750 339.223  0.00  0.00    +0.000 C 
ATOM     29  C   UNL     1      55.777 211.875 338.533  0.00  0.00    +0.000 C 
ATOM     30  C   UNL     1      56.339 210.469 338.543  0.00  0.00    +0.000 C 
BRANCH  27  31
ATOM     31  C   UNL     1      57.208 213.534 341.436  0.00  0.00    +0.000 C 
ATOM     32  C   UNL     1      57.501 212.174 342.039  0.00  0.00    +0.000 C 
ATOM     33  C   UNL     1      57.553 214.711 342.330  0.00  0.00    +0.000 C 
ENDBRANCH  27  31
BRANCH  29  35
ATOM     34  O   UNL     1      53.399 212.085 338.183  0.00  0.00    +0.000 OA
ATOM     35  C   UNL     1      54.545 212.290 337.808  0.00  0.00    +0.000 C 
BRANCH  35  36
ATOM     36  O   UNL     1      54.770 212.939 336.646  0.00  0.00    +0.000 OA
ATOM     37  H   UNL     1      53.885 213.208 336.326  0.00  0.00    +0.000 HD
ENDBRANCH  35  36
ENDBRANCH  29  35
ENDBRANCH  24  27
ENDBRANCH   5  25
BRANCH   5  38
ATOM     38  C   UNL     1      58.655 218.042 339.039  0.00  0.00    +0.000 C 
ATOM     39  C   UNL     1      60.198 217.866 338.868  0.00  0.00    +0.000 C 
ATOM     40  C   UNL     1      58.246 219.401 338.400  0.00  0.00    +0.000 C 
ATOM     41  C   UNL     1      58.305 218.004 340.546  0.00  0.00    +0.000 C 
ENDBRANCH   5  38
TORSDOF 7
ENDMDL
MODEL 9
REMARK VINA RESULT:      -4.9     29.942     31.959
REMARK  Name = 10940649_MilnamideD.pdbqt.pdb
REMARK  7 active torsions:
REMARK  status: ('A' for Active; 'I' for Inactive)
REMARK    1  A    between atoms: C_3  and  C_8
REMARK    2  A    between atoms: C_22  and  C_25
REMARK    3  A    between atoms: C_22  and  C_38
REMARK    4  A    between atoms: N_24  and  C_27
REMARK    5  A    between atoms: C_27  and  C_28
REMARK    6  A    between atoms: C_32  and  C_35
REMARK    7  A    between atoms: C_35  and  O_36
REMARK                            x       y       z     vdW  Elec       q    Type
REMARK                         _______ _______ _______ _____ _____    ______ ____
ROOT
ATOM      1  O   UNL     1      62.218 230.036 353.535  0.00  0.00    +0.000 OA
ATOM      2  N   UNL     1      63.168 228.432 352.240  0.00  0.00    +0.000 N 
ATOM      3  C   UNL     1      62.162 228.909 353.058  0.00  0.00    +0.000 C 
ATOM      4  H   UNL     1      63.133 227.449 351.945  0.00  0.00    +0.000 HD
ATOM      5  C   UNL     1      64.301 229.173 351.825  0.00  0.00    +0.000 C 
ENDROOT
BRANCH   3   9
ATOM      6  N   UNL     1      61.257 226.527 353.424  0.00  0.00    +0.000 NA
ATOM      7  N   UNL     1      57.474 225.647 353.975  0.00  0.00    +0.000 N 
ATOM      8  C   UNL     1      59.602 228.608 353.180  0.00  0.00    +0.000 C 
ATOM      9  C   UNL     1      61.019 227.977 353.323  0.00  0.00    +0.000 C 
ATOM     10  C   UNL     1      58.435 227.623 353.505  0.00  0.00    +0.000 A 
ATOM     11  C   UNL     1      58.645 226.278 353.733  0.00  0.00    +0.000 A 
ATOM     12  C   UNL     1      59.351 229.013 351.697  0.00  0.00    +0.000 C 
ATOM     13  C   UNL     1      59.439 229.764 354.209  0.00  0.00    +0.000 C 
ATOM     14  C   UNL     1      57.009 227.801 353.608  0.00  0.00    +0.000 A 
ATOM     15  C   UNL     1      59.987 225.893 353.662  0.00  0.00    +0.000 C 
ATOM     16  C   UNL     1      56.438 226.548 353.907  0.00  0.00    +0.000 A 
ATOM     17  C   UNL     1      62.117 226.215 354.555  0.00  0.00    +0.000 C 
ATOM     18  C   UNL     1      56.153 228.913 353.470  0.00  0.00    +0.000 A 
ATOM     19  C   UNL     1      57.351 224.254 354.239  0.00  0.00    +0.000 C 
ATOM     20  C   UNL     1      55.055 226.378 354.073  0.00  0.00    +0.000 A 
ATOM     21  C   UNL     1      54.778 228.750 353.634  0.00  0.00    +0.000 A 
ATOM     22  C   UNL     1      54.241 227.504 353.932  0.00  0.00    +0.000 A 
ENDBRANCH   3   9
BRANCH   5  25
ATOM     23  O   UNL     1      65.103 230.992 353.037  0.00  0.00    +0.000 OA
ATOM     24  N   UNL     1      63.675 231.460 351.213  0.00  0.00    +0.000 N 
ATOM     25  C   UNL     1      64.386 230.626 352.110  0.00  0.00    +0.000 C 
ATOM     26  C   UNL     1      62.797 230.968 350.145  0.00  0.00    +0.000 C 
BRANCH  24  27
ATOM     27  C   UNL     1      63.802 232.858 351.288  0.00  0.00    +0.000 C 
ATOM     28  C   UNL     1      65.007 233.520 350.872  0.00  0.00    +0.000 C 
ATOM     29  C   UNL     1      66.096 234.127 350.498  0.00  0.00    +0.000 C 
ATOM     30  C   UNL     1      65.967 234.991 349.262  0.00  0.00    +0.000 C 
BRANCH  27  31
ATOM     31  C   UNL     1      62.713 233.699 351.765  0.00  0.00    +0.000 C 
ATOM     32  C   UNL     1      61.953 234.592 350.804  0.00  0.00    +0.000 C 
ATOM     33  C   UNL     1      61.932 233.281 352.997  0.00  0.00    +0.000 C 
ENDBRANCH  27  31
BRANCH  29  35
ATOM     34  O   UNL     1      68.357 234.631 351.170  0.00  0.00    +0.000 OA
ATOM     35  C   UNL     1      67.351 233.944 351.277  0.00  0.00    +0.000 C 
BRANCH  35  36
ATOM     36  O   UNL     1      67.322 232.921 352.156  0.00  0.00    +0.000 OA
ATOM     37  H   UNL     1      66.701 233.201 352.858  0.00  0.00    +0.000 HD
ENDBRANCH  35  36
ENDBRANCH  29  35
ENDBRANCH  24  27
ENDBRANCH   5  25
BRANCH   5  38
ATOM     38  C   UNL     1      65.352 228.648 350.860  0.00  0.00    +0.000 C 
ATOM     39  C   UNL     1      66.340 227.780 351.702  0.00  0.00    +0.000 C 
ATOM     40  C   UNL     1      64.637 227.718 349.838  0.00  0.00    +0.000 C 
ATOM     41  C   UNL     1      66.146 229.765 350.140  0.00  0.00    +0.000 C 
ENDBRANCH   5  38
TORSDOF 7
ENDMDL
