MODEL 1
REMARK VINA RESULT:      -6.4      0.000      0.000
REMARK  Name = 11167602_Regorafenib.pdbqt.pdb
REMARK  6 active torsions:
REMARK  status: ('A' for Active; 'I' for Inactive)
REMARK    1  A    between atoms: C_2  and  N_10
REMARK    2  A    between atoms: C_3  and  O_25
REMARK    3  A    between atoms: N_9  and  C_15
REMARK    4  A    between atoms: C_16  and  C_24
REMARK    5  A    between atoms: O_25  and  C_27
REMARK    6  A    between atoms: C_29  and  C_34
REMARK                            x       y       z     vdW  Elec       q    Type
REMARK                         _______ _______ _______ _____ _____    ______ ____
ROOT
ATOM      1  F   UNL     1      49.889 237.328 323.895  0.00  0.00    +0.000 F 
ATOM      2  C   UNL     1      48.514 238.280 325.569  0.00  0.00    +0.000 A 
ATOM      3  C   UNL     1      46.407 236.687 324.658  0.00  0.00    +0.000 A 
ATOM      4  C   UNL     1      48.690 237.406 324.493  0.00  0.00    +0.000 A 
ATOM      5  C   UNL     1      47.259 238.360 326.171  0.00  0.00    +0.000 A 
ATOM      6  C   UNL     1      47.645 236.618 324.021  0.00  0.00    +0.000 A 
ATOM      7  C   UNL     1      46.202 237.576 325.710  0.00  0.00    +0.000 A 
ENDROOT
BRANCH   2  10
ATOM      8  O   UNL     1      49.001 241.120 325.205  0.00  0.00    +0.000 OA
ATOM      9  N   UNL     1      50.973 240.841 326.380  0.00  0.00    +0.000 N 
ATOM     10  N   UNL     1      49.620 239.043 326.001  0.00  0.00    +0.000 N 
ATOM     11  C   UNL     1      49.790 240.403 325.806  0.00  0.00    +0.000 C 
ATOM     12  H   UNL     1      51.534 240.167 326.878  0.00  0.00    +0.000 HD
ATOM     13  H   UNL     1      50.346 238.528 326.479  0.00  0.00    +0.000 HD
BRANCH   9  15
ATOM     14 CL   UNL     1      53.047 246.383 326.149  0.00  0.00    +0.000 Cl
ATOM     15  C   UNL     1      51.451 242.165 326.355  0.00  0.00    +0.000 A 
ATOM     16  C   UNL     1      52.733 243.855 325.150  0.00  0.00    +0.000 A 
ATOM     17  C   UNL     1      52.217 242.558 325.257  0.00  0.00    +0.000 A 
ATOM     18  C   UNL     1      51.195 243.086 327.365  0.00  0.00    +0.000 A 
ATOM     19  C   UNL     1      52.465 244.763 326.175  0.00  0.00    +0.000 A 
ATOM     20  C   UNL     1      51.700 244.380 327.277  0.00  0.00    +0.000 A 
BRANCH  16  24
ATOM     21  F   UNL     1      54.813 244.609 324.258  0.00  0.00    +0.000 F 
ATOM     22  F   UNL     1      53.698 243.171 323.081  0.00  0.00    +0.000 F 
ATOM     23  F   UNL     1      53.013 245.237 323.228  0.00  0.00    +0.000 F 
ATOM     24  C   UNL     1      53.546 244.211 323.945  0.00  0.00    +0.000 C 
ENDBRANCH  16  24
ENDBRANCH   9  15
ENDBRANCH   2  10
BRANCH   3  25
ATOM     25  O   UNL     1      45.311 235.994 324.199  0.00  0.00    +0.000 OA
BRANCH  25  27
ATOM     26  N   UNL     1      44.101 232.496 326.126  0.00  0.00    +0.000 NA
ATOM     27  C   UNL     1      44.913 234.879 324.903  0.00  0.00    +0.000 A 
ATOM     28  C   UNL     1      43.990 234.920 325.942  0.00  0.00    +0.000 A 
ATOM     29  C   UNL     1      43.630 233.713 326.519  0.00  0.00    +0.000 A 
ATOM     30  C   UNL     1      45.405 233.659 324.451  0.00  0.00    +0.000 A 
ATOM     31  C   UNL     1      44.977 232.509 325.094  0.00  0.00    +0.000 A 
BRANCH  29  34
ATOM     32  O   UNL     1      43.056 233.448 328.791  0.00  0.00    +0.000 OA
ATOM     33  N   UNL     1      41.381 234.016 327.261  0.00  0.00    +0.000 N 
ATOM     34  C   UNL     1      42.672 233.709 327.655  0.00  0.00    +0.000 C 
ATOM     35  C   UNL     1      40.157 234.121 328.007  0.00  0.00    +0.000 C 
ATOM     36  H   UNL     1      41.279 234.197 326.263  0.00  0.00    +0.000 HD
ENDBRANCH  29  34
ENDBRANCH  25  27
ENDBRANCH   3  25
TORSDOF 6
ENDMDL
MODEL 2
REMARK VINA RESULT:      -6.3      2.567      3.269
REMARK  Name = 11167602_Regorafenib.pdbqt.pdb
REMARK  6 active torsions:
REMARK  status: ('A' for Active; 'I' for Inactive)
REMARK    1  A    between atoms: C_2  and  N_10
REMARK    2  A    between atoms: C_3  and  O_25
REMARK    3  A    between atoms: N_9  and  C_15
REMARK    4  A    between atoms: C_16  and  C_24
REMARK    5  A    between atoms: O_25  and  C_27
REMARK    6  A    between atoms: C_29  and  C_34
REMARK                            x       y       z     vdW  Elec       q    Type
REMARK                         _______ _______ _______ _____ _____    ______ ____
ROOT
ATOM      1  F   UNL     1      47.601 240.478 327.060  0.00  0.00    +0.000 F 
ATOM      2  C   UNL     1      49.091 238.953 326.032  0.00  0.00    +0.000 A 
ATOM      3  C   UNL     1      46.892 237.384 325.314  0.00  0.00    +0.000 A 
ATOM      4  C   UNL     1      47.792 239.337 326.379  0.00  0.00    +0.000 A 
ATOM      5  C   UNL     1      49.274 237.758 325.338  0.00  0.00    +0.000 A 
ATOM      6  C   UNL     1      46.691 238.558 326.039  0.00  0.00    +0.000 A 
ATOM      7  C   UNL     1      48.180 236.967 324.989  0.00  0.00    +0.000 A 
ENDROOT
BRANCH   2  10
ATOM      8  O   UNL     1      49.842 241.517 324.895  0.00  0.00    +0.000 OA
ATOM      9  N   UNL     1      51.556 241.601 326.444  0.00  0.00    +0.000 N 
ATOM     10  N   UNL     1      50.160 239.796 326.402  0.00  0.00    +0.000 N 
ATOM     11  C   UNL     1      50.461 241.019 325.826  0.00  0.00    +0.000 C 
ATOM     12  H   UNL     1      51.972 241.114 327.224  0.00  0.00    +0.000 HD
ATOM     13  H   UNL     1      50.752 239.451 327.144  0.00  0.00    +0.000 HD
BRANCH   9  15
ATOM     14 CL   UNL     1      54.002 246.754 324.854  0.00  0.00    +0.000 Cl
ATOM     15  C   UNL     1      52.128 242.839 326.096  0.00  0.00    +0.000 A 
ATOM     16  C   UNL     1      53.337 244.135 324.420  0.00  0.00    +0.000 A 
ATOM     17  C   UNL     1      52.743 242.942 324.848  0.00  0.00    +0.000 A 
ATOM     18  C   UNL     1      52.106 243.950 326.933  0.00  0.00    +0.000 A 
ATOM     19  C   UNL     1      53.304 245.238 325.275  0.00  0.00    +0.000 A 
ATOM     20  C   UNL     1      52.692 245.144 326.525  0.00  0.00    +0.000 A 
BRANCH  16  24
ATOM     21  F   UNL     1      53.873 242.997 322.394  0.00  0.00    +0.000 F 
ATOM     22  F   UNL     1      53.427 245.113 322.249  0.00  0.00    +0.000 F 
ATOM     23  F   UNL     1      55.312 244.445 323.120  0.00  0.00    +0.000 F 
ATOM     24  C   UNL     1      53.978 244.178 323.069  0.00  0.00    +0.000 C 
ENDBRANCH  16  24
ENDBRANCH   9  15
ENDBRANCH   2  10
BRANCH   3  25
ATOM     25  O   UNL     1      45.859 236.528 325.010  0.00  0.00    +0.000 OA
BRANCH  25  27
ATOM     26  N   UNL     1      46.328 233.872 321.827  0.00  0.00    +0.000 NA
ATOM     27  C   UNL     1      46.061 235.608 324.006  0.00  0.00    +0.000 A 
ATOM     28  C   UNL     1      46.084 234.234 324.221  0.00  0.00    +0.000 A 
ATOM     29  C   UNL     1      46.229 233.420 323.109  0.00  0.00    +0.000 A 
ATOM     30  C   UNL     1      46.136 236.116 322.713  0.00  0.00    +0.000 A 
ATOM     31  C   UNL     1      46.274 235.214 321.670  0.00  0.00    +0.000 A 
BRANCH  29  34
ATOM     32  O   UNL     1      46.851 231.241 322.458  0.00  0.00    +0.000 OA
ATOM     33  N   UNL     1      45.670 231.529 324.455  0.00  0.00    +0.000 N 
ATOM     34  C   UNL     1      46.293 231.947 323.292  0.00  0.00    +0.000 C 
ATOM     35  C   UNL     1      45.489 230.220 325.022  0.00  0.00    +0.000 C 
ATOM     36  H   UNL     1      45.264 232.283 325.008  0.00  0.00    +0.000 HD
ENDBRANCH  29  34
ENDBRANCH  25  27
ENDBRANCH   3  25
TORSDOF 6
ENDMDL
MODEL 3
REMARK VINA RESULT:      -6.2      2.038      2.582
REMARK  Name = 11167602_Regorafenib.pdbqt.pdb
REMARK  6 active torsions:
REMARK  status: ('A' for Active; 'I' for Inactive)
REMARK    1  A    between atoms: C_2  and  N_10
REMARK    2  A    between atoms: C_3  and  O_25
REMARK    3  A    between atoms: N_9  and  C_15
REMARK    4  A    between atoms: C_16  and  C_24
REMARK    5  A    between atoms: O_25  and  C_27
REMARK    6  A    between atoms: C_29  and  C_34
REMARK                            x       y       z     vdW  Elec       q    Type
REMARK                         _______ _______ _______ _____ _____    ______ ____
ROOT
ATOM      1  F   UNL     1      47.078 239.721 326.529  0.00  0.00    +0.000 F 
ATOM      2  C   UNL     1      48.748 238.434 325.454  0.00  0.00    +0.000 A 
ATOM      3  C   UNL     1      46.725 236.890 324.298  0.00  0.00    +0.000 A 
ATOM      4  C   UNL     1      47.402 238.703 325.717  0.00  0.00    +0.000 A 
ATOM      5  C   UNL     1      49.068 237.364 324.619  0.00  0.00    +0.000 A 
ATOM      6  C   UNL     1      46.386 237.934 325.158  0.00  0.00    +0.000 A 
ATOM      7  C   UNL     1      48.062 236.584 324.051  0.00  0.00    +0.000 A 
ENDROOT
BRANCH   2  10
ATOM      8  O   UNL     1      49.519 241.133 324.712  0.00  0.00    +0.000 OA
ATOM      9  N   UNL     1      51.023 241.090 326.467  0.00  0.00    +0.000 N 
ATOM     10  N   UNL     1      49.725 239.261 326.048  0.00  0.00    +0.000 N 
ATOM     11  C   UNL     1      50.039 240.551 325.654  0.00  0.00    +0.000 C 
ATOM     12  H   UNL     1      51.361 240.529 327.235  0.00  0.00    +0.000 HD
ATOM     13  H   UNL     1      50.236 238.851 326.817  0.00  0.00    +0.000 HD
BRANCH   9  15
ATOM     14 CL   UNL     1      53.299 246.539 326.029  0.00  0.00    +0.000 Cl
ATOM     15  C   UNL     1      51.578 242.377 326.334  0.00  0.00    +0.000 A 
ATOM     16  C   UNL     1      51.820 244.610 327.285  0.00  0.00    +0.000 A 
ATOM     17  C   UNL     1      51.308 243.308 327.337  0.00  0.00    +0.000 A 
ATOM     18  C   UNL     1      52.376 242.754 325.258  0.00  0.00    +0.000 A 
ATOM     19  C   UNL     1      52.617 244.968 326.197  0.00  0.00    +0.000 A 
ATOM     20  C   UNL     1      52.893 244.044 325.189  0.00  0.00    +0.000 A 
BRANCH  16  24
ATOM     21  F   UNL     1      52.603 246.074 328.998  0.00  0.00    +0.000 F 
ATOM     22  F   UNL     1      50.775 246.637 327.978  0.00  0.00    +0.000 F 
ATOM     23  F   UNL     1      50.776 244.979 329.396  0.00  0.00    +0.000 F 
ATOM     24  C   UNL     1      51.492 245.558 328.395  0.00  0.00    +0.000 C 
ENDBRANCH  16  24
ENDBRANCH   9  15
ENDBRANCH   2  10
BRANCH   3  25
ATOM     25  O   UNL     1      45.779 236.042 323.770  0.00  0.00    +0.000 OA
BRANCH  25  27
ATOM     26  N   UNL     1      44.346 232.812 325.989  0.00  0.00    +0.000 NA
ATOM     27  C   UNL     1      45.316 235.020 324.568  0.00  0.00    +0.000 A 
ATOM     28  C   UNL     1      44.461 235.218 325.647  0.00  0.00    +0.000 A 
ATOM     29  C   UNL     1      44.019 234.092 326.322  0.00  0.00    +0.000 A 
ATOM     30  C   UNL     1      45.660 233.731 324.175  0.00  0.00    +0.000 A 
ATOM     31  C   UNL     1      45.159 232.672 324.916  0.00  0.00    +0.000 A 
BRANCH  29  34
ATOM     32  O   UNL     1      43.286 233.555 328.497  0.00  0.00    +0.000 OA
ATOM     33  N   UNL     1      42.176 235.240 327.316  0.00  0.00    +0.000 N 
ATOM     34  C   UNL     1      43.132 234.255 327.502  0.00  0.00    +0.000 C 
ATOM     35  C   UNL     1      41.128 235.724 328.171  0.00  0.00    +0.000 C 
ATOM     36  H   UNL     1      42.221 235.701 326.408  0.00  0.00    +0.000 HD
ENDBRANCH  29  34
ENDBRANCH  25  27
ENDBRANCH   3  25
TORSDOF 6
ENDMDL
MODEL 4
REMARK VINA RESULT:      -6.1     21.398     25.036
REMARK  Name = 11167602_Regorafenib.pdbqt.pdb
REMARK  6 active torsions:
REMARK  status: ('A' for Active; 'I' for Inactive)
REMARK    1  A    between atoms: C_2  and  N_10
REMARK    2  A    between atoms: C_3  and  O_25
REMARK    3  A    between atoms: N_9  and  C_15
REMARK    4  A    between atoms: C_16  and  C_24
REMARK    5  A    between atoms: O_25  and  C_27
REMARK    6  A    between atoms: C_29  and  C_34
REMARK                            x       y       z     vdW  Elec       q    Type
REMARK                         _______ _______ _______ _____ _____    ______ ____
ROOT
ATOM      1  F   UNL     1      64.726 239.831 340.039  0.00  0.00    +0.000 F 
ATOM      2  C   UNL     1      66.422 238.294 339.437  0.00  0.00    +0.000 A 
ATOM      3  C   UNL     1      67.461 240.217 337.695  0.00  0.00    +0.000 A 
ATOM      4  C   UNL     1      65.816 239.547 339.309  0.00  0.00    +0.000 A 
ATOM      5  C   UNL     1      67.545 238.009 338.662  0.00  0.00    +0.000 A 
ATOM      6  C   UNL     1      66.316 240.508 338.436  0.00  0.00    +0.000 A 
ATOM      7  C   UNL     1      68.058 238.961 337.782  0.00  0.00    +0.000 A 
ENDROOT
BRANCH   2  10
ATOM      8  O   UNL     1      67.488 237.418 341.992  0.00  0.00    +0.000 OA
ATOM      9  N   UNL     1      65.603 236.099 342.225  0.00  0.00    +0.000 N 
ATOM     10  N   UNL     1      65.866 237.372 340.349  0.00  0.00    +0.000 N 
ATOM     11  C   UNL     1      66.420 237.002 341.563  0.00  0.00    +0.000 C 
ATOM     12  H   UNL     1      64.728 235.847 341.790  0.00  0.00    +0.000 HD
ATOM     13  H   UNL     1      64.995 236.946 340.064  0.00  0.00    +0.000 HD
BRANCH   9  15
ATOM     14 CL   UNL     1      66.717 233.774 347.556  0.00  0.00    +0.000 Cl
ATOM     15  C   UNL     1      65.876 235.517 343.477  0.00  0.00    +0.000 A 
ATOM     16  C   UNL     1      65.989 235.824 345.894  0.00  0.00    +0.000 A 
ATOM     17  C   UNL     1      65.739 236.320 344.610  0.00  0.00    +0.000 A 
ATOM     18  C   UNL     1      66.269 234.192 343.631  0.00  0.00    +0.000 A 
ATOM     19  C   UNL     1      66.384 234.491 346.027  0.00  0.00    +0.000 A 
ATOM     20  C   UNL     1      66.523 233.681 344.900  0.00  0.00    +0.000 A 
BRANCH  16  24
ATOM     21  F   UNL     1      66.977 236.912 347.773  0.00  0.00    +0.000 F 
ATOM     22  F   UNL     1      65.426 237.990 346.711  0.00  0.00    +0.000 F 
ATOM     23  F   UNL     1      64.912 236.285 347.971  0.00  0.00    +0.000 F 
ATOM     24  C   UNL     1      65.822 236.738 347.067  0.00  0.00    +0.000 C 
ENDBRANCH  16  24
ENDBRANCH   9  15
ENDBRANCH   2  10
BRANCH   3  25
ATOM     25  O   UNL     1      67.965 241.089 336.758  0.00  0.00    +0.000 OA
BRANCH  25  27
ATOM     26  N   UNL     1      67.032 240.589 332.723  0.00  0.00    +0.000 NA
ATOM     27  C   UNL     1      67.581 240.917 335.447  0.00  0.00    +0.000 A 
ATOM     28  C   UNL     1      66.445 241.504 334.900  0.00  0.00    +0.000 A 
ATOM     29  C   UNL     1      66.214 241.302 333.549  0.00  0.00    +0.000 A 
ATOM     30  C   UNL     1      68.457 240.200 334.639  0.00  0.00    +0.000 A 
ATOM     31  C   UNL     1      68.137 240.062 333.298  0.00  0.00    +0.000 A 
BRANCH  29  34
ATOM     32  O   UNL     1      63.968 241.216 332.838  0.00  0.00    +0.000 OA
ATOM     33  N   UNL     1      65.189 243.180 332.491  0.00  0.00    +0.000 N 
ATOM     34  C   UNL     1      64.996 241.880 332.926  0.00  0.00    +0.000 C 
ATOM     35  C   UNL     1      64.305 244.108 331.839  0.00  0.00    +0.000 C 
ATOM     36  H   UNL     1      66.126 243.544 332.658  0.00  0.00    +0.000 HD
ENDBRANCH  29  34
ENDBRANCH  25  27
ENDBRANCH   3  25
TORSDOF 6
ENDMDL
MODEL 5
REMARK VINA RESULT:      -6.1      2.179      3.547
REMARK  Name = 11167602_Regorafenib.pdbqt.pdb
REMARK  6 active torsions:
REMARK  status: ('A' for Active; 'I' for Inactive)
REMARK    1  A    between atoms: C_2  and  N_10
REMARK    2  A    between atoms: C_3  and  O_25
REMARK    3  A    between atoms: N_9  and  C_15
REMARK    4  A    between atoms: C_16  and  C_24
REMARK    5  A    between atoms: O_25  and  C_27
REMARK    6  A    between atoms: C_29  and  C_34
REMARK                            x       y       z     vdW  Elec       q    Type
REMARK                         _______ _______ _______ _____ _____    ______ ____
ROOT
ATOM      1  F   UNL     1      49.631 238.503 323.260  0.00  0.00    +0.000 F 
ATOM      2  C   UNL     1      48.602 238.440 325.390  0.00  0.00    +0.000 A 
ATOM      3  C   UNL     1      46.553 236.893 324.286  0.00  0.00    +0.000 A 
ATOM      4  C   UNL     1      48.616 238.092 324.036  0.00  0.00    +0.000 A 
ATOM      5  C   UNL     1      47.534 238.018 326.180  0.00  0.00    +0.000 A 
ATOM      6  C   UNL     1      47.595 237.335 323.472  0.00  0.00    +0.000 A 
ATOM      7  C   UNL     1      46.503 237.257 325.630  0.00  0.00    +0.000 A 
ENDROOT
BRANCH   2  10
ATOM      8  O   UNL     1      49.092 241.287 325.091  0.00  0.00    +0.000 OA
ATOM      9  N   UNL     1      50.991 241.004 326.380  0.00  0.00    +0.000 N 
ATOM     10  N   UNL     1      49.675 239.203 325.897  0.00  0.00    +0.000 N 
ATOM     11  C   UNL     1      49.848 240.566 325.730  0.00  0.00    +0.000 C 
ATOM     12  H   UNL     1      51.525 240.326 326.903  0.00  0.00    +0.000 HD
ATOM     13  H   UNL     1      50.374 238.686 326.413  0.00  0.00    +0.000 HD
BRANCH   9  15
ATOM     14 CL   UNL     1      53.031 246.563 326.339  0.00  0.00    +0.000 Cl
ATOM     15  C   UNL     1      51.462 242.330 326.400  0.00  0.00    +0.000 A 
ATOM     16  C   UNL     1      52.722 244.072 325.248  0.00  0.00    +0.000 A 
ATOM     17  C   UNL     1      52.215 242.769 325.311  0.00  0.00    +0.000 A 
ATOM     18  C   UNL     1      51.210 243.212 327.447  0.00  0.00    +0.000 A 
ATOM     19  C   UNL     1      52.458 244.940 326.309  0.00  0.00    +0.000 A 
ATOM     20  C   UNL     1      51.706 244.510 327.402  0.00  0.00    +0.000 A 
BRANCH  16  24
ATOM     21  F   UNL     1      54.708 245.066 324.378  0.00  0.00    +0.000 F 
ATOM     22  F   UNL     1      53.848 243.428 323.249  0.00  0.00    +0.000 F 
ATOM     23  F   UNL     1      52.877 245.381 323.262  0.00  0.00    +0.000 F 
ATOM     24  C   UNL     1      53.521 244.478 324.050  0.00  0.00    +0.000 C 
ENDBRANCH  16  24
ENDBRANCH   9  15
ENDBRANCH   2  10
BRANCH   3  25
ATOM     25  O   UNL     1      45.474 236.205 323.781  0.00  0.00    +0.000 OA
BRANCH  25  27
ATOM     26  N   UNL     1      45.926 232.071 323.446  0.00  0.00    +0.000 NA
ATOM     27  C   UNL     1      45.608 234.847 323.593  0.00  0.00    +0.000 A 
ATOM     28  C   UNL     1      46.255 234.287 322.497  0.00  0.00    +0.000 A 
ATOM     29  C   UNL     1      46.376 232.908 322.469  0.00  0.00    +0.000 A 
ATOM     30  C   UNL     1      45.151 234.036 324.627  0.00  0.00    +0.000 A 
ATOM     31  C   UNL     1      45.328 232.667 324.503  0.00  0.00    +0.000 A 
BRANCH  29  34
ATOM     32  O   UNL     1      48.001 231.528 321.462  0.00  0.00    +0.000 OA
ATOM     33  N   UNL     1      46.423 232.590 320.103  0.00  0.00    +0.000 N 
ATOM     34  C   UNL     1      47.030 232.260 321.303  0.00  0.00    +0.000 C 
ATOM     35  C   UNL     1      46.716 232.207 318.749  0.00  0.00    +0.000 C 
ATOM     36  H   UNL     1      45.628 233.221 320.195  0.00  0.00    +0.000 HD
ENDBRANCH  29  34
ENDBRANCH  25  27
ENDBRANCH   3  25
TORSDOF 6
ENDMDL
MODEL 6
REMARK VINA RESULT:      -5.8     23.079     25.324
REMARK  Name = 11167602_Regorafenib.pdbqt.pdb
REMARK  6 active torsions:
REMARK  status: ('A' for Active; 'I' for Inactive)
REMARK    1  A    between atoms: C_2  and  N_10
REMARK    2  A    between atoms: C_3  and  O_25
REMARK    3  A    between atoms: N_9  and  C_15
REMARK    4  A    between atoms: C_16  and  C_24
REMARK    5  A    between atoms: O_25  and  C_27
REMARK    6  A    between atoms: C_29  and  C_34
REMARK                            x       y       z     vdW  Elec       q    Type
REMARK                         _______ _______ _______ _____ _____    ______ ____
ROOT
ATOM      1  F   UNL     1      62.027 218.941 330.399  0.00  0.00    +0.000 F 
ATOM      2  C   UNL     1      62.848 221.158 330.516  0.00  0.00    +0.000 A 
ATOM      3  C   UNL     1      65.292 220.140 331.411  0.00  0.00    +0.000 A 
ATOM      4  C   UNL     1      63.034 219.783 330.681  0.00  0.00    +0.000 A 
ATOM      5  C   UNL     1      63.899 222.020 330.827  0.00  0.00    +0.000 A 
ATOM      6  C   UNL     1      64.241 219.265 331.139  0.00  0.00    +0.000 A 
ATOM      7  C   UNL     1      65.115 221.516 331.286  0.00  0.00    +0.000 A 
ENDROOT
BRANCH   2  10
ATOM      8  O   UNL     1      62.097 221.846 327.796  0.00  0.00    +0.000 OA
ATOM      9  N   UNL     1      59.976 222.304 328.593  0.00  0.00    +0.000 N 
ATOM     10  N   UNL     1      61.600 221.612 330.039  0.00  0.00    +0.000 N 
ATOM     11  C   UNL     1      61.299 221.914 328.721  0.00  0.00    +0.000 C 
ATOM     12  H   UNL     1      59.398 222.295 329.421  0.00  0.00    +0.000 HD
ATOM     13  H   UNL     1      60.882 221.734 330.740  0.00  0.00    +0.000 HD
BRANCH   9  15
ATOM     14 CL   UNL     1      57.324 223.780 323.508  0.00  0.00    +0.000 Cl
ATOM     15  C   UNL     1      59.350 222.687 327.392  0.00  0.00    +0.000 A 
ATOM     16  C   UNL     1      58.254 221.967 325.335  0.00  0.00    +0.000 A 
ATOM     17  C   UNL     1      58.888 221.676 326.549  0.00  0.00    +0.000 A 
ATOM     18  C   UNL     1      59.174 224.015 327.015  0.00  0.00    +0.000 A 
ATOM     19  C   UNL     1      58.088 223.306 324.976  0.00  0.00    +0.000 A 
ATOM     20  C   UNL     1      58.547 224.323 325.812  0.00  0.00    +0.000 A 
BRANCH  16  24
ATOM     21  F   UNL     1      58.466 220.737 323.302  0.00  0.00    +0.000 F 
ATOM     22  F   UNL     1      57.921 219.621 325.078  0.00  0.00    +0.000 F 
ATOM     23  F   UNL     1      56.472 220.945 324.125  0.00  0.00    +0.000 F 
ATOM     24  C   UNL     1      57.782 220.835 324.479  0.00  0.00    +0.000 C 
ENDBRANCH  16  24
ENDBRANCH   9  15
ENDBRANCH   2  10
BRANCH   3  25
ATOM     25  O   UNL     1      66.486 219.705 331.938  0.00  0.00    +0.000 OA
BRANCH  25  27
ATOM     26  N   UNL     1      66.767 220.024 336.088  0.00  0.00    +0.000 NA
ATOM     27  C   UNL     1      66.650 219.775 333.303  0.00  0.00    +0.000 A 
ATOM     28  C   UNL     1      67.857 220.099 333.914  0.00  0.00    +0.000 A 
ATOM     29  C   UNL     1      67.862 220.199 335.295  0.00  0.00    +0.000 A 
ATOM     30  C   UNL     1      65.500 219.609 334.069  0.00  0.00    +0.000 A 
ATOM     31  C   UNL     1      65.613 219.737 335.444  0.00  0.00    +0.000 A 
BRANCH  29  34
ATOM     32  O   UNL     1      69.927 219.614 336.272  0.00  0.00    +0.000 OA
ATOM     33  N   UNL     1      69.274 221.860 336.269  0.00  0.00    +0.000 N 
ATOM     34  C   UNL     1      69.135 220.510 335.995  0.00  0.00    +0.000 C 
ATOM     35  C   UNL     1      70.322 222.597 336.922  0.00  0.00    +0.000 C 
ATOM     36  H   UNL     1      68.493 222.434 335.955  0.00  0.00    +0.000 HD
ENDBRANCH  29  34
ENDBRANCH  25  27
ENDBRANCH   3  25
TORSDOF 6
ENDMDL
MODEL 7
REMARK VINA RESULT:      -5.8      7.848     10.740
REMARK  Name = 11167602_Regorafenib.pdbqt.pdb
REMARK  6 active torsions:
REMARK  status: ('A' for Active; 'I' for Inactive)
REMARK    1  A    between atoms: C_2  and  N_10
REMARK    2  A    between atoms: C_3  and  O_25
REMARK    3  A    between atoms: N_9  and  C_15
REMARK    4  A    between atoms: C_16  and  C_24
REMARK    5  A    between atoms: O_25  and  C_27
REMARK    6  A    between atoms: C_29  and  C_34
REMARK                            x       y       z     vdW  Elec       q    Type
REMARK                         _______ _______ _______ _____ _____    ______ ____
ROOT
ATOM      1  F   UNL     1      51.020 240.965 321.746  0.00  0.00    +0.000 F 
ATOM      2  C   UNL     1      52.889 242.256 321.083  0.00  0.00    +0.000 A 
ATOM      3  C   UNL     1      52.545 243.818 323.375  0.00  0.00    +0.000 A 
ATOM      4  C   UNL     1      51.854 241.989 321.983  0.00  0.00    +0.000 A 
ATOM      5  C   UNL     1      53.738 243.332 321.336  0.00  0.00    +0.000 A 
ATOM      6  C   UNL     1      51.664 242.768 323.120  0.00  0.00    +0.000 A 
ATOM      7  C   UNL     1      53.561 244.121 322.472  0.00  0.00    +0.000 A 
ENDROOT
BRANCH   2  10
ATOM      8  O   UNL     1      54.438 239.812 320.829  0.00  0.00    +0.000 OA
ATOM      9  N   UNL     1      53.674 239.660 318.652  0.00  0.00    +0.000 N 
ATOM     10  N   UNL     1      53.028 241.419 319.955  0.00  0.00    +0.000 N 
ATOM     11  C   UNL     1      53.776 240.254 319.900  0.00  0.00    +0.000 C 
ATOM     12  H   UNL     1      53.074 240.098 317.968  0.00  0.00    +0.000 HD
ATOM     13  H   UNL     1      52.543 241.723 319.123  0.00  0.00    +0.000 HD
BRANCH   9  15
ATOM     14 CL   UNL     1      56.258 234.586 317.029  0.00  0.00    +0.000 Cl
ATOM     15  C   UNL     1      54.316 238.471 318.259  0.00  0.00    +0.000 A 
ATOM     16  C   UNL     1      54.153 236.053 317.981  0.00  0.00    +0.000 A 
ATOM     17  C   UNL     1      53.593 237.281 318.351  0.00  0.00    +0.000 A 
ATOM     18  C   UNL     1      55.624 238.432 317.788  0.00  0.00    +0.000 A 
ATOM     19  C   UNL     1      55.468 236.037 317.511  0.00  0.00    +0.000 A 
ATOM     20  C   UNL     1      56.199 237.221 317.417  0.00  0.00    +0.000 A 
BRANCH  16  24
ATOM     21  F   UNL     1      52.105 235.047 318.675  0.00  0.00    +0.000 F 
ATOM     22  F   UNL     1      53.051 234.237 316.901  0.00  0.00    +0.000 F 
ATOM     23  F   UNL     1      53.905 233.856 318.872  0.00  0.00    +0.000 F 
ATOM     24  C   UNL     1      53.322 234.815 318.102  0.00  0.00    +0.000 C 
ENDBRANCH  16  24
ENDBRANCH   9  15
ENDBRANCH   2  10
BRANCH   3  25
ATOM     25  O   UNL     1      52.372 244.674 324.437  0.00  0.00    +0.000 OA
BRANCH  25  27
ATOM     26  N   UNL     1      51.654 242.829 328.110  0.00  0.00    +0.000 NA
ATOM     27  C   UNL     1      52.084 244.124 325.666  0.00  0.00    +0.000 A 
ATOM     28  C   UNL     1      50.798 244.062 326.194  0.00  0.00    +0.000 A 
ATOM     29  C   UNL     1      50.643 243.419 327.411  0.00  0.00    +0.000 A 
ATOM     30  C   UNL     1      53.144 243.516 326.331  0.00  0.00    +0.000 A 
ATOM     31  C   UNL     1      52.880 242.894 327.540  0.00  0.00    +0.000 A 
BRANCH  29  34
ATOM     32  O   UNL     1      48.459 242.557 327.623  0.00  0.00    +0.000 OA
ATOM     33  N   UNL     1      49.140 244.272 329.058  0.00  0.00    +0.000 N 
ATOM     34  C   UNL     1      49.295 243.357 328.032  0.00  0.00    +0.000 C 
ATOM     35  C   UNL     1      48.025 244.562 329.918  0.00  0.00    +0.000 C 
ATOM     36  H   UNL     1      49.963 244.848 329.234  0.00  0.00    +0.000 HD
ENDBRANCH  29  34
ENDBRANCH  25  27
ENDBRANCH   3  25
TORSDOF 6
ENDMDL
MODEL 8
REMARK VINA RESULT:      -5.8     22.883     25.026
REMARK  Name = 11167602_Regorafenib.pdbqt.pdb
REMARK  6 active torsions:
REMARK  status: ('A' for Active; 'I' for Inactive)
REMARK    1  A    between atoms: C_2  and  N_10
REMARK    2  A    between atoms: C_3  and  O_25
REMARK    3  A    between atoms: N_9  and  C_15
REMARK    4  A    between atoms: C_16  and  C_24
REMARK    5  A    between atoms: O_25  and  C_27
REMARK    6  A    between atoms: C_29  and  C_34
REMARK                            x       y       z     vdW  Elec       q    Type
REMARK                         _______ _______ _______ _____ _____    ______ ____
ROOT
ATOM      1  F   UNL     1      61.795 218.905 330.258  0.00  0.00    +0.000 F 
ATOM      2  C   UNL     1      62.715 221.074 330.483  0.00  0.00    +0.000 A 
ATOM      3  C   UNL     1      65.105 219.904 331.339  0.00  0.00    +0.000 A 
ATOM      4  C   UNL     1      62.837 219.685 330.584  0.00  0.00    +0.000 A 
ATOM      5  C   UNL     1      63.802 221.871 330.838  0.00  0.00    +0.000 A 
ATOM      6  C   UNL     1      64.017 219.092 331.021  0.00  0.00    +0.000 A 
ATOM      7  C   UNL     1      64.991 221.291 331.278  0.00  0.00    +0.000 A 
ENDROOT
BRANCH   2  10
ATOM      8  O   UNL     1      61.969 221.800 327.771  0.00  0.00    +0.000 OA
ATOM      9  N   UNL     1      59.894 222.398 328.598  0.00  0.00    +0.000 N 
ATOM     10  N   UNL     1      61.492 221.607 330.023  0.00  0.00    +0.000 N 
ATOM     11  C   UNL     1      61.191 221.922 328.708  0.00  0.00    +0.000 C 
ATOM     12  H   UNL     1      59.330 222.429 329.435  0.00  0.00    +0.000 HD
ATOM     13  H   UNL     1      60.795 221.777 330.734  0.00  0.00    +0.000 HD
BRANCH   9  15
ATOM     14 CL   UNL     1      57.289 224.026 323.536  0.00  0.00    +0.000 Cl
ATOM     15  C   UNL     1      59.277 222.817 327.405  0.00  0.00    +0.000 A 
ATOM     16  C   UNL     1      58.319 222.165 325.258  0.00  0.00    +0.000 A 
ATOM     17  C   UNL     1      58.936 221.838 326.471  0.00  0.00    +0.000 A 
ATOM     18  C   UNL     1      58.994 224.149 327.121  0.00  0.00    +0.000 A 
ATOM     19  C   UNL     1      58.045 223.508 324.993  0.00  0.00    +0.000 A 
ATOM     20  C   UNL     1      58.381 224.494 325.920  0.00  0.00    +0.000 A 
BRANCH  16  24
ATOM     21  F   UNL     1      58.733 221.100 323.165  0.00  0.00    +0.000 F 
ATOM     22  F   UNL     1      58.175 219.826 324.826  0.00  0.00    +0.000 F 
ATOM     23  F   UNL     1      56.687 221.109 323.878  0.00  0.00    +0.000 F 
ATOM     24  C   UNL     1      57.979 221.066 324.302  0.00  0.00    +0.000 C 
ENDBRANCH  16  24
ENDBRANCH   9  15
ENDBRANCH   2  10
BRANCH   3  25
ATOM     25  O   UNL     1      66.274 219.391 331.849  0.00  0.00    +0.000 OA
BRANCH  25  27
ATOM     26  N   UNL     1      66.991 219.371 335.959  0.00  0.00    +0.000 NA
ATOM     27  C   UNL     1      66.432 219.388 333.217  0.00  0.00    +0.000 A 
ATOM     28  C   UNL     1      65.619 218.661 334.080  0.00  0.00    +0.000 A 
ATOM     29  C   UNL     1      65.933 218.696 335.428  0.00  0.00    +0.000 A 
ATOM     30  C   UNL     1      67.538 220.075 333.709  0.00  0.00    +0.000 A 
ATOM     31  C   UNL     1      67.766 220.041 335.075  0.00  0.00    +0.000 A 
BRANCH  29  34
ATOM     32  O   UNL     1      63.893 218.266 336.528  0.00  0.00    +0.000 OA
ATOM     33  N   UNL     1      65.760 216.965 337.064  0.00  0.00    +0.000 N 
ATOM     34  C   UNL     1      65.074 217.962 336.393  0.00  0.00    +0.000 C 
ATOM     35  C   UNL     1      65.338 216.028 338.069  0.00  0.00    +0.000 C 
ATOM     36  H   UNL     1      66.742 216.882 336.802  0.00  0.00    +0.000 HD
ENDBRANCH  29  34
ENDBRANCH  25  27
ENDBRANCH   3  25
TORSDOF 6
ENDMDL
MODEL 9
REMARK VINA RESULT:      -5.5     34.062     35.523
REMARK  Name = 11167602_Regorafenib.pdbqt.pdb
REMARK  6 active torsions:
REMARK  status: ('A' for Active; 'I' for Inactive)
REMARK    1  A    between atoms: C_2  and  N_10
REMARK    2  A    between atoms: C_3  and  O_25
REMARK    3  A    between atoms: N_9  and  C_15
REMARK    4  A    between atoms: C_16  and  C_24
REMARK    5  A    between atoms: O_25  and  C_27
REMARK    6  A    between atoms: C_29  and  C_34
REMARK                            x       y       z     vdW  Elec       q    Type
REMARK                         _______ _______ _______ _____ _____    ______ ____
ROOT
ATOM      1  F   UNL     1      76.010 220.772 343.157  0.00  0.00    +0.000 F 
ATOM      2  C   UNL     1      75.564 223.096 343.151  0.00  0.00    +0.000 A 
ATOM      3  C   UNL     1      76.225 223.167 345.866  0.00  0.00    +0.000 A 
ATOM      4  C   UNL     1      75.950 221.934 343.826  0.00  0.00    +0.000 A 
ATOM      5  C   UNL     1      75.493 224.293 343.863  0.00  0.00    +0.000 A 
ATOM      6  C   UNL     1      76.269 221.954 345.179  0.00  0.00    +0.000 A 
ATOM      7  C   UNL     1      75.810 224.329 345.221  0.00  0.00    +0.000 A 
ENDROOT
BRANCH   2  10
ATOM      8  O   UNL     1      73.176 222.026 341.892  0.00  0.00    +0.000 OA
ATOM      9  N   UNL     1      74.113 222.576 339.852  0.00  0.00    +0.000 N 
ATOM     10  N   UNL     1      75.264 223.004 341.776  0.00  0.00    +0.000 N 
ATOM     11  C   UNL     1      74.097 222.492 341.235  0.00  0.00    +0.000 C 
ATOM     12  H   UNL     1      74.915 223.007 339.415  0.00  0.00    +0.000 HD
ATOM     13  H   UNL     1      75.985 223.334 341.149  0.00  0.00    +0.000 HD
BRANCH   9  15
ATOM     14 CL   UNL     1      69.717 220.832 336.289  0.00  0.00    +0.000 Cl
ATOM     15  C   UNL     1      73.088 222.136 338.995  0.00  0.00    +0.000 A 
ATOM     16  C   UNL     1      70.821 222.489 338.167  0.00  0.00    +0.000 A 
ATOM     17  C   UNL     1      71.893 222.856 338.988  0.00  0.00    +0.000 A 
ATOM     18  C   UNL     1      73.214 221.028 338.162  0.00  0.00    +0.000 A 
ATOM     19  C   UNL     1      70.968 221.374 337.340  0.00  0.00    +0.000 A 
ATOM     20  C   UNL     1      72.159 220.648 337.339  0.00  0.00    +0.000 A 
BRANCH  16  24
ATOM     21  F   UNL     1      68.439 222.555 338.052  0.00  0.00    +0.000 F 
ATOM     22  F   UNL     1      69.402 223.965 339.387  0.00  0.00    +0.000 F 
ATOM     23  F   UNL     1      69.512 224.247 337.227  0.00  0.00    +0.000 F 
ATOM     24  C   UNL     1      69.568 223.306 338.208  0.00  0.00    +0.000 C 
ENDBRANCH  16  24
ENDBRANCH   9  15
ENDBRANCH   2  10
BRANCH   3  25
ATOM     25  O   UNL     1      76.454 223.247 347.220  0.00  0.00    +0.000 OA
BRANCH  25  27
ATOM     26  N   UNL     1      73.976 225.555 349.658  0.00  0.00    +0.000 NA
ATOM     27  C   UNL     1      75.575 223.990 347.977  0.00  0.00    +0.000 A 
ATOM     28  C   UNL     1      74.287 223.569 348.287  0.00  0.00    +0.000 A 
ATOM     29  C   UNL     1      73.534 224.386 349.115  0.00  0.00    +0.000 A 
ATOM     30  C   UNL     1      76.080 225.165 348.526  0.00  0.00    +0.000 A 
ATOM     31  C   UNL     1      75.245 225.907 349.347  0.00  0.00    +0.000 A 
BRANCH  29  34
ATOM     32  O   UNL     1      71.873 222.833 349.738  0.00  0.00    +0.000 OA
ATOM     33  N   UNL     1      71.259 225.061 349.379  0.00  0.00    +0.000 N 
ATOM     34  C   UNL     1      72.140 223.995 349.447  0.00  0.00    +0.000 C 
ATOM     35  C   UNL     1      69.843 225.143 349.610  0.00  0.00    +0.000 C 
ATOM     36  H   UNL     1      71.691 225.945 349.113  0.00  0.00    +0.000 HD
ENDBRANCH  29  34
ENDBRANCH  25  27
ENDBRANCH   3  25
TORSDOF 6
ENDMDL
