MODEL 1
REMARK VINA RESULT:      -5.1      0.000      0.000
REMARK  Name = 114778_Kahweol.pdbqt.pdb
REMARK  3 active torsions:
REMARK  status: ('A' for Active; 'I' for Inactive)
REMARK    1  A    between atoms: C_8  and  O_21
REMARK    2  A    between atoms: C_8  and  C_23
REMARK    3  A    between atoms: C_23  and  O_24
REMARK                            x       y       z     vdW  Elec       q    Type
REMARK                         _______ _______ _______ _____ _____    ______ ____
ROOT
ATOM      1  O   UNL     1      58.904 218.498 322.388  0.00  0.00    +0.000 OA
ATOM      2  C   UNL     1      58.983 223.754 325.792  0.00  0.00    +0.000 C 
ATOM      3  C   UNL     1      59.039 222.242 326.284  0.00  0.00    +0.000 C 
ATOM      4  C   UNL     1      59.865 224.640 327.833  0.00  0.00    +0.000 C 
ATOM      5  C   UNL     1      58.661 224.578 326.989  0.00  0.00    +0.000 C 
ATOM      6  C   UNL     1      60.369 224.242 325.625  0.00  0.00    +0.000 C 
ATOM      7  C   UNL     1      58.167 221.150 325.654  0.00  0.00    +0.000 C 
ATOM      8  C   UNL     1      60.999 224.938 326.766  0.00  0.00    +0.000 C 
ATOM      9  C   UNL     1      58.141 223.843 324.627  0.00  0.00    +0.000 C 
ATOM     10  C   UNL     1      59.593 222.132 327.624  0.00  0.00    +0.000 C 
ATOM     11  C   UNL     1      59.981 223.342 328.483  0.00  0.00    +0.000 C 
ATOM     12  C   UNL     1      57.672 221.431 324.132  0.00  0.00    +0.000 C 
ATOM     13  C   UNL     1      57.504 222.789 323.778  0.00  0.00    +0.000 C 
ATOM     14  C   UNL     1      56.872 220.973 326.511  0.00  0.00    +0.000 C 
ATOM     15  C   UNL     1      58.946 219.883 325.586  0.00  0.00    +0.000 C 
ATOM     16  C   UNL     1      57.967 220.426 323.136  0.00  0.00    +0.000 A 
ATOM     17  C   UNL     1      59.198 219.073 324.739  0.00  0.00    +0.000 C 
ATOM     18  C   UNL     1      58.699 219.298 323.443  0.00  0.00    +0.000 A 
ATOM     19  C   UNL     1      57.694 220.316 321.758  0.00  0.00    +0.000 A 
ATOM     20  C   UNL     1      58.272 219.124 321.342  0.00  0.00    +0.000 A 
ENDROOT
BRANCH   8  21
ATOM     21  O   UNL     1      61.061 226.326 326.492  0.00  0.00    +0.000 OA
ATOM     22  H   UNL     1      62.000 226.525 326.339  0.00  0.00    +0.000 HD
ENDBRANCH   8  21
BRANCH   8  23
ATOM     23  C   UNL     1      62.330 224.448 327.148  0.00  0.00    +0.000 C 
BRANCH  23  24
ATOM     24  O   UNL     1      63.532 223.987 327.494  0.00  0.00    +0.000 OA
ATOM     25  H   UNL     1      63.899 223.414 326.797  0.00  0.00    +0.000 HD
ENDBRANCH  23  24
ENDBRANCH   8  23
TORSDOF 3
ENDMDL
MODEL 2
REMARK VINA RESULT:      -5.0      2.838      6.204
REMARK  Name = 114778_Kahweol.pdbqt.pdb
REMARK  3 active torsions:
REMARK  status: ('A' for Active; 'I' for Inactive)
REMARK    1  A    between atoms: C_8  and  O_21
REMARK    2  A    between atoms: C_8  and  C_23
REMARK    3  A    between atoms: C_23  and  O_24
REMARK                            x       y       z     vdW  Elec       q    Type
REMARK                         _______ _______ _______ _____ _____    ______ ____
ROOT
ATOM      1  O   UNL     1      66.122 222.970 324.652  0.00  0.00    +0.000 OA
ATOM      2  C   UNL     1      60.661 222.541 327.688  0.00  0.00    +0.000 C 
ATOM      3  C   UNL     1      61.312 223.804 326.972  0.00  0.00    +0.000 C 
ATOM      4  C   UNL     1      58.447 223.451 327.679  0.00  0.00    +0.000 C 
ATOM      5  C   UNL     1      59.567 223.060 328.552  0.00  0.00    +0.000 C 
ATOM      6  C   UNL     1      59.788 221.851 326.714  0.00  0.00    +0.000 C 
ATOM      7  C   UNL     1      62.807 224.122 327.087  0.00  0.00    +0.000 C 
ATOM      8  C   UNL     1      58.356 222.216 326.690  0.00  0.00    +0.000 C 
ATOM      9  C   UNL     1      61.703 221.739 328.275  0.00  0.00    +0.000 C 
ATOM     10  C   UNL     1      60.315 224.812 326.649  0.00  0.00    +0.000 C 
ATOM     11  C   UNL     1      58.837 224.700 327.042  0.00  0.00    +0.000 C 
ATOM     12  C   UNL     1      63.775 222.859 327.416  0.00  0.00    +0.000 C 
ATOM     13  C   UNL     1      63.193 221.817 328.173  0.00  0.00    +0.000 C 
ATOM     14  C   UNL     1      63.023 225.153 328.243  0.00  0.00    +0.000 C 
ATOM     15  C   UNL     1      63.293 224.660 325.787  0.00  0.00    +0.000 C 
ATOM     16  C   UNL     1      64.879 222.609 326.518  0.00  0.00    +0.000 A 
ATOM     17  C   UNL     1      64.202 224.421 325.043  0.00  0.00    +0.000 C 
ATOM     18  C   UNL     1      65.072 223.369 325.383  0.00  0.00    +0.000 A 
ATOM     19  C   UNL     1      65.906 221.645 326.487  0.00  0.00    +0.000 A 
ATOM     20  C   UNL     1      66.647 221.906 325.342  0.00  0.00    +0.000 A 
ENDROOT
BRANCH   8  21
ATOM     21  O   UNL     1      57.598 221.173 327.277  0.00  0.00    +0.000 OA
ATOM     22  H   UNL     1      58.176 220.766 327.944  0.00  0.00    +0.000 HD
ENDBRANCH   8  21
BRANCH   8  23
ATOM     23  C   UNL     1      57.809 222.542 325.367  0.00  0.00    +0.000 C 
BRANCH  23  24
ATOM     24  O   UNL     1      57.299 222.825 324.168  0.00  0.00    +0.000 OA
ATOM     25  H   UNL     1      57.856 223.469 323.696  0.00  0.00    +0.000 HD
ENDBRANCH  23  24
ENDBRANCH   8  23
TORSDOF 3
ENDMDL
MODEL 3
REMARK VINA RESULT:      -5.0     14.049     16.712
REMARK  Name = 114778_Kahweol.pdbqt.pdb
REMARK  3 active torsions:
REMARK  status: ('A' for Active; 'I' for Inactive)
REMARK    1  A    between atoms: C_8  and  O_21
REMARK    2  A    between atoms: C_8  and  C_23
REMARK    3  A    between atoms: C_23  and  O_24
REMARK                            x       y       z     vdW  Elec       q    Type
REMARK                         _______ _______ _______ _____ _____    ______ ____
ROOT
ATOM      1  O   UNL     1      69.363 217.263 334.547  0.00  0.00    +0.000 OA
ATOM      2  C   UNL     1      70.406 222.195 338.261  0.00  0.00    +0.000 C 
ATOM      3  C   UNL     1      70.010 220.707 338.661  0.00  0.00    +0.000 C 
ATOM      4  C   UNL     1      71.244 222.748 340.435  0.00  0.00    +0.000 C 
ATOM      5  C   UNL     1      70.172 223.035 339.467  0.00  0.00    +0.000 C 
ATOM      6  C   UNL     1      71.881 222.304 338.271  0.00  0.00    +0.000 C 
ATOM      7  C   UNL     1      68.964 219.907 337.878  0.00  0.00    +0.000 C 
ATOM      8  C   UNL     1      72.533 222.770 339.512  0.00  0.00    +0.000 C 
ATOM      9  C   UNL     1      69.758 222.542 337.023  0.00  0.00    +0.000 C 
ATOM     10  C   UNL     1      70.356 220.411 340.042  0.00  0.00    +0.000 C 
ATOM     11  C   UNL     1      70.942 221.446 341.011  0.00  0.00    +0.000 C 
ATOM     12  C   UNL     1      68.740 220.358 336.332  0.00  0.00    +0.000 C 
ATOM     13  C   UNL     1      68.973 221.723 336.049  0.00  0.00    +0.000 C 
ATOM     14  C   UNL     1      67.576 220.052 338.583  0.00  0.00    +0.000 C 
ATOM     15  C   UNL     1      69.389 218.481 337.812  0.00  0.00    +0.000 C 
ATOM     16  C   UNL     1      68.878 219.344 335.312  0.00  0.00    +0.000 A 
ATOM     17  C   UNL     1      69.520 217.662 336.947  0.00  0.00    +0.000 C 
ATOM     18  C   UNL     1      69.251 218.054 335.623  0.00  0.00    +0.000 A 
ATOM     19  C   UNL     1      68.748 219.356 333.909  0.00  0.00    +0.000 A 
ATOM     20  C   UNL     1      69.041 218.068 333.482  0.00  0.00    +0.000 A 
ENDROOT
BRANCH   8  21
ATOM     21  O   UNL     1      72.985 224.100 339.333  0.00  0.00    +0.000 OA
ATOM     22  H   UNL     1      73.856 224.144 339.760  0.00  0.00    +0.000 HD
ENDBRANCH   8  21
BRANCH   8  23
ATOM     23  C   UNL     1      73.637 221.933 339.999  0.00  0.00    +0.000 C 
BRANCH  23  24
ATOM     24  O   UNL     1      74.645 221.187 340.452  0.00  0.00    +0.000 OA
ATOM     25  H   UNL     1      75.324 221.066 339.765  0.00  0.00    +0.000 HD
ENDBRANCH  23  24
ENDBRANCH   8  23
TORSDOF 3
ENDMDL
MODEL 4
REMARK VINA RESULT:      -4.9     29.255     31.501
REMARK  Name = 114778_Kahweol.pdbqt.pdb
REMARK  3 active torsions:
REMARK  status: ('A' for Active; 'I' for Inactive)
REMARK    1  A    between atoms: C_8  and  O_21
REMARK    2  A    between atoms: C_8  and  C_23
REMARK    3  A    between atoms: C_23  and  O_24
REMARK                            x       y       z     vdW  Elec       q    Type
REMARK                         _______ _______ _______ _____ _____    ______ ____
ROOT
ATOM      1  O   UNL     1      54.213 240.287 353.753  0.00  0.00    +0.000 OA
ATOM      2  C   UNL     1      54.751 241.579 347.649  0.00  0.00    +0.000 C 
ATOM      3  C   UNL     1      53.518 241.836 348.622  0.00  0.00    +0.000 C 
ATOM      4  C   UNL     1      54.013 243.156 346.006  0.00  0.00    +0.000 C 
ATOM      5  C   UNL     1      54.233 241.722 346.262  0.00  0.00    +0.000 C 
ATOM      6  C   UNL     1      55.595 242.794 347.635  0.00  0.00    +0.000 C 
ATOM      7  C   UNL     1      53.080 240.804 349.668  0.00  0.00    +0.000 C 
ATOM      8  C   UNL     1      55.342 243.799 346.583  0.00  0.00    +0.000 C 
ATOM      9  C   UNL     1      55.412 240.359 348.033  0.00  0.00    +0.000 C 
ATOM     10  C   UNL     1      52.623 242.856 348.099  0.00  0.00    +0.000 C 
ATOM     11  C   UNL     1      52.806 243.524 346.731  0.00  0.00    +0.000 C 
ATOM     12  C   UNL     1      54.230 239.768 350.163  0.00  0.00    +0.000 C 
ATOM     13  C   UNL     1      55.234 239.462 349.217  0.00  0.00    +0.000 C 
ATOM     14  C   UNL     1      51.929 239.930 349.072  0.00  0.00    +0.000 C 
ATOM     15  C   UNL     1      52.636 241.515 350.898  0.00  0.00    +0.000 C 
ATOM     16  C   UNL     1      54.482 239.677 351.583  0.00  0.00    +0.000 A 
ATOM     17  C   UNL     1      52.878 241.439 352.070  0.00  0.00    +0.000 C 
ATOM     18  C   UNL     1      53.824 240.485 352.486  0.00  0.00    +0.000 A 
ATOM     19  C   UNL     1      55.366 238.906 352.364  0.00  0.00    +0.000 A 
ATOM     20  C   UNL     1      55.163 239.299 353.680  0.00  0.00    +0.000 A 
ENDROOT
BRANCH   8  21
ATOM     21  O   UNL     1      56.376 243.736 345.617  0.00  0.00    +0.000 OA
ATOM     22  H   UNL     1      56.254 242.892 345.151  0.00  0.00    +0.000 HD
ENDBRANCH   8  21
BRANCH   8  23
ATOM     23  C   UNL     1      55.188 245.181 347.053  0.00  0.00    +0.000 C 
BRANCH  23  24
ATOM     24  O   UNL     1      55.054 246.432 347.496  0.00  0.00    +0.000 OA
ATOM     25  H   UNL     1      55.813 246.687 348.051  0.00  0.00    +0.000 HD
ENDBRANCH  23  24
ENDBRANCH   8  23
TORSDOF 3
ENDMDL
MODEL 5
REMARK VINA RESULT:      -4.9      5.237      7.618
REMARK  Name = 114778_Kahweol.pdbqt.pdb
REMARK  3 active torsions:
REMARK  status: ('A' for Active; 'I' for Inactive)
REMARK    1  A    between atoms: C_8  and  O_21
REMARK    2  A    between atoms: C_8  and  C_23
REMARK    3  A    between atoms: C_23  and  O_24
REMARK                            x       y       z     vdW  Elec       q    Type
REMARK                         _______ _______ _______ _____ _____    ______ ____
ROOT
ATOM      1  O   UNL     1      58.834 229.363 319.595  0.00  0.00    +0.000 OA
ATOM      2  C   UNL     1      62.709 226.256 323.409  0.00  0.00    +0.000 C 
ATOM      3  C   UNL     1      62.238 227.774 323.481  0.00  0.00    +0.000 C 
ATOM      4  C   UNL     1      63.403 226.175 325.699  0.00  0.00    +0.000 C 
ATOM      5  C   UNL     1      63.888 226.135 324.309  0.00  0.00    +0.000 C 
ATOM      6  C   UNL     1      61.790 225.442 324.234  0.00  0.00    +0.000 C 
ATOM      7  C   UNL     1      62.121 228.649 322.228  0.00  0.00    +0.000 C 
ATOM      8  C   UNL     1      62.161 225.192 325.641  0.00  0.00    +0.000 C 
ATOM      9  C   UNL     1      62.832 225.862 322.030  0.00  0.00    +0.000 C 
ATOM     10  C   UNL     1      62.410 228.328 324.815  0.00  0.00    +0.000 C 
ATOM     11  C   UNL     1      63.057 227.561 325.975  0.00  0.00    +0.000 C 
ATOM     12  C   UNL     1      61.893 227.852 320.830  0.00  0.00    +0.000 C 
ATOM     13  C   UNL     1      62.448 226.554 320.761  0.00  0.00    +0.000 C 
ATOM     14  C   UNL     1      63.439 229.472 322.054  0.00  0.00    +0.000 C 
ATOM     15  C   UNL     1      60.940 229.545 322.367  0.00  0.00    +0.000 C 
ATOM     16  C   UNL     1      60.751 228.226 320.026  0.00  0.00    +0.000 A 
ATOM     17  C   UNL     1      59.988 229.822 321.694  0.00  0.00    +0.000 C 
ATOM     18  C   UNL     1      59.847 229.175 320.453  0.00  0.00    +0.000 A 
ATOM     19  C   UNL     1      60.252 227.782 318.785  0.00  0.00    +0.000 A 
ATOM     20  C   UNL     1      59.090 228.507 318.553  0.00  0.00    +0.000 A 
ENDROOT
BRANCH   8  21
ATOM     21  O   UNL     1      62.592 223.849 325.780  0.00  0.00    +0.000 OA
ATOM     22  H   UNL     1      62.109 223.344 325.105  0.00  0.00    +0.000 HD
ENDBRANCH   8  21
BRANCH   8  23
ATOM     23  C   UNL     1      61.117 225.481 326.632  0.00  0.00    +0.000 C 
BRANCH  23  24
ATOM     24  O   UNL     1      60.179 225.736 327.545  0.00  0.00    +0.000 OA
ATOM     25  H   UNL     1      60.085 226.695 327.688  0.00  0.00    +0.000 HD
ENDBRANCH  23  24
ENDBRANCH   8  23
TORSDOF 3
ENDMDL
MODEL 6
REMARK VINA RESULT:      -4.9     22.583     26.528
REMARK  Name = 114778_Kahweol.pdbqt.pdb
REMARK  3 active torsions:
REMARK  status: ('A' for Active; 'I' for Inactive)
REMARK    1  A    between atoms: C_8  and  O_21
REMARK    2  A    between atoms: C_8  and  C_23
REMARK    3  A    between atoms: C_23  and  O_24
REMARK                            x       y       z     vdW  Elec       q    Type
REMARK                         _______ _______ _______ _____ _____    ______ ____
ROOT
ATOM      1  O   UNL     1      64.627 246.377 339.772  0.00  0.00    +0.000 OA
ATOM      2  C   UNL     1      65.617 245.568 333.642  0.00  0.00    +0.000 C 
ATOM      3  C   UNL     1      66.384 244.917 334.874  0.00  0.00    +0.000 C 
ATOM      4  C   UNL     1      66.359 243.917 332.075  0.00  0.00    +0.000 C 
ATOM      5  C   UNL     1      66.468 245.338 332.443  0.00  0.00    +0.000 C 
ATOM      6  C   UNL     1      64.521 244.658 333.241  0.00  0.00    +0.000 C 
ATOM      7  C   UNL     1      66.750 245.726 336.123  0.00  0.00    +0.000 C 
ATOM      8  C   UNL     1      64.796 243.670 332.179  0.00  0.00    +0.000 C 
ATOM      9  C   UNL     1      65.225 246.911 333.983  0.00  0.00    +0.000 C 
ATOM     10  C   UNL     1      67.084 243.701 334.490  0.00  0.00    +0.000 C 
ATOM     11  C   UNL     1      67.147 243.177 333.050  0.00  0.00    +0.000 C 
ATOM     12  C   UNL     1      65.828 247.033 336.413  0.00  0.00    +0.000 C 
ATOM     13  C   UNL     1      65.275 247.663 335.274  0.00  0.00    +0.000 C 
ATOM     14  C   UNL     1      68.217 246.246 335.984  0.00  0.00    +0.000 C 
ATOM     15  C   UNL     1      66.595 244.863 337.327  0.00  0.00    +0.000 C 
ATOM     16  C   UNL     1      65.195 247.133 337.708  0.00  0.00    +0.000 A 
ATOM     17  C   UNL     1      66.043 244.957 338.386  0.00  0.00    +0.000 C 
ATOM     18  C   UNL     1      65.310 246.128 338.646  0.00  0.00    +0.000 A 
ATOM     19  C   UNL     1      64.361 248.096 338.309  0.00  0.00    +0.000 A 
ATOM     20  C   UNL     1      64.046 247.604 339.569  0.00  0.00    +0.000 A 
ENDROOT
BRANCH   8  21
ATOM     21  O   UNL     1      64.156 244.077 330.982  0.00  0.00    +0.000 OA
ATOM     22  H   UNL     1      63.262 244.356 331.241  0.00  0.00    +0.000 HD
ENDBRANCH   8  21
BRANCH   8  23
ATOM     23  C   UNL     1      64.424 242.284 332.492  0.00  0.00    +0.000 C 
BRANCH  23  24
ATOM     24  O   UNL     1      64.085 241.031 332.794  0.00  0.00    +0.000 OA
ATOM     25  H   UNL     1      63.537 240.640 332.091  0.00  0.00    +0.000 HD
ENDBRANCH  23  24
ENDBRANCH   8  23
TORSDOF 3
ENDMDL
MODEL 7
REMARK VINA RESULT:      -4.8     21.640     24.065
REMARK  Name = 114778_Kahweol.pdbqt.pdb
REMARK  3 active torsions:
REMARK  status: ('A' for Active; 'I' for Inactive)
REMARK    1  A    between atoms: C_8  and  O_21
REMARK    2  A    between atoms: C_8  and  C_23
REMARK    3  A    between atoms: C_23  and  O_24
REMARK                            x       y       z     vdW  Elec       q    Type
REMARK                         _______ _______ _______ _____ _____    ______ ____
ROOT
ATOM      1  O   UNL     1      54.178 243.361 321.223  0.00  0.00    +0.000 OA
ATOM      2  C   UNL     1      50.884 244.852 326.336  0.00  0.00    +0.000 C 
ATOM      3  C   UNL     1      52.408 245.160 326.003  0.00  0.00    +0.000 C 
ATOM      4  C   UNL     1      50.723 246.543 328.022  0.00  0.00    +0.000 C 
ATOM      5  C   UNL     1      50.712 245.089 327.795  0.00  0.00    +0.000 C 
ATOM      6  C   UNL     1      50.067 246.001 325.887  0.00  0.00    +0.000 C 
ATOM      7  C   UNL     1      53.320 244.123 325.338  0.00  0.00    +0.000 C 
ATOM      8  C   UNL     1      49.769 247.063 326.868  0.00  0.00    +0.000 C 
ATOM      9  C   UNL     1      50.526 243.572 325.781  0.00  0.00    +0.000 C 
ATOM     10  C   UNL     1      52.921 246.264 326.799  0.00  0.00    +0.000 C 
ATOM     11  C   UNL     1      52.108 246.971 327.891  0.00  0.00    +0.000 C 
ATOM     12  C   UNL     1      52.569 242.986 324.452  0.00  0.00    +0.000 C 
ATOM     13  C   UNL     1      51.262 242.645 324.868  0.00  0.00    +0.000 C 
ATOM     14  C   UNL     1      54.120 243.361 326.444  0.00  0.00    +0.000 C 
ATOM     15  C   UNL     1      54.237 244.816 324.390  0.00  0.00    +0.000 C 
ATOM     16  C   UNL     1      52.989 242.821 323.080  0.00  0.00    +0.000 A 
ATOM     17  C   UNL     1      54.553 244.675 323.243  0.00  0.00    +0.000 C 
ATOM     18  C   UNL     1      53.944 243.638 322.514  0.00  0.00    +0.000 A 
ATOM     19  C   UNL     1      52.591 241.955 322.041  0.00  0.00    +0.000 A 
ATOM     20  C   UNL     1      53.346 242.309 320.931  0.00  0.00    +0.000 A 
ENDROOT
BRANCH   8  21
ATOM     21  O   UNL     1      48.414 246.963 327.271  0.00  0.00    +0.000 OA
ATOM     22  H   UNL     1      47.963 246.471 326.565  0.00  0.00    +0.000 HD
ENDBRANCH   8  21
BRANCH   8  23
ATOM     23  C   UNL     1      50.052 248.434 326.423  0.00  0.00    +0.000 C 
BRANCH  23  24
ATOM     24  O   UNL     1      50.327 249.676 326.024  0.00  0.00    +0.000 OA
ATOM     25  H   UNL     1      50.847 250.150 326.697  0.00  0.00    +0.000 HD
ENDBRANCH  23  24
ENDBRANCH   8  23
TORSDOF 3
ENDMDL
MODEL 8
REMARK VINA RESULT:      -4.6     16.264     19.939
REMARK  Name = 114778_Kahweol.pdbqt.pdb
REMARK  3 active torsions:
REMARK  status: ('A' for Active; 'I' for Inactive)
REMARK    1  A    between atoms: C_8  and  O_21
REMARK    2  A    between atoms: C_8  and  C_23
REMARK    3  A    between atoms: C_23  and  O_24
REMARK                            x       y       z     vdW  Elec       q    Type
REMARK                         _______ _______ _______ _____ _____    ______ ____
ROOT
ATOM      1  O   UNL     1      76.281 219.316 340.874  0.00  0.00    +0.000 OA
ATOM      2  C   UNL     1      70.723 221.898 339.589  0.00  0.00    +0.000 C 
ATOM      3  C   UNL     1      72.158 222.274 339.015  0.00  0.00    +0.000 C 
ATOM      4  C   UNL     1      69.531 222.968 337.810  0.00  0.00    +0.000 C 
ATOM      5  C   UNL     1      69.820 223.032 339.253  0.00  0.00    +0.000 C 
ATOM      6  C   UNL     1      70.098 220.915 338.677  0.00  0.00    +0.000 C 
ATOM      7  C   UNL     1      73.403 222.320 339.907  0.00  0.00    +0.000 C 
ATOM      8  C   UNL     1      69.218 221.428 337.607  0.00  0.00    +0.000 C 
ATOM      9  C   UNL     1      70.855 221.485 340.962  0.00  0.00    +0.000 C 
ATOM     10  C   UNL     1      72.061 223.002 337.759  0.00  0.00    +0.000 C 
ATOM     11  C   UNL     1      70.730 223.431 337.128  0.00  0.00    +0.000 C 
ATOM     12  C   UNL     1      73.343 221.410 341.252  0.00  0.00    +0.000 C 
ATOM     13  C   UNL     1      72.059 221.213 341.807  0.00  0.00    +0.000 C 
ATOM     14  C   UNL     1      73.637 223.791 340.382  0.00  0.00    +0.000 C 
ATOM     15  C   UNL     1      74.572 221.809 339.139  0.00  0.00    +0.000 C 
ATOM     16  C   UNL     1      74.407 220.454 341.461  0.00  0.00    +0.000 A 
ATOM     17  C   UNL     1      75.432 220.995 339.323  0.00  0.00    +0.000 C 
ATOM     18  C   UNL     1      75.404 220.268 340.526  0.00  0.00    +0.000 A 
ATOM     19  C   UNL     1      74.692 219.528 342.485  0.00  0.00    +0.000 A 
ATOM     20  C   UNL     1      75.847 218.863 342.094  0.00  0.00    +0.000 A 
ENDROOT
BRANCH   8  21
ATOM     21  O   UNL     1      67.868 221.154 337.938  0.00  0.00    +0.000 OA
ATOM     22  H   UNL     1      67.332 221.633 337.285  0.00  0.00    +0.000 HD
ENDBRANCH   8  21
BRANCH   8  23
ATOM     23  C   UNL     1      69.508 220.927 336.257  0.00  0.00    +0.000 C 
BRANCH  23  24
ATOM     24  O   UNL     1      69.777 220.458 335.038  0.00  0.00    +0.000 OA
ATOM     25  H   UNL     1      70.675 220.084 335.000  0.00  0.00    +0.000 HD
ENDBRANCH  23  24
ENDBRANCH   8  23
TORSDOF 3
ENDMDL
MODEL 9
REMARK VINA RESULT:      -4.6     12.260     13.853
REMARK  Name = 114778_Kahweol.pdbqt.pdb
REMARK  3 active torsions:
REMARK  status: ('A' for Active; 'I' for Inactive)
REMARK    1  A    between atoms: C_8  and  O_21
REMARK    2  A    between atoms: C_8  and  C_23
REMARK    3  A    between atoms: C_23  and  O_24
REMARK                            x       y       z     vdW  Elec       q    Type
REMARK                         _______ _______ _______ _____ _____    ______ ____
ROOT
ATOM      1  O   UNL     1      47.089 224.192 327.537  0.00  0.00    +0.000 OA
ATOM      2  C   UNL     1      47.928 220.277 332.353  0.00  0.00    +0.000 C 
ATOM      3  C   UNL     1      46.962 220.127 331.097  0.00  0.00    +0.000 C 
ATOM      4  C   UNL     1      47.894 217.944 332.886  0.00  0.00    +0.000 C 
ATOM      5  C   UNL     1      47.478 219.275 333.357  0.00  0.00    +0.000 C 
ATOM      6  C   UNL     1      49.215 219.621 332.033  0.00  0.00    +0.000 C 
ATOM      7  C   UNL     1      46.156 221.308 330.547  0.00  0.00    +0.000 C 
ATOM      8  C   UNL     1      49.388 218.209 332.430  0.00  0.00    +0.000 C 
ATOM      9  C   UNL     1      48.007 221.665 332.727  0.00  0.00    +0.000 C 
ATOM     10  C   UNL     1      46.582 218.741 330.874  0.00  0.00    +0.000 C 
ATOM     11  C   UNL     1      46.991 217.589 331.800  0.00  0.00    +0.000 C 
ATOM     12  C   UNL     1      46.758 222.784 330.864  0.00  0.00    +0.000 C 
ATOM     13  C   UNL     1      47.498 222.904 332.062  0.00  0.00    +0.000 C 
ATOM     14  C   UNL     1      44.720 221.278 331.165  0.00  0.00    +0.000 C 
ATOM     15  C   UNL     1      46.106 221.216 329.062  0.00  0.00    +0.000 C 
ATOM     16  C   UNL     1      46.994 223.666 329.744  0.00  0.00    +0.000 A 
ATOM     17  C   UNL     1      46.330 221.956 328.146  0.00  0.00    +0.000 C 
ATOM     18  C   UNL     1      46.782 223.254 328.445  0.00  0.00    +0.000 A 
ATOM     19  C   UNL     1      47.481 224.984 329.632  0.00  0.00    +0.000 A 
ATOM     20  C   UNL     1      47.513 225.270 328.273  0.00  0.00    +0.000 A 
ENDROOT
BRANCH   8  21
ATOM     21  O   UNL     1      50.260 218.139 333.545  0.00  0.00    +0.000 OA
ATOM     22  H   UNL     1      49.929 218.795 334.182  0.00  0.00    +0.000 HD
ENDBRANCH   8  21
BRANCH   8  23
ATOM     23  C   UNL     1      49.865 217.308 331.372  0.00  0.00    +0.000 C 
BRANCH  23  24
ATOM     24  O   UNL     1      50.302 216.505 330.402  0.00  0.00    +0.000 OA
ATOM     25  H   UNL     1      50.628 215.663 330.768  0.00  0.00    +0.000 HD
ENDBRANCH  23  24
ENDBRANCH   8  23
TORSDOF 3
ENDMDL
