MODEL 1
REMARK VINA RESULT:      -3.5      0.000      0.000
REMARK  Name = 1174_Uracil.pdbqt.pdb
REMARK  0 active torsions:
REMARK  status: ('A' for Active; 'I' for Inactive)
REMARK                            x       y       z     vdW  Elec       q    Type
REMARK                         _______ _______ _______ _____ _____    ______ ____
ROOT
ATOM      1  O   UNL     1      54.089 242.777 345.561  0.00  0.00    +0.000 OA
ATOM      2  O   UNL     1      56.829 240.846 348.761  0.00  0.00    +0.000 OA
ATOM      3  N   UNL     1      55.502 241.866 347.148  0.00  0.00    +0.000 N 
ATOM      4  N   UNL     1      53.466 240.826 346.630  0.00  0.00    +0.000 N 
ATOM      5  C   UNL     1      54.330 241.896 346.377  0.00  0.00    +0.000 A 
ATOM      6  C   UNL     1      55.812 240.882 348.085  0.00  0.00    +0.000 A 
ATOM      7  C   UNL     1      53.780 239.886 347.537  0.00  0.00    +0.000 A 
ATOM      8  C   UNL     1      54.783 239.880 348.182  0.00  0.00    +0.000 A 
ATOM      9  H   UNL     1      56.167 242.610 347.013  0.00  0.00    +0.000 HD
ATOM     10  H   UNL     1      52.598 240.776 346.113  0.00  0.00    +0.000 HD
ENDROOT
TORSDOF 0
ENDMDL
MODEL 2
REMARK VINA RESULT:      -3.0     13.121     13.706
REMARK  Name = 1174_Uracil.pdbqt.pdb
REMARK  0 active torsions:
REMARK  status: ('A' for Active; 'I' for Inactive)
REMARK                            x       y       z     vdW  Elec       q    Type
REMARK                         _______ _______ _______ _____ _____    ______ ____
ROOT
ATOM      1  O   UNL     1      66.250 237.132 341.676  0.00  0.00    +0.000 OA
ATOM      2  O   UNL     1      68.162 234.140 344.654  0.00  0.00    +0.000 OA
ATOM      3  N   UNL     1      67.261 235.680 343.163  0.00  0.00    +0.000 N 
ATOM      4  N   UNL     1      65.092 235.260 342.380  0.00  0.00    +0.000 N 
ATOM      5  C   UNL     1      66.203 236.110 342.349  0.00  0.00    +0.000 A 
ATOM      6  C   UNL     1      67.246 234.525 343.943  0.00  0.00    +0.000 A 
ATOM      7  C   UNL     1      65.094 234.150 343.137  0.00  0.00    +0.000 A 
ATOM      8  C   UNL     1      66.006 233.803 343.822  0.00  0.00    +0.000 A 
ATOM      9  H   UNL     1      68.091 236.249 343.186  0.00  0.00    +0.000 HD
ATOM     10  H   UNL     1      64.286 235.502 341.818  0.00  0.00    +0.000 HD
ENDROOT
TORSDOF 0
ENDMDL
MODEL 3
REMARK VINA RESULT:      -3.0     24.540     25.046
REMARK  Name = 1174_Uracil.pdbqt.pdb
REMARK  0 active torsions:
REMARK  status: ('A' for Active; 'I' for Inactive)
REMARK                            x       y       z     vdW  Elec       q    Type
REMARK                         _______ _______ _______ _____ _____    ______ ____
ROOT
ATOM      1  O   UNL     1      60.246 217.918 336.066  0.00  0.00    +0.000 OA
ATOM      2  O   UNL     1      57.035 218.610 339.335  0.00  0.00    +0.000 OA
ATOM      3  N   UNL     1      58.689 218.238 337.744  0.00  0.00    +0.000 N 
ATOM      4  N   UNL     1      58.183 218.809 335.529  0.00  0.00    +0.000 N 
ATOM      5  C   UNL     1      59.133 218.291 336.415  0.00  0.00    +0.000 A 
ATOM      6  C   UNL     1      57.432 218.652 338.181  0.00  0.00    +0.000 A 
ATOM      7  C   UNL     1      56.975 219.204 335.965  0.00  0.00    +0.000 A 
ATOM      8  C   UNL     1      56.619 219.150 337.101  0.00  0.00    +0.000 A 
ATOM      9  H   UNL     1      59.327 217.875 338.434  0.00  0.00    +0.000 HD
ATOM     10  H   UNL     1      58.427 218.879 334.549  0.00  0.00    +0.000 HD
ENDROOT
TORSDOF 0
ENDMDL
MODEL 4
REMARK VINA RESULT:      -2.9     26.300     27.101
REMARK  Name = 1174_Uracil.pdbqt.pdb
REMARK  0 active torsions:
REMARK  status: ('A' for Active; 'I' for Inactive)
REMARK                            x       y       z     vdW  Elec       q    Type
REMARK                         _______ _______ _______ _____ _____    ______ ____
ROOT
ATOM      1  O   UNL     1      65.300 239.685 320.927  0.00  0.00    +0.000 OA
ATOM      2  O   UNL     1      62.797 242.186 323.920  0.00  0.00    +0.000 OA
ATOM      3  N   UNL     1      64.096 240.913 322.471  0.00  0.00    +0.000 N 
ATOM      4  N   UNL     1      63.439 240.859 320.222  0.00  0.00    +0.000 N 
ATOM      5  C   UNL     1      64.357 240.423 321.183  0.00  0.00    +0.000 A 
ATOM      6  C   UNL     1      63.035 241.754 322.802  0.00  0.00    +0.000 A 
ATOM      7  C   UNL     1      62.421 241.670 320.558  0.00  0.00    +0.000 A 
ATOM      8  C   UNL     1      62.218 242.075 321.661  0.00  0.00    +0.000 A 
ATOM      9  H   UNL     1      64.721 240.636 323.210  0.00  0.00    +0.000 HD
ATOM     10  H   UNL     1      63.559 240.549 319.266  0.00  0.00    +0.000 HD
ENDROOT
TORSDOF 0
ENDMDL
MODEL 5
REMARK VINA RESULT:      -2.9     27.635     27.962
REMARK  Name = 1174_Uracil.pdbqt.pdb
REMARK  0 active torsions:
REMARK  status: ('A' for Active; 'I' for Inactive)
REMARK                            x       y       z     vdW  Elec       q    Type
REMARK                         _______ _______ _______ _____ _____    ______ ____
ROOT
ATOM      1  O   UNL     1      59.929 224.108 323.954  0.00  0.00    +0.000 OA
ATOM      2  O   UNL     1      58.486 221.176 327.239  0.00  0.00    +0.000 OA
ATOM      3  N   UNL     1      59.222 222.592 325.549  0.00  0.00    +0.000 N 
ATOM      4  N   UNL     1      59.212 224.891 326.006  0.00  0.00    +0.000 N 
ATOM      5  C   UNL     1      59.492 223.885 325.075  0.00  0.00    +0.000 A 
ATOM      6  C   UNL     1      58.724 222.297 326.816  0.00  0.00    +0.000 A 
ATOM      7  C   UNL     1      58.732 224.589 327.224  0.00  0.00    +0.000 A 
ATOM      8  C   UNL     1      58.511 223.482 327.606  0.00  0.00    +0.000 A 
ATOM      9  H   UNL     1      59.402 221.822 324.926  0.00  0.00    +0.000 HD
ATOM     10  H   UNL     1      59.380 225.853 325.739  0.00  0.00    +0.000 HD
ENDROOT
TORSDOF 0
ENDMDL
MODEL 6
REMARK VINA RESULT:      -2.8     26.041     26.320
REMARK  Name = 1174_Uracil.pdbqt.pdb
REMARK  0 active torsions:
REMARK  status: ('A' for Active; 'I' for Inactive)
REMARK                            x       y       z     vdW  Elec       q    Type
REMARK                         _______ _______ _______ _____ _____    ______ ____
ROOT
ATOM      1  O   UNL     1      71.346 222.898 336.410  0.00  0.00    +0.000 OA
ATOM      2  O   UNL     1      69.440 220.357 339.784  0.00  0.00    +0.000 OA
ATOM      3  N   UNL     1      70.365 221.591 338.044  0.00  0.00    +0.000 N 
ATOM      4  N   UNL     1      71.760 223.380 338.631  0.00  0.00    +0.000 N 
ATOM      5  C   UNL     1      71.173 222.646 337.595  0.00  0.00    +0.000 A 
ATOM      6  C   UNL     1      70.142 221.273 339.382  0.00  0.00    +0.000 A 
ATOM      7  C   UNL     1      71.536 223.060 339.917  0.00  0.00    +0.000 A 
ATOM      8  C   UNL     1      70.844 222.158 340.276  0.00  0.00    +0.000 A 
ATOM      9  H   UNL     1      69.912 221.023 337.347  0.00  0.00    +0.000 HD
ATOM     10  H   UNL     1      72.359 224.159 338.389  0.00  0.00    +0.000 HD
ENDROOT
TORSDOF 0
ENDMDL
MODEL 7
REMARK VINA RESULT:      -2.8     12.179     12.794
REMARK  Name = 1174_Uracil.pdbqt.pdb
REMARK  0 active torsions:
REMARK  status: ('A' for Active; 'I' for Inactive)
REMARK                            x       y       z     vdW  Elec       q    Type
REMARK                         _______ _______ _______ _____ _____    ______ ____
ROOT
ATOM      1  O   UNL     1      65.644 239.292 338.059  0.00  0.00    +0.000 OA
ATOM      2  O   UNL     1      62.444 242.180 339.761  0.00  0.00    +0.000 OA
ATOM      3  N   UNL     1      64.005 240.714 338.855  0.00  0.00    +0.000 N 
ATOM      4  N   UNL     1      66.057 240.522 339.971  0.00  0.00    +0.000 N 
ATOM      5  C   UNL     1      65.269 240.107 338.892  0.00  0.00    +0.000 A 
ATOM      6  C   UNL     1      63.542 241.644 339.784  0.00  0.00    +0.000 A 
ATOM      7  C   UNL     1      65.595 241.419 340.858  0.00  0.00    +0.000 A 
ATOM      8  C   UNL     1      64.516 241.923 340.807  0.00  0.00    +0.000 A 
ATOM      9  H   UNL     1      63.388 240.458 338.102  0.00  0.00    +0.000 HD
ATOM     10  H   UNL     1      66.985 240.128 340.068  0.00  0.00    +0.000 HD
ENDROOT
TORSDOF 0
ENDMDL
MODEL 8
REMARK VINA RESULT:      -2.8     26.990     27.534
REMARK  Name = 1174_Uracil.pdbqt.pdb
REMARK  0 active torsions:
REMARK  status: ('A' for Active; 'I' for Inactive)
REMARK                            x       y       z     vdW  Elec       q    Type
REMARK                         _______ _______ _______ _____ _____    ______ ____
ROOT
ATOM      1  O   UNL     1      76.325 225.974 334.526  0.00  0.00    +0.000 OA
ATOM      2  O   UNL     1      76.626 226.489 339.121  0.00  0.00    +0.000 OA
ATOM      3  N   UNL     1      76.545 226.227 336.813  0.00  0.00    +0.000 N 
ATOM      4  N   UNL     1      74.425 226.237 335.814  0.00  0.00    +0.000 N 
ATOM      5  C   UNL     1      75.807 226.133 335.624  0.00  0.00    +0.000 A 
ATOM      6  C   UNL     1      75.993 226.407 338.080  0.00  0.00    +0.000 A 
ATOM      7  C   UNL     1      73.909 226.411 337.042  0.00  0.00    +0.000 A 
ATOM      8  C   UNL     1      74.556 226.488 338.040  0.00  0.00    +0.000 A 
ATOM      9  H   UNL     1      77.547 226.159 336.745  0.00  0.00    +0.000 HD
ATOM     10  H   UNL     1      73.822 226.179 335.003  0.00  0.00    +0.000 HD
ENDROOT
TORSDOF 0
ENDMDL
MODEL 9
REMARK VINA RESULT:      -2.7     17.821     18.641
REMARK  Name = 1174_Uracil.pdbqt.pdb
REMARK  0 active torsions:
REMARK  status: ('A' for Active; 'I' for Inactive)
REMARK                            x       y       z     vdW  Elec       q    Type
REMARK                         _______ _______ _______ _____ _____    ______ ____
ROOT
ATOM      1  O   UNL     1      63.871 242.622 332.546  0.00  0.00    +0.000 OA
ATOM      2  O   UNL     1      65.402 246.863 333.614  0.00  0.00    +0.000 OA
ATOM      3  N   UNL     1      64.634 244.720 333.147  0.00  0.00    +0.000 N 
ATOM      4  N   UNL     1      64.302 244.176 330.892  0.00  0.00    +0.000 N 
ATOM      5  C   UNL     1      64.237 243.744 332.220  0.00  0.00    +0.000 A 
ATOM      6  C   UNL     1      65.056 246.006 332.816  0.00  0.00    +0.000 A 
ATOM      7  C   UNL     1      64.712 245.419 330.589  0.00  0.00    +0.000 A 
ATOM      8  C   UNL     1      65.044 246.233 331.394  0.00  0.00    +0.000 A 
ATOM      9  H   UNL     1      64.610 244.472 334.122  0.00  0.00    +0.000 HD
ATOM     10  H   UNL     1      64.032 243.528 330.162  0.00  0.00    +0.000 HD
ENDROOT
TORSDOF 0
ENDMDL
