MODEL 1
REMARK VINA RESULT:      -4.4      0.000      0.000
REMARK  Name = 122180587_TripolinolateA.pdbqt.pdb
REMARK  9 active torsions:
REMARK  status: ('A' for Active; 'I' for Inactive)
REMARK    1  A    between atoms: C_1  and  O_16
REMARK    2  A    between atoms: C_2  and  O_7
REMARK    3  A    between atoms: C_3  and  C_9
REMARK    4  A    between atoms: C_10  and  C_11
REMARK    5  A    between atoms: C_11  and  O_12
REMARK    6  A    between atoms: O_12  and  C_14
REMARK    7  A    between atoms: O_16  and  C_18
REMARK    8  A    between atoms: C_18  and  C_19
REMARK    9  A    between atoms: C_19  and  C_21
REMARK                            x       y       z     vdW  Elec       q    Type
REMARK                         _______ _______ _______ _____ _____    ______ ____
ROOT
ATOM      1  C   UNL     1      64.456 227.501 351.639  0.00  0.00    +0.000 A 
ATOM      2  C   UNL     1      65.357 227.044 352.606  0.00  0.00    +0.000 A 
ATOM      3  C   UNL     1      66.873 226.422 350.817  0.00  0.00    +0.000 A 
ATOM      4  C   UNL     1      64.735 227.395 350.275  0.00  0.00    +0.000 A 
ATOM      5  C   UNL     1      66.574 226.508 352.177  0.00  0.00    +0.000 A 
ATOM      6  C   UNL     1      65.954 226.862 349.867  0.00  0.00    +0.000 A 
ENDROOT
BRANCH   2   7
ATOM      7  O   UNL     1      64.972 227.138 353.920  0.00  0.00    +0.000 OA
ATOM      8  C   UNL     1      65.086 225.962 354.671  0.00  0.00    +0.000 C 
ENDBRANCH   2   7
BRANCH   3   9
ATOM      9  C   UNL     1      68.122 225.877 350.399  0.00  0.00    +0.000 C 
ATOM     10  C   UNL     1      69.174 225.417 350.044  0.00  0.00    +0.000 C 
BRANCH  10  11
ATOM     11  C   UNL     1      70.514 224.830 349.589  0.00  0.00    +0.000 C 
BRANCH  11  12
ATOM     12  O   UNL     1      71.678 224.321 349.194  0.00  0.00    +0.000 OA
BRANCH  12  14
ATOM     13  O   UNL     1      72.255 222.613 350.683  0.00  0.00    +0.000 OA
ATOM     14  C   UNL     1      71.919 223.060 349.601  0.00  0.00    +0.000 C 
ATOM     15  C   UNL     1      71.743 222.025 348.541  0.00  0.00    +0.000 C 
ENDBRANCH  12  14
ENDBRANCH  11  12
ENDBRANCH  10  11
ENDBRANCH   3   9
BRANCH   1  16
ATOM     16  O   UNL     1      63.205 227.997 352.030  0.00  0.00    +0.000 OA
BRANCH  16  18
ATOM     17  O   UNL     1      63.704 230.192 352.614  0.00  0.00    +0.000 OA
ATOM     18  C   UNL     1      63.102 229.378 351.925  0.00  0.00    +0.000 C 
BRANCH  18  19
ATOM     19  C   UNL     1      62.137 229.751 350.860  0.00  0.00    +0.000 C 
ATOM     20  C   UNL     1      60.638 229.879 351.094  0.00  0.00    +0.000 C 
BRANCH  19  21
ATOM     21  C   UNL     1      62.621 230.011 349.551  0.00  0.00    +0.000 C 
ATOM     22  C   UNL     1      63.151 230.285 348.131  0.00  0.00    +0.000 C 
ENDBRANCH  19  21
ENDBRANCH  18  19
ENDBRANCH  16  18
ENDBRANCH   1  16
TORSDOF 9
ENDMDL
MODEL 2
REMARK VINA RESULT:      -4.4     31.624     34.085
REMARK  Name = 122180587_TripolinolateA.pdbqt.pdb
REMARK  9 active torsions:
REMARK  status: ('A' for Active; 'I' for Inactive)
REMARK    1  A    between atoms: C_1  and  O_16
REMARK    2  A    between atoms: C_2  and  O_7
REMARK    3  A    between atoms: C_3  and  C_9
REMARK    4  A    between atoms: C_10  and  C_11
REMARK    5  A    between atoms: C_11  and  O_12
REMARK    6  A    between atoms: O_12  and  C_14
REMARK    7  A    between atoms: O_16  and  C_18
REMARK    8  A    between atoms: C_18  and  C_19
REMARK    9  A    between atoms: C_19  and  C_21
REMARK                            x       y       z     vdW  Elec       q    Type
REMARK                         _______ _______ _______ _____ _____    ______ ____
ROOT
ATOM      1  C   UNL     1      51.380 242.105 326.012  0.00  0.00    +0.000 A 
ATOM      2  C   UNL     1      52.328 242.847 326.725  0.00  0.00    +0.000 A 
ATOM      3  C   UNL     1      53.124 243.746 324.617  0.00  0.00    +0.000 A 
ATOM      4  C   UNL     1      51.316 242.151 324.618  0.00  0.00    +0.000 A 
ATOM      5  C   UNL     1      53.197 243.674 326.008  0.00  0.00    +0.000 A 
ATOM      6  C   UNL     1      52.187 242.983 323.922  0.00  0.00    +0.000 A 
ENDROOT
BRANCH   2   7
ATOM      7  O   UNL     1      52.351 242.694 328.088  0.00  0.00    +0.000 OA
ATOM      8  C   UNL     1      51.794 243.747 328.826  0.00  0.00    +0.000 C 
ENDBRANCH   2   7
BRANCH   3   9
ATOM      9  C   UNL     1      54.016 244.599 323.904  0.00  0.00    +0.000 C 
ATOM     10  C   UNL     1      54.767 245.319 323.303  0.00  0.00    +0.000 C 
BRANCH  10  11
ATOM     11  C   UNL     1      55.721 246.240 322.536  0.00  0.00    +0.000 C 
BRANCH  11  12
ATOM     12  O   UNL     1      56.549 247.040 321.868  0.00  0.00    +0.000 OA
BRANCH  12  14
ATOM     13  O   UNL     1      57.483 245.260 320.672  0.00  0.00    +0.000 OA
ATOM     14  C   UNL     1      57.437 246.408 321.074  0.00  0.00    +0.000 C 
ATOM     15  C   UNL     1      58.563 247.266 320.604  0.00  0.00    +0.000 C 
ENDBRANCH  12  14
ENDBRANCH  11  12
ENDBRANCH  10  11
ENDBRANCH   3   9
BRANCH   1  16
ATOM     16  O   UNL     1      50.526 241.227 326.693  0.00  0.00    +0.000 OA
BRANCH  16  18
ATOM     17  O   UNL     1      48.841 242.783 327.075  0.00  0.00    +0.000 OA
ATOM     18  C   UNL     1      49.208 241.664 326.741  0.00  0.00    +0.000 C 
BRANCH  18  19
ATOM     19  C   UNL     1      48.281 240.575 326.344  0.00  0.00    +0.000 C 
ATOM     20  C   UNL     1      46.765 240.696 326.420  0.00  0.00    +0.000 C 
BRANCH  19  21
ATOM     21  C   UNL     1      48.819 239.354 325.860  0.00  0.00    +0.000 C 
ATOM     22  C   UNL     1      49.410 238.031 325.338  0.00  0.00    +0.000 C 
ENDBRANCH  19  21
ENDBRANCH  18  19
ENDBRANCH  16  18
ENDBRANCH   1  16
TORSDOF 9
ENDMDL
MODEL 3
REMARK VINA RESULT:      -4.3      4.255      9.567
REMARK  Name = 122180587_TripolinolateA.pdbqt.pdb
REMARK  9 active torsions:
REMARK  status: ('A' for Active; 'I' for Inactive)
REMARK    1  A    between atoms: C_1  and  O_16
REMARK    2  A    between atoms: C_2  and  O_7
REMARK    3  A    between atoms: C_3  and  C_9
REMARK    4  A    between atoms: C_10  and  C_11
REMARK    5  A    between atoms: C_11  and  O_12
REMARK    6  A    between atoms: O_12  and  C_14
REMARK    7  A    between atoms: O_16  and  C_18
REMARK    8  A    between atoms: C_18  and  C_19
REMARK    9  A    between atoms: C_19  and  C_21
REMARK                            x       y       z     vdW  Elec       q    Type
REMARK                         _______ _______ _______ _____ _____    ______ ____
ROOT
ATOM      1  C   UNL     1      64.054 229.543 349.391  0.00  0.00    +0.000 A 
ATOM      2  C   UNL     1      63.993 228.836 350.596  0.00  0.00    +0.000 A 
ATOM      3  C   UNL     1      61.743 229.686 350.915  0.00  0.00    +0.000 A 
ATOM      4  C   UNL     1      62.992 230.340 348.958  0.00  0.00    +0.000 A 
ATOM      5  C   UNL     1      62.819 228.913 351.351  0.00  0.00    +0.000 A 
ATOM      6  C   UNL     1      61.830 230.402 349.722  0.00  0.00    +0.000 A 
ENDROOT
BRANCH   2   7
ATOM      7  O   UNL     1      65.106 228.124 350.965  0.00  0.00    +0.000 OA
ATOM      8  C   UNL     1      65.051 226.745 350.728  0.00  0.00    +0.000 C 
ENDBRANCH   2   7
BRANCH   3   9
ATOM      9  C   UNL     1      60.552 229.749 351.697  0.00  0.00    +0.000 C 
ATOM     10  C   UNL     1      59.548 229.802 352.353  0.00  0.00    +0.000 C 
BRANCH  10  11
ATOM     11  C   UNL     1      58.266 229.873 353.189  0.00  0.00    +0.000 C 
BRANCH  11  12
ATOM     12  O   UNL     1      57.152 229.933 353.915  0.00  0.00    +0.000 OA
BRANCH  12  14
ATOM     13  O   UNL     1      56.096 231.707 352.816  0.00  0.00    +0.000 OA
ATOM     14  C   UNL     1      56.453 231.079 353.796  0.00  0.00    +0.000 C 
ATOM     15  C   UNL     1      56.044 231.688 355.095  0.00  0.00    +0.000 C 
ENDBRANCH  12  14
ENDBRANCH  11  12
ENDBRANCH  10  11
ENDBRANCH   3   9
BRANCH   1  16
ATOM     16  O   UNL     1      65.233 229.530 348.633  0.00  0.00    +0.000 OA
BRANCH  16  18
ATOM     17  O   UNL     1      66.673 230.882 349.861  0.00  0.00    +0.000 OA
ATOM     18  C   UNL     1      66.035 230.645 348.843  0.00  0.00    +0.000 C 
BRANCH  18  19
ATOM     19  C   UNL     1      66.009 231.538 347.658  0.00  0.00    +0.000 C 
ATOM     20  C   UNL     1      66.244 233.041 347.735  0.00  0.00    +0.000 C 
BRANCH  19  21
ATOM     21  C   UNL     1      65.760 230.978 346.377  0.00  0.00    +0.000 C 
ATOM     22  C   UNL     1      65.482 230.366 344.991  0.00  0.00    +0.000 C 
ENDBRANCH  19  21
ENDBRANCH  18  19
ENDBRANCH  16  18
ENDBRANCH   1  16
TORSDOF 9
ENDMDL
MODEL 4
REMARK VINA RESULT:      -4.2     16.231     21.882
REMARK  Name = 122180587_TripolinolateA.pdbqt.pdb
REMARK  9 active torsions:
REMARK  status: ('A' for Active; 'I' for Inactive)
REMARK    1  A    between atoms: C_1  and  O_16
REMARK    2  A    between atoms: C_2  and  O_7
REMARK    3  A    between atoms: C_3  and  C_9
REMARK    4  A    between atoms: C_10  and  C_11
REMARK    5  A    between atoms: C_11  and  O_12
REMARK    6  A    between atoms: O_12  and  C_14
REMARK    7  A    between atoms: O_16  and  C_18
REMARK    8  A    between atoms: C_18  and  C_19
REMARK    9  A    between atoms: C_19  and  C_21
REMARK                            x       y       z     vdW  Elec       q    Type
REMARK                         _______ _______ _______ _____ _____    ______ ____
ROOT
ATOM      1  C   UNL     1      55.366 241.414 347.586  0.00  0.00    +0.000 A 
ATOM      2  C   UNL     1      54.154 240.868 347.151  0.00  0.00    +0.000 A 
ATOM      3  C   UNL     1      53.617 243.008 346.144  0.00  0.00    +0.000 A 
ATOM      4  C   UNL     1      55.697 242.747 347.337  0.00  0.00    +0.000 A 
ATOM      5  C   UNL     1      53.285 241.683 346.421  0.00  0.00    +0.000 A 
ATOM      6  C   UNL     1      54.820 243.542 346.604  0.00  0.00    +0.000 A 
ENDROOT
BRANCH   2   7
ATOM      7  O   UNL     1      53.892 239.565 347.492  0.00  0.00    +0.000 OA
ATOM      8  C   UNL     1      52.540 239.199 347.499  0.00  0.00    +0.000 C 
ENDBRANCH   2   7
BRANCH   3   9
ATOM      9  C   UNL     1      52.720 243.823 345.393  0.00  0.00    +0.000 C 
ATOM     10  C   UNL     1      51.965 244.510 344.759  0.00  0.00    +0.000 C 
BRANCH  10  11
ATOM     11  C   UNL     1      51.005 245.390 343.952  0.00  0.00    +0.000 C 
BRANCH  11  12
ATOM     12  O   UNL     1      50.172 246.153 343.249  0.00  0.00    +0.000 OA
BRANCH  12  14
ATOM     13  O   UNL     1      50.997 245.466 341.172  0.00  0.00    +0.000 OA
ATOM     14  C   UNL     1      50.146 245.903 341.925  0.00  0.00    +0.000 C 
ATOM     15  C   UNL     1      48.847 246.217 341.263  0.00  0.00    +0.000 C 
ENDBRANCH  12  14
ENDBRANCH  11  12
ENDBRANCH  10  11
ENDBRANCH   3   9
BRANCH   1  16
ATOM     16  O   UNL     1      56.239 240.642 348.365  0.00  0.00    +0.000 OA
BRANCH  16  18
ATOM     17  O   UNL     1      55.330 241.218 350.427  0.00  0.00    +0.000 OA
ATOM     18  C   UNL     1      56.295 241.045 349.694  0.00  0.00    +0.000 C 
BRANCH  18  19
ATOM     19  C   UNL     1      57.702 241.259 350.117  0.00  0.00    +0.000 C 
ATOM     20  C   UNL     1      58.635 242.260 349.449  0.00  0.00    +0.000 C 
BRANCH  19  21
ATOM     21  C   UNL     1      58.218 240.503 351.202  0.00  0.00    +0.000 C 
ATOM     22  C   UNL     1      58.779 239.690 352.384  0.00  0.00    +0.000 C 
ENDBRANCH  19  21
ENDBRANCH  18  19
ENDBRANCH  16  18
ENDBRANCH   1  16
TORSDOF 9
ENDMDL
MODEL 5
REMARK VINA RESULT:      -4.2     17.935     20.951
REMARK  Name = 122180587_TripolinolateA.pdbqt.pdb
REMARK  9 active torsions:
REMARK  status: ('A' for Active; 'I' for Inactive)
REMARK    1  A    between atoms: C_1  and  O_16
REMARK    2  A    between atoms: C_2  and  O_7
REMARK    3  A    between atoms: C_3  and  C_9
REMARK    4  A    between atoms: C_10  and  C_11
REMARK    5  A    between atoms: C_11  and  O_12
REMARK    6  A    between atoms: O_12  and  C_14
REMARK    7  A    between atoms: O_16  and  C_18
REMARK    8  A    between atoms: C_18  and  C_19
REMARK    9  A    between atoms: C_19  and  C_21
REMARK                            x       y       z     vdW  Elec       q    Type
REMARK                         _______ _______ _______ _____ _____    ______ ____
ROOT
ATOM      1  C   UNL     1      67.960 237.505 334.987  0.00  0.00    +0.000 A 
ATOM      2  C   UNL     1      68.099 238.835 334.577  0.00  0.00    +0.000 A 
ATOM      3  C   UNL     1      66.963 239.521 336.607  0.00  0.00    +0.000 A 
ATOM      4  C   UNL     1      67.305 237.174 336.175  0.00  0.00    +0.000 A 
ATOM      5  C   UNL     1      67.596 239.841 335.406  0.00  0.00    +0.000 A 
ATOM      6  C   UNL     1      66.814 238.189 336.990  0.00  0.00    +0.000 A 
ENDROOT
BRANCH   2   7
ATOM      7  O   UNL     1      68.708 239.060 333.368  0.00  0.00    +0.000 OA
ATOM      8  C   UNL     1      68.145 240.075 332.584  0.00  0.00    +0.000 C 
ENDBRANCH   2   7
BRANCH   3   9
ATOM      9  C   UNL     1      66.460 240.562 337.443  0.00  0.00    +0.000 C 
ATOM     10  C   UNL     1      66.036 241.437 338.148  0.00  0.00    +0.000 C 
BRANCH  10  11
ATOM     11  C   UNL     1      65.490 242.552 339.045  0.00  0.00    +0.000 C 
BRANCH  11  12
ATOM     12  O   UNL     1      65.018 243.521 339.826  0.00  0.00    +0.000 OA
BRANCH  12  14
ATOM     13  O   UNL     1      62.888 243.636 340.783  0.00  0.00    +0.000 OA
ATOM     14  C   UNL     1      63.998 243.161 340.630  0.00  0.00    +0.000 C 
ATOM     15  C   UNL     1      64.277 241.971 341.484  0.00  0.00    +0.000 C 
ENDBRANCH  12  14
ENDBRANCH  11  12
ENDBRANCH  10  11
ENDBRANCH   3   9
BRANCH   1  16
ATOM     16  O   UNL     1      68.406 236.468 334.157  0.00  0.00    +0.000 OA
BRANCH  16  18
ATOM     17  O   UNL     1      69.126 234.625 335.378  0.00  0.00    +0.000 OA
ATOM     18  C   UNL     1      69.359 235.653 334.755  0.00  0.00    +0.000 C 
BRANCH  18  19
ATOM     19  C   UNL     1      70.721 236.206 334.554  0.00  0.00    +0.000 C 
ATOM     20  C   UNL     1      71.394 237.156 335.535  0.00  0.00    +0.000 C 
BRANCH  19  21
ATOM     21  C   UNL     1      71.451 235.835 333.393  0.00  0.00    +0.000 C 
ATOM     22  C   UNL     1      72.241 235.425 332.137  0.00  0.00    +0.000 C 
ENDBRANCH  19  21
ENDBRANCH  18  19
ENDBRANCH  16  18
ENDBRANCH   1  16
TORSDOF 9
ENDMDL
MODEL 6
REMARK VINA RESULT:      -4.2     32.080     33.840
REMARK  Name = 122180587_TripolinolateA.pdbqt.pdb
REMARK  9 active torsions:
REMARK  status: ('A' for Active; 'I' for Inactive)
REMARK    1  A    between atoms: C_1  and  O_16
REMARK    2  A    between atoms: C_2  and  O_7
REMARK    3  A    between atoms: C_3  and  C_9
REMARK    4  A    between atoms: C_10  and  C_11
REMARK    5  A    between atoms: C_11  and  O_12
REMARK    6  A    between atoms: O_12  and  C_14
REMARK    7  A    between atoms: O_16  and  C_18
REMARK    8  A    between atoms: C_18  and  C_19
REMARK    9  A    between atoms: C_19  and  C_21
REMARK                            x       y       z     vdW  Elec       q    Type
REMARK                         _______ _______ _______ _____ _____    ______ ____
ROOT
ATOM      1  C   UNL     1      51.792 243.479 327.811  0.00  0.00    +0.000 A 
ATOM      2  C   UNL     1      51.677 242.576 326.749  0.00  0.00    +0.000 A 
ATOM      3  C   UNL     1      53.206 243.965 325.478  0.00  0.00    +0.000 A 
ATOM      4  C   UNL     1      52.576 244.630 327.708  0.00  0.00    +0.000 A 
ATOM      5  C   UNL     1      52.400 242.831 325.581  0.00  0.00    +0.000 A 
ATOM      6  C   UNL     1      53.292 244.865 326.538  0.00  0.00    +0.000 A 
ENDROOT
BRANCH   2   7
ATOM      7  O   UNL     1      50.840 241.503 326.924  0.00  0.00    +0.000 OA
ATOM      8  C   UNL     1      49.903 241.293 325.904  0.00  0.00    +0.000 C 
ENDBRANCH   2   7
BRANCH   3   9
ATOM      9  C   UNL     1      53.940 244.206 324.279  0.00  0.00    +0.000 C 
ATOM     10  C   UNL     1      54.560 244.411 323.271  0.00  0.00    +0.000 C 
BRANCH  10  11
ATOM     11  C   UNL     1      55.349 244.676 321.985  0.00  0.00    +0.000 C 
BRANCH  11  12
ATOM     12  O   UNL     1      56.033 244.908 320.867  0.00  0.00    +0.000 OA
BRANCH  12  14
ATOM     13  O   UNL     1      57.146 246.864 321.502  0.00  0.00    +0.000 OA
ATOM     14  C   UNL     1      57.070 245.759 320.997  0.00  0.00    +0.000 C 
ATOM     15  C   UNL     1      58.353 245.261 320.422  0.00  0.00    +0.000 C 
ENDBRANCH  12  14
ENDBRANCH  11  12
ENDBRANCH  10  11
ENDBRANCH   3   9
BRANCH   1  16
ATOM     16  O   UNL     1      51.042 243.282 328.979  0.00  0.00    +0.000 OA
BRANCH  16  18
ATOM     17  O   UNL     1      50.655 245.088 330.392  0.00  0.00    +0.000 OA
ATOM     18  C   UNL     1      50.373 244.423 329.403  0.00  0.00    +0.000 C 
BRANCH  18  19
ATOM     19  C   UNL     1      49.239 244.732 328.497  0.00  0.00    +0.000 C 
ATOM     20  C   UNL     1      48.128 243.741 328.176  0.00  0.00    +0.000 C 
BRANCH  19  21
ATOM     21  C   UNL     1      49.167 246.016 327.895  0.00  0.00    +0.000 C 
ATOM     22  C   UNL     1      49.098 247.409 327.242  0.00  0.00    +0.000 C 
ENDBRANCH  19  21
ENDBRANCH  18  19
ENDBRANCH  16  18
ENDBRANCH   1  16
TORSDOF 9
ENDMDL
MODEL 7
REMARK VINA RESULT:      -4.1      4.435      7.459
REMARK  Name = 122180587_TripolinolateA.pdbqt.pdb
REMARK  9 active torsions:
REMARK  status: ('A' for Active; 'I' for Inactive)
REMARK    1  A    between atoms: C_1  and  O_16
REMARK    2  A    between atoms: C_2  and  O_7
REMARK    3  A    between atoms: C_3  and  C_9
REMARK    4  A    between atoms: C_10  and  C_11
REMARK    5  A    between atoms: C_11  and  O_12
REMARK    6  A    between atoms: O_12  and  C_14
REMARK    7  A    between atoms: O_16  and  C_18
REMARK    8  A    between atoms: C_18  and  C_19
REMARK    9  A    between atoms: C_19  and  C_21
REMARK                            x       y       z     vdW  Elec       q    Type
REMARK                         _______ _______ _______ _____ _____    ______ ____
ROOT
ATOM      1  C   UNL     1      63.971 228.491 350.818  0.00  0.00    +0.000 A 
ATOM      2  C   UNL     1      63.102 229.422 350.239  0.00  0.00    +0.000 A 
ATOM      3  C   UNL     1      64.810 229.904 348.586  0.00  0.00    +0.000 A 
ATOM      4  C   UNL     1      65.257 228.284 350.315  0.00  0.00    +0.000 A 
ATOM      5  C   UNL     1      63.537 230.123 349.111  0.00  0.00    +0.000 A 
ATOM      6  C   UNL     1      65.671 228.989 349.189  0.00  0.00    +0.000 A 
ENDROOT
BRANCH   2   7
ATOM      7  O   UNL     1      61.879 229.597 350.836  0.00  0.00    +0.000 OA
ATOM      8  C   UNL     1      61.051 230.564 350.252  0.00  0.00    +0.000 C 
ENDBRANCH   2   7
BRANCH   3   9
ATOM      9  C   UNL     1      65.235 230.626 347.432  0.00  0.00    +0.000 C 
ATOM     10  C   UNL     1      65.594 231.234 346.460  0.00  0.00    +0.000 C 
BRANCH  10  11
ATOM     11  C   UNL     1      66.049 232.015 345.223  0.00  0.00    +0.000 C 
BRANCH  11  12
ATOM     12  O   UNL     1      66.446 232.692 344.148  0.00  0.00    +0.000 OA
BRANCH  12  14
ATOM     13  O   UNL     1      68.173 234.259 344.317  0.00  0.00    +0.000 OA
ATOM     14  C   UNL     1      67.018 233.885 344.403  0.00  0.00    +0.000 C 
ATOM     15  C   UNL     1      66.069 234.935 344.875  0.00  0.00    +0.000 C 
ENDBRANCH  12  14
ENDBRANCH  11  12
ENDBRANCH  10  11
ENDBRANCH   3   9
BRANCH   1  16
ATOM     16  O   UNL     1      63.588 227.808 351.980  0.00  0.00    +0.000 OA
BRANCH  16  18
ATOM     17  O   UNL     1      63.799 229.263 353.782  0.00  0.00    +0.000 OA
ATOM     18  C   UNL     1      64.188 228.300 353.132  0.00  0.00    +0.000 C 
BRANCH  18  19
ATOM     19  C   UNL     1      65.394 227.506 353.474  0.00  0.00    +0.000 C 
ATOM     20  C   UNL     1      66.714 228.130 353.908  0.00  0.00    +0.000 C 
BRANCH  19  21
ATOM     21  C   UNL     1      65.329 226.090 353.405  0.00  0.00    +0.000 C 
ATOM     22  C   UNL     1      65.254 224.553 353.323  0.00  0.00    +0.000 C 
ENDBRANCH  19  21
ENDBRANCH  18  19
ENDBRANCH  16  18
ENDBRANCH   1  16
TORSDOF 9
ENDMDL
MODEL 8
REMARK VINA RESULT:      -4.0     18.882     21.739
REMARK  Name = 122180587_TripolinolateA.pdbqt.pdb
REMARK  9 active torsions:
REMARK  status: ('A' for Active; 'I' for Inactive)
REMARK    1  A    between atoms: C_1  and  O_16
REMARK    2  A    between atoms: C_2  and  O_7
REMARK    3  A    between atoms: C_3  and  C_9
REMARK    4  A    between atoms: C_10  and  C_11
REMARK    5  A    between atoms: C_11  and  O_12
REMARK    6  A    between atoms: O_12  and  C_14
REMARK    7  A    between atoms: O_16  and  C_18
REMARK    8  A    between atoms: C_18  and  C_19
REMARK    9  A    between atoms: C_19  and  C_21
REMARK                            x       y       z     vdW  Elec       q    Type
REMARK                         _______ _______ _______ _____ _____    ______ ____
ROOT
ATOM      1  C   UNL     1      65.328 219.566 332.879  0.00  0.00    +0.000 A 
ATOM      2  C   UNL     1      64.053 219.052 332.626  0.00  0.00    +0.000 A 
ATOM      3  C   UNL     1      63.774 220.741 330.907  0.00  0.00    +0.000 A 
ATOM      4  C   UNL     1      65.819 220.673 332.183  0.00  0.00    +0.000 A 
ATOM      5  C   UNL     1      63.283 219.651 331.626  0.00  0.00    +0.000 A 
ATOM      6  C   UNL     1      65.039 221.254 331.188  0.00  0.00    +0.000 A 
ENDROOT
BRANCH   2   7
ATOM      7  O   UNL     1      63.635 217.997 333.398  0.00  0.00    +0.000 OA
ATOM      8  C   UNL     1      62.416 217.418 333.026  0.00  0.00    +0.000 C 
ENDBRANCH   2   7
BRANCH   3   9
ATOM      9  C   UNL     1      62.976 221.336 329.886  0.00  0.00    +0.000 C 
ATOM     10  C   UNL     1      62.304 221.839 329.027  0.00  0.00    +0.000 C 
BRANCH  10  11
ATOM     11  C   UNL     1      61.445 222.483 327.934  0.00  0.00    +0.000 C 
BRANCH  11  12
ATOM     12  O   UNL     1      60.698 223.041 326.985  0.00  0.00    +0.000 OA
BRANCH  12  14
ATOM     13  O   UNL     1      58.647 222.063 327.536  0.00  0.00    +0.000 OA
ATOM     14  C   UNL     1      59.368 222.982 327.196  0.00  0.00    +0.000 C 
ATOM     15  C   UNL     1      58.651 224.271 326.975  0.00  0.00    +0.000 C 
ENDBRANCH  12  14
ENDBRANCH  11  12
ENDBRANCH  10  11
ENDBRANCH   3   9
BRANCH   1  16
ATOM     16  O   UNL     1      66.108 219.024 333.910  0.00  0.00    +0.000 OA
BRANCH  16  18
ATOM     17  O   UNL     1      65.148 220.241 335.644  0.00  0.00    +0.000 OA
ATOM     18  C   UNL     1      66.131 219.810 335.055  0.00  0.00    +0.000 C 
BRANCH  18  19
ATOM     19  C   UNL     1      67.529 220.080 335.475  0.00  0.00    +0.000 C 
ATOM     20  C   UNL     1      67.912 220.514 336.884  0.00  0.00    +0.000 C 
BRANCH  19  21
ATOM     21  C   UNL     1      68.575 219.926 334.528  0.00  0.00    +0.000 C 
ATOM     22  C   UNL     1      69.708 219.765 333.496  0.00  0.00    +0.000 C 
ENDBRANCH  19  21
ENDBRANCH  18  19
ENDBRANCH  16  18
ENDBRANCH   1  16
TORSDOF 9
ENDMDL
MODEL 9
REMARK VINA RESULT:      -3.9     30.575     33.208
REMARK  Name = 122180587_TripolinolateA.pdbqt.pdb
REMARK  9 active torsions:
REMARK  status: ('A' for Active; 'I' for Inactive)
REMARK    1  A    between atoms: C_1  and  O_16
REMARK    2  A    between atoms: C_2  and  O_7
REMARK    3  A    between atoms: C_3  and  C_9
REMARK    4  A    between atoms: C_10  and  C_11
REMARK    5  A    between atoms: C_11  and  O_12
REMARK    6  A    between atoms: O_12  and  C_14
REMARK    7  A    between atoms: O_16  and  C_18
REMARK    8  A    between atoms: C_18  and  C_19
REMARK    9  A    between atoms: C_19  and  C_21
REMARK                            x       y       z     vdW  Elec       q    Type
REMARK                         _______ _______ _______ _____ _____    ______ ____
ROOT
ATOM      1  C   UNL     1      57.013 230.507 318.026  0.00  0.00    +0.000 A 
ATOM      2  C   UNL     1      57.551 229.306 318.497  0.00  0.00    +0.000 A 
ATOM      3  C   UNL     1      59.515 230.534 319.217  0.00  0.00    +0.000 A 
ATOM      4  C   UNL     1      57.720 231.708 318.114  0.00  0.00    +0.000 A 
ATOM      5  C   UNL     1      58.811 229.336 319.101  0.00  0.00    +0.000 A 
ATOM      6  C   UNL     1      58.972 231.719 318.722  0.00  0.00    +0.000 A 
ENDROOT
BRANCH   2   7
ATOM      7  O   UNL     1      56.806 228.168 318.316  0.00  0.00    +0.000 OA
ATOM      8  C   UNL     1      56.591 227.394 319.463  0.00  0.00    +0.000 C 
ENDBRANCH   2   7
BRANCH   3   9
ATOM      9  C   UNL     1      60.798 230.547 319.841  0.00  0.00    +0.000 C 
ATOM     10  C   UNL     1      61.879 230.557 320.364  0.00  0.00    +0.000 C 
BRANCH  10  11
ATOM     11  C   UNL     1      63.259 230.570 321.028  0.00  0.00    +0.000 C 
BRANCH  11  12
ATOM     12  O   UNL     1      64.459 230.580 321.603  0.00  0.00    +0.000 OA
BRANCH  12  14
ATOM     13  O   UNL     1      65.953 229.981 319.906  0.00  0.00    +0.000 OA
ATOM     14  C   UNL     1      65.498 230.724 320.756  0.00  0.00    +0.000 C 
ATOM     15  C   UNL     1      66.218 232.024 320.880  0.00  0.00    +0.000 C 
ENDBRANCH  12  14
ENDBRANCH  11  12
ENDBRANCH  10  11
ENDBRANCH   3   9
BRANCH   1  16
ATOM     16  O   UNL     1      55.775 230.506 317.369  0.00  0.00    +0.000 OA
BRANCH  16  18
ATOM     17  O   UNL     1      54.374 230.757 319.208  0.00  0.00    +0.000 OA
ATOM     18  C   UNL     1      54.761 231.111 318.102  0.00  0.00    +0.000 C 
BRANCH  18  19
ATOM     19  C   UNL     1      54.184 232.255 317.352  0.00  0.00    +0.000 C 
ATOM     20  C   UNL     1      53.695 232.153 315.914  0.00  0.00    +0.000 C 
BRANCH  19  21
ATOM     21  C   UNL     1      54.070 233.514 317.997  0.00  0.00    +0.000 C 
ATOM     22  C   UNL     1      53.952 234.879 318.702  0.00  0.00    +0.000 C 
ENDBRANCH  19  21
ENDBRANCH  18  19
ENDBRANCH  16  18
ENDBRANCH   1  16
TORSDOF 9
ENDMDL
