MODEL 1
REMARK VINA RESULT:      -6.3      0.000      0.000
REMARK  Name = 135403648_CalciumFolinate.pdbqt.pdb
REMARK  10 active torsions:
REMARK  status: ('A' for Active; 'I' for Inactive)
REMARK    1  A    between atoms: N_1  and  C_3
REMARK    2  A    between atoms: N_1  and  C_24
REMARK    3  A    between atoms: C_6  and  C_11
REMARK    4  A    between atoms: CA_13  and  C_15
REMARK    5  A    between atoms: CA_13  and  CB_18
REMARK    6  A    between atoms: C_15  and  O_16
REMARK    7  A    between atoms: CG_19  and  CD_21
REMARK    8  A    between atoms: CD_21  and  OE1_22
REMARK    9  A    between atoms: C_24  and  C_32
REMARK   10  A    between atoms: N_27  and  C_37
REMARK                            x       y       z     vdW  Elec       q    Type
REMARK                         _______ _______ _______ _____ _____    ______ ____
ROOT
ATOM      1  N   UNL     1      73.726 220.568 344.602  0.00  0.00    +0.000 N 
ATOM      2  H   UNL     1      74.429 219.832 344.551  0.00  0.00    +0.000 HD
ENDROOT
BRANCH   1   3
ATOM      3  C   UNL     1      72.855 220.550 343.493  0.00  0.00    +0.000 A 
ATOM      4  C   UNL     1      73.299 221.062 342.270  0.00  0.00    +0.000 A 
ATOM      5  C   UNL     1      71.503 220.206 343.612  0.00  0.00    +0.000 A 
ATOM      6  C   UNL     1      71.108 220.770 341.296  0.00  0.00    +0.000 A 
ATOM      7  C   UNL     1      72.440 221.157 341.175  0.00  0.00    +0.000 A 
ATOM      8  C   UNL     1      70.639 220.297 342.523  0.00  0.00    +0.000 A 
BRANCH   6  11
ATOM      9  O   UNL     1      69.270 220.008 340.076  0.00  0.00    +0.000 OA
ATOM     10  N   UNL     1      70.360 221.885 339.267  0.00  0.00    +0.000 N 
ATOM     11  C   ACE A   0      70.158 220.848 340.159  0.00  0.00    +0.000 C 
ATOM     12  H   UNL     1      71.130 222.531 339.419  0.00  0.00    +0.000 HD
ATOM     13  CA  UNL     1      69.617 222.168 338.135  0.00  0.00    +0.000 C 
BRANCH  13  15
ATOM     14  OXT UNL     1      71.099 223.385 336.708  0.00  0.00    +0.000 OA
ATOM     15  C   UNL     1      70.060 223.346 337.350  0.00  0.00    +0.000 C 
BRANCH  15  16
ATOM     16  O   UNL     1      69.216 224.388 337.398  0.00  0.00    +0.000 OA
ATOM     17  H   UNL     1      68.941 224.531 336.468  0.00  0.00    +0.000 HD
ENDBRANCH  15  16
ENDBRANCH  13  15
BRANCH  13  18
ATOM     18  CB  UNL     1      68.499 221.383 337.745  0.00  0.00    +0.000 C 
ATOM     19  CG  UNL     1      67.288 220.545 337.320  0.00  0.00    +0.000 C 
BRANCH  19  21
ATOM     20  OE2 UNL     1      65.517 219.999 335.896  0.00  0.00    +0.000 OA
ATOM     21  CD  UNL     1      66.150 219.778 336.913  0.00  0.00    +0.000 C 
BRANCH  21  22
ATOM     22  OE1 UNL     1      65.818 218.795 337.769  0.00  0.00    +0.000 OA
ATOM     23  HE1 UNL     1      65.736 219.259 338.626  0.00  0.00    +0.000 HD
ENDBRANCH  21  22
ENDBRANCH  19  21
ENDBRANCH  13  18
ENDBRANCH   6  11
ENDBRANCH   1   3
BRANCH   1  24
ATOM     24  C   UNL     1      73.168 220.826 345.925  0.00  0.00    +0.000 C 
BRANCH  24  31
ATOM     25  O   UNL     1      74.236 223.661 350.226  0.00  0.00    +0.000 OA
ATOM     26  N   UNL     1      73.176 221.969 348.113  0.00  0.00    +0.000 N 
ATOM     27  N   UNL     1      70.832 220.478 349.004  0.00  0.00    +0.000 N 
ATOM     28  N   UNL     1      71.061 221.410 351.158  0.00  0.00    +0.000 NA
ATOM     29  N   UNL     1      72.626 223.041 351.648  0.00  0.00    +0.000 N 
ATOM     30  N   UNL     1      71.144 222.331 353.260  0.00  0.00    +0.000 N 
ATOM     31  C   UNL     1      72.648 221.033 347.230  0.00  0.00    +0.000 C 
ATOM     32  C   UNL     1      71.546 220.353 347.772  0.00  0.00    +0.000 C 
ATOM     33  C   UNL     1      72.614 222.070 349.416  0.00  0.00    +0.000 A 
ATOM     34  C   UNL     1      71.528 221.350 349.862  0.00  0.00    +0.000 A 
ATOM     35  C   UNL     1      73.231 222.987 350.430  0.00  0.00    +0.000 A 
ATOM     36  C   UNL     1      71.598 222.235 351.989  0.00  0.00    +0.000 A 
ATOM     37  H   UNL     1      70.477 219.677 349.517  0.00  0.00    +0.000 HD
ATOM     38  H   UNL     1      73.074 223.623 352.339  0.00  0.00    +0.000 HD
ATOM     39  H   UNL     1      70.252 221.861 353.385  0.00  0.00    +0.000 HD
ATOM     40  H   UNL     1      71.161 223.250 353.684  0.00  0.00    +0.000 HD
BRANCH  26  42
ATOM     41  O   UNL     1      75.097 223.398 347.310  0.00  0.00    +0.000 OA
ATOM     42  C   UNL     1      74.226 222.719 347.712  0.00  0.00    +0.000 C 
ENDBRANCH  26  42
ENDBRANCH  24  31
ENDBRANCH   1  24
TORSDOF 10
ENDMDL
MODEL 2
REMARK VINA RESULT:      -6.2      6.770     14.759
REMARK  Name = 135403648_CalciumFolinate.pdbqt.pdb
REMARK  10 active torsions:
REMARK  status: ('A' for Active; 'I' for Inactive)
REMARK    1  A    between atoms: N_1  and  C_3
REMARK    2  A    between atoms: N_1  and  C_24
REMARK    3  A    between atoms: C_6  and  C_11
REMARK    4  A    between atoms: CA_13  and  C_15
REMARK    5  A    between atoms: CA_13  and  CB_18
REMARK    6  A    between atoms: C_15  and  O_16
REMARK    7  A    between atoms: CG_19  and  CD_21
REMARK    8  A    between atoms: CD_21  and  OE1_22
REMARK    9  A    between atoms: C_24  and  C_32
REMARK   10  A    between atoms: N_27  and  C_37
REMARK                            x       y       z     vdW  Elec       q    Type
REMARK                         _______ _______ _______ _____ _____    ______ ____
ROOT
ATOM      1  N   UNL     1      64.724 217.083 334.787  0.00  0.00    +0.000 N 
ATOM      2  H   UNL     1      65.045 216.147 334.543  0.00  0.00    +0.000 HD
ENDROOT
BRANCH   1   3
ATOM      3  C   UNL     1      65.608 217.735 335.673  0.00  0.00    +0.000 A 
ATOM      4  C   UNL     1      65.247 218.977 336.204  0.00  0.00    +0.000 A 
ATOM      5  C   UNL     1      66.909 217.273 335.901  0.00  0.00    +0.000 A 
ATOM      6  C   UNL     1      67.408 219.209 337.256  0.00  0.00    +0.000 A 
ATOM      7  C   UNL     1      66.131 219.702 337.002  0.00  0.00    +0.000 A 
ATOM      8  C   UNL     1      67.798 217.991 336.698  0.00  0.00    +0.000 A 
BRANCH   6  11
ATOM      9  O   UNL     1      68.712 219.453 339.177  0.00  0.00    +0.000 OA
ATOM     10  N   UNL     1      68.843 221.144 337.599  0.00  0.00    +0.000 N 
ATOM     11  C   ACE A   0      68.382 219.943 338.103  0.00  0.00    +0.000 C 
ATOM     12  H   UNL     1      68.505 221.470 336.697  0.00  0.00    +0.000 HD
ATOM     13  CA  UNL     1      69.746 222.007 338.195  0.00  0.00    +0.000 C 
BRANCH  13  15
ATOM     14  OXT UNL     1      71.041 223.354 336.704  0.00  0.00    +0.000 OA
ATOM     15  C   UNL     1      70.064 223.237 337.429  0.00  0.00    +0.000 C 
BRANCH  15  16
ATOM     16  O   UNL     1      69.179 224.232 337.594  0.00  0.00    +0.000 OA
ATOM     17  H   UNL     1      68.818 224.100 338.495  0.00  0.00    +0.000 HD
ENDBRANCH  15  16
ENDBRANCH  13  15
BRANCH  13  18
ATOM     18  CB  UNL     1      70.334 221.735 339.458  0.00  0.00    +0.000 C 
ATOM     19  CG  UNL     1      70.979 221.445 340.818  0.00  0.00    +0.000 C 
BRANCH  19  21
ATOM     20  OE2 UNL     1      72.802 221.230 342.265  0.00  0.00    +0.000 OA
ATOM     21  CD  UNL     1      71.599 221.182 342.081  0.00  0.00    +0.000 C 
BRANCH  21  22
ATOM     22  OE1 UNL     1      70.734 220.851 343.057  0.00  0.00    +0.000 OA
ATOM     23  HE1 UNL     1      69.987 221.466 342.915  0.00  0.00    +0.000 HD
ENDBRANCH  21  22
ENDBRANCH  19  21
ENDBRANCH  13  18
ENDBRANCH   6  11
ENDBRANCH   1   3
BRANCH   1  24
ATOM     24  C   UNL     1      64.126 217.853 333.704  0.00  0.00    +0.000 C 
BRANCH  24  31
ATOM     25  O   UNL     1      64.992 222.285 331.003  0.00  0.00    +0.000 OA
ATOM     26  N   UNL     1      64.102 219.759 332.133  0.00  0.00    +0.000 N 
ATOM     27  N   UNL     1      61.539 218.926 331.017  0.00  0.00    +0.000 N 
ATOM     28  N   UNL     1      61.454 220.905 329.739  0.00  0.00    +0.000 NA
ATOM     29  N   UNL     1      63.206 222.414 329.664  0.00  0.00    +0.000 N 
ATOM     30  N   UNL     1      61.321 222.758 328.388  0.00  0.00    +0.000 N 
ATOM     31  C   UNL     1      63.511 218.626 332.682  0.00  0.00    +0.000 C 
ATOM     32  C   UNL     1      62.270 218.335 332.094  0.00  0.00    +0.000 C 
ATOM     33  C   UNL     1      63.386 220.492 331.147  0.00  0.00    +0.000 A 
ATOM     34  C   UNL     1      62.160 220.128 330.633  0.00  0.00    +0.000 A 
ATOM     35  C   UNL     1      63.942 221.780 330.618  0.00  0.00    +0.000 A 
ATOM     36  C   UNL     1      61.982 221.989 329.285  0.00  0.00    +0.000 A 
ATOM     37  H   UNL     1      60.529 219.031 331.031  0.00  0.00    +0.000 HD
ATOM     38  H   UNL     1      63.563 223.302 329.348  0.00  0.00    +0.000 HD
ATOM     39  H   UNL     1      60.515 222.281 327.994  0.00  0.00    +0.000 HD
ATOM     40  H   UNL     1      61.879 223.223 327.684  0.00  0.00    +0.000 HD
BRANCH  26  42
ATOM     41  O   UNL     1      66.379 220.514 332.922  0.00  0.00    +0.000 OA
ATOM     42  C   UNL     1      65.316 220.141 332.587  0.00  0.00    +0.000 C 
ENDBRANCH  26  42
ENDBRANCH  24  31
ENDBRANCH   1  24
TORSDOF 10
ENDMDL
MODEL 3
REMARK VINA RESULT:      -6.0      8.425     14.284
REMARK  Name = 135403648_CalciumFolinate.pdbqt.pdb
REMARK  10 active torsions:
REMARK  status: ('A' for Active; 'I' for Inactive)
REMARK    1  A    between atoms: N_1  and  C_3
REMARK    2  A    between atoms: N_1  and  C_24
REMARK    3  A    between atoms: C_6  and  C_11
REMARK    4  A    between atoms: CA_13  and  C_15
REMARK    5  A    between atoms: CA_13  and  CB_18
REMARK    6  A    between atoms: C_15  and  O_16
REMARK    7  A    between atoms: CG_19  and  CD_21
REMARK    8  A    between atoms: CD_21  and  OE1_22
REMARK    9  A    between atoms: C_24  and  C_32
REMARK   10  A    between atoms: N_27  and  C_37
REMARK                            x       y       z     vdW  Elec       q    Type
REMARK                         _______ _______ _______ _____ _____    ______ ____
ROOT
ATOM      1  N   UNL     1      65.525 219.006 331.903  0.00  0.00    +0.000 N 
ATOM      2  H   UNL     1      64.773 218.376 332.180  0.00  0.00    +0.000 HD
ENDROOT
BRANCH   1   3
ATOM      3  C   UNL     1      65.054 220.094 331.139  0.00  0.00    +0.000 A 
ATOM      4  C   UNL     1      63.690 220.178 330.842  0.00  0.00    +0.000 A 
ATOM      5  C   UNL     1      65.922 220.997 330.513  0.00  0.00    +0.000 A 
ATOM      6  C   UNL     1      64.068 222.098 329.426  0.00  0.00    +0.000 A 
ATOM      7  C   UNL     1      63.197 221.180 330.007  0.00  0.00    +0.000 A 
ATOM      8  C   UNL     1      65.437 222.000 329.678  0.00  0.00    +0.000 A 
BRANCH   6  11
ATOM      9  O   UNL     1      64.417 223.891 327.972  0.00  0.00    +0.000 OA
ATOM     10  N   UNL     1      62.218 223.310 328.411  0.00  0.00    +0.000 N 
ATOM     11  C   ACE A   0      63.589 223.183 328.534  0.00  0.00    +0.000 C 
ATOM     12  H   UNL     1      61.610 222.676 328.924  0.00  0.00    +0.000 HD
ATOM     13  CA  UNL     1      61.531 224.238 327.648  0.00  0.00    +0.000 C 
BRANCH  13  15
ATOM     14  OXT UNL     1      59.309 224.624 326.855  0.00  0.00    +0.000 OA
ATOM     15  C   UNL     1      60.052 224.150 327.703  0.00  0.00    +0.000 C 
BRANCH  15  16
ATOM     16  O   UNL     1      59.579 223.497 328.776  0.00  0.00    +0.000 OA
ATOM     17  H   UNL     1      59.631 222.549 328.536  0.00  0.00    +0.000 HD
ENDBRANCH  15  16
ENDBRANCH  13  15
BRANCH  13  18
ATOM     18  CB  UNL     1      62.197 225.213 326.859  0.00  0.00    +0.000 C 
ATOM     19  CG  UNL     1      62.905 226.271 326.006  0.00  0.00    +0.000 C 
BRANCH  19  21
ATOM     20  OE2 UNL     1      63.041 227.784 324.230  0.00  0.00    +0.000 OA
ATOM     21  CD  UNL     1      63.551 227.270 325.209  0.00  0.00    +0.000 C 
BRANCH  21  22
ATOM     22  OE1 UNL     1      64.792 227.583 325.623  0.00  0.00    +0.000 OA
ATOM     23  HE1 UNL     1      64.727 228.537 325.831  0.00  0.00    +0.000 HD
ENDBRANCH  21  22
ENDBRANCH  19  21
ENDBRANCH  13  18
ENDBRANCH   6  11
ENDBRANCH   1   3
BRANCH   1  24
ATOM     24  C   UNL     1      66.554 219.249 332.907  0.00  0.00    +0.000 C 
BRANCH  24  31
ATOM     25  O   UNL     1      66.764 220.717 337.955  0.00  0.00    +0.000 OA
ATOM     26  N   UNL     1      67.192 219.823 335.222  0.00  0.00    +0.000 N 
ATOM     27  N   UNL     1      70.033 219.661 334.577  0.00  0.00    +0.000 N 
ATOM     28  N   UNL     1      70.565 220.472 336.726  0.00  0.00    +0.000 NA
ATOM     29  N   UNL     1      68.961 220.826 338.355  0.00  0.00    +0.000 N 
ATOM     30  N   UNL     1      71.189 221.169 338.823  0.00  0.00    +0.000 N 
ATOM     31  C   UNL     1      67.526 219.524 333.905  0.00  0.00    +0.000 C 
ATOM     32  C   UNL     1      68.915 219.503 333.700  0.00  0.00    +0.000 C 
ATOM     33  C   UNL     1      68.237 220.129 336.137  0.00  0.00    +0.000 A 
ATOM     34  C   UNL     1      69.582 220.088 335.839  0.00  0.00    +0.000 A 
ATOM     35  C   UNL     1      67.907 220.568 337.533  0.00  0.00    +0.000 A 
ATOM     36  C   UNL     1      70.241 220.811 337.926  0.00  0.00    +0.000 A 
ATOM     37  H   UNL     1      70.875 220.160 334.308  0.00  0.00    +0.000 HD
ATOM     38  H   UNL     1      68.732 221.166 339.275  0.00  0.00    +0.000 HD
ATOM     39  H   UNL     1      72.126 220.936 338.505  0.00  0.00    +0.000 HD
ATOM     40  H   UNL     1      71.030 220.906 339.787  0.00  0.00    +0.000 HD
BRANCH  26  42
ATOM     41  O   UNL     1      64.743 219.930 335.828  0.00  0.00    +0.000 OA
ATOM     42  C   UNL     1      65.887 219.851 335.570  0.00  0.00    +0.000 C 
ENDBRANCH  26  42
ENDBRANCH  24  31
ENDBRANCH   1  24
TORSDOF 10
ENDMDL
MODEL 4
REMARK VINA RESULT:      -6.0     16.081     18.129
REMARK  Name = 135403648_CalciumFolinate.pdbqt.pdb
REMARK  10 active torsions:
REMARK  status: ('A' for Active; 'I' for Inactive)
REMARK    1  A    between atoms: N_1  and  C_3
REMARK    2  A    between atoms: N_1  and  C_24
REMARK    3  A    between atoms: C_6  and  C_11
REMARK    4  A    between atoms: CA_13  and  C_15
REMARK    5  A    between atoms: CA_13  and  CB_18
REMARK    6  A    between atoms: C_15  and  O_16
REMARK    7  A    between atoms: CG_19  and  CD_21
REMARK    8  A    between atoms: CD_21  and  OE1_22
REMARK    9  A    between atoms: C_24  and  C_32
REMARK   10  A    between atoms: N_27  and  C_37
REMARK                            x       y       z     vdW  Elec       q    Type
REMARK                         _______ _______ _______ _____ _____    ______ ____
ROOT
ATOM      1  N   UNL     1      67.113 238.870 342.170  0.00  0.00    +0.000 N 
ATOM      2  H   UNL     1      67.966 239.223 342.603  0.00  0.00    +0.000 HD
ENDROOT
BRANCH   1   3
ATOM      3  C   UNL     1      66.957 239.334 340.847  0.00  0.00    +0.000 A 
ATOM      4  C   UNL     1      65.876 240.167 340.541  0.00  0.00    +0.000 A 
ATOM      5  C   UNL     1      67.737 238.851 339.790  0.00  0.00    +0.000 A 
ATOM      6  C   UNL     1      66.437 240.112 338.192  0.00  0.00    +0.000 A 
ATOM      7  C   UNL     1      65.625 240.567 339.228  0.00  0.00    +0.000 A 
ATOM      8  C   UNL     1      67.493 239.246 338.476  0.00  0.00    +0.000 A 
BRANCH   6  11
ATOM      9  O   UNL     1      65.237 241.207 336.515  0.00  0.00    +0.000 OA
ATOM     10  N   UNL     1      67.140 240.060 335.863  0.00  0.00    +0.000 N 
ATOM     11  C   ACE A   0      66.212 240.514 336.781  0.00  0.00    +0.000 C 
ATOM     12  H   UNL     1      67.916 239.483 336.181  0.00  0.00    +0.000 HD
ATOM     13  CA  UNL     1      67.149 240.294 334.499  0.00  0.00    +0.000 C 
BRANCH  13  15
ATOM     14  OXT UNL     1      68.326 239.637 332.526  0.00  0.00    +0.000 OA
ATOM     15  C   UNL     1      68.269 239.679 333.746  0.00  0.00    +0.000 C 
BRANCH  15  16
ATOM     16  O   UNL     1      69.235 239.163 334.521  0.00  0.00    +0.000 OA
ATOM     17  H   UNL     1      69.801 238.649 333.908  0.00  0.00    +0.000 HD
ENDBRANCH  15  16
ENDBRANCH  13  15
BRANCH  13  18
ATOM     18  CB  UNL     1      66.152 241.075 333.858  0.00  0.00    +0.000 C 
ATOM     19  CG  UNL     1      65.083 241.926 333.162  0.00  0.00    +0.000 C 
BRANCH  19  21
ATOM     20  OE2 UNL     1      64.221 243.930 332.324  0.00  0.00    +0.000 OA
ATOM     21  CD  UNL     1      64.100 242.731 332.504  0.00  0.00    +0.000 C 
BRANCH  21  22
ATOM     22  OE1 UNL     1      63.006 242.052 332.116  0.00  0.00    +0.000 OA
ATOM     23  HE1 UNL     1      63.308 241.573 331.318  0.00  0.00    +0.000 HD
ENDBRANCH  21  22
ENDBRANCH  19  21
ENDBRANCH  13  18
ENDBRANCH   6  11
ENDBRANCH   1   3
BRANCH   1  24
ATOM     24  C   UNL     1      66.773 237.485 342.469  0.00  0.00    +0.000 C 
BRANCH  24  31
ATOM     25  O   UNL     1      67.113 234.245 346.600  0.00  0.00    +0.000 OA
ATOM     26  N   UNL     1      66.629 235.627 344.089  0.00  0.00    +0.000 N 
ATOM     27  N   UNL     1      65.495 233.841 342.081  0.00  0.00    +0.000 N 
ATOM     28  N   UNL     1      65.636 232.045 343.601  0.00  0.00    +0.000 NA
ATOM     29  N   UNL     1      66.287 232.326 345.803  0.00  0.00    +0.000 N 
ATOM     30  N   UNL     1      65.648 230.251 345.036  0.00  0.00    +0.000 N 
ATOM     31  C   UNL     1      66.465 236.140 342.807  0.00  0.00    +0.000 C 
ATOM     32  C   UNL     1      65.944 235.188 341.916  0.00  0.00    +0.000 C 
ATOM     33  C   UNL     1      66.336 234.254 344.317  0.00  0.00    +0.000 A 
ATOM     34  C   UNL     1      65.830 233.390 343.371  0.00  0.00    +0.000 A 
ATOM     35  C   UNL     1      66.610 233.640 345.658  0.00  0.00    +0.000 A 
ATOM     36  C   UNL     1      65.853 231.564 344.777  0.00  0.00    +0.000 A 
ATOM     37  H   UNL     1      65.667 233.116 341.391  0.00  0.00    +0.000 HD
ATOM     38  H   UNL     1      66.518 231.909 346.690  0.00  0.00    +0.000 HD
ATOM     39  H   UNL     1      65.131 229.790 344.293  0.00  0.00    +0.000 HD
ATOM     40  H   UNL     1      65.299 230.016 345.956  0.00  0.00    +0.000 HD
BRANCH  26  42
ATOM     41  O   UNL     1      67.443 237.145 345.936  0.00  0.00    +0.000 OA
ATOM     42  C   UNL     1      67.098 236.443 345.059  0.00  0.00    +0.000 C 
ENDBRANCH  26  42
ENDBRANCH  24  31
ENDBRANCH   1  24
TORSDOF 10
ENDMDL
MODEL 5
REMARK VINA RESULT:      -6.0     16.284     18.644
REMARK  Name = 135403648_CalciumFolinate.pdbqt.pdb
REMARK  10 active torsions:
REMARK  status: ('A' for Active; 'I' for Inactive)
REMARK    1  A    between atoms: N_1  and  C_3
REMARK    2  A    between atoms: N_1  and  C_24
REMARK    3  A    between atoms: C_6  and  C_11
REMARK    4  A    between atoms: CA_13  and  C_15
REMARK    5  A    between atoms: CA_13  and  CB_18
REMARK    6  A    between atoms: C_15  and  O_16
REMARK    7  A    between atoms: CG_19  and  CD_21
REMARK    8  A    between atoms: CD_21  and  OE1_22
REMARK    9  A    between atoms: C_24  and  C_32
REMARK   10  A    between atoms: N_27  and  C_37
REMARK                            x       y       z     vdW  Elec       q    Type
REMARK                         _______ _______ _______ _____ _____    ______ ____
ROOT
ATOM      1  N   UNL     1      67.973 239.902 342.502  0.00  0.00    +0.000 N 
ATOM      2  H   UNL     1      68.834 240.331 342.838  0.00  0.00    +0.000 HD
ENDROOT
BRANCH   1   3
ATOM      3  C   UNL     1      67.696 240.246 341.162  0.00  0.00    +0.000 A 
ATOM      4  C   UNL     1      66.378 240.533 340.791  0.00  0.00    +0.000 A 
ATOM      5  C   UNL     1      68.657 240.136 340.150  0.00  0.00    +0.000 A 
ATOM      6  C   UNL     1      67.020 240.707 338.469  0.00  0.00    +0.000 A 
ATOM      7  C   UNL     1      66.043 240.778 339.459  0.00  0.00    +0.000 A 
ATOM      8  C   UNL     1      68.330 240.380 338.818  0.00  0.00    +0.000 A 
BRANCH   6  11
ATOM      9  O   UNL     1      65.931 241.866 336.759  0.00  0.00    +0.000 OA
ATOM     10  N   UNL     1      67.344 240.145 336.124  0.00  0.00    +0.000 N 
ATOM     11  C   ACE A   0      66.712 240.964 337.040  0.00  0.00    +0.000 C 
ATOM     12  H   UNL     1      67.974 239.418 336.455  0.00  0.00    +0.000 HD
ATOM     13  CA  UNL     1      67.221 240.183 334.746  0.00  0.00    +0.000 C 
BRANCH  13  15
ATOM     14  OXT UNL     1      68.855 239.462 333.158  0.00  0.00    +0.000 OA
ATOM     15  C   UNL     1      68.016 239.178 334.000  0.00  0.00    +0.000 C 
BRANCH  15  16
ATOM     16  O   UNL     1      67.741 237.906 334.326  0.00  0.00    +0.000 OA
ATOM     17  H   UNL     1      66.958 237.960 334.912  0.00  0.00    +0.000 HD
ENDBRANCH  15  16
ENDBRANCH  13  15
BRANCH  13  18
ATOM     18  CB  UNL     1      66.389 241.124 334.085  0.00  0.00    +0.000 C 
ATOM     19  CG  UNL     1      65.490 242.147 333.381  0.00  0.00    +0.000 C 
BRANCH  19  21
ATOM     20  OE2 UNL     1      64.904 244.306 332.704  0.00  0.00    +0.000 OA
ATOM     21  CD  UNL     1      64.654 243.114 332.738  0.00  0.00    +0.000 C 
BRANCH  21  22
ATOM     22  OE1 UNL     1      63.542 242.596 332.184  0.00  0.00    +0.000 OA
ATOM     23  HE1 UNL     1      63.081 242.188 332.944  0.00  0.00    +0.000 HD
ENDBRANCH  21  22
ENDBRANCH  19  21
ENDBRANCH  13  18
ENDBRANCH   6  11
ENDBRANCH   1   3
BRANCH   1  24
ATOM     24  C   UNL     1      67.731 238.532 342.937  0.00  0.00    +0.000 C 
BRANCH  24  31
ATOM     25  O   UNL     1      64.984 234.278 341.510  0.00  0.00    +0.000 OA
ATOM     26  N   UNL     1      66.758 236.281 342.645  0.00  0.00    +0.000 N 
ATOM     27  N   UNL     1      68.146 235.275 345.005  0.00  0.00    +0.000 N 
ATOM     28  N   UNL     1      66.976 233.236 344.820  0.00  0.00    +0.000 NA
ATOM     29  N   UNL     1      65.577 232.760 343.040  0.00  0.00    +0.000 N 
ATOM     30  N   UNL     1      65.956 231.183 344.674  0.00  0.00    +0.000 N 
ATOM     31  C   UNL     1      67.545 237.186 343.350  0.00  0.00    +0.000 C 
ATOM     32  C   UNL     1      68.138 236.605 344.482  0.00  0.00    +0.000 C 
ATOM     33  C   UNL     1      66.597 234.967 343.165  0.00  0.00    +0.000 A 
ATOM     34  C   UNL     1      67.220 234.487 344.296  0.00  0.00    +0.000 A 
ATOM     35  C   UNL     1      65.665 234.003 342.493  0.00  0.00    +0.000 A 
ATOM     36  C   UNL     1      66.194 232.426 344.194  0.00  0.00    +0.000 A 
ATOM     37  H   UNL     1      68.100 235.075 346.000  0.00  0.00    +0.000 HD
ATOM     38  H   UNL     1      64.915 232.134 342.612  0.00  0.00    +0.000 HD
ATOM     39  H   UNL     1      66.603 230.928 345.415  0.00  0.00    +0.000 HD
ATOM     40  H   UNL     1      65.835 230.445 343.993  0.00  0.00    +0.000 HD
BRANCH  26  42
ATOM     41  O   UNL     1      65.567 237.096 340.572  0.00  0.00    +0.000 OA
ATOM     42  C   UNL     1      66.147 236.698 341.514  0.00  0.00    +0.000 C 
ENDBRANCH  26  42
ENDBRANCH  24  31
ENDBRANCH   1  24
TORSDOF 10
ENDMDL
MODEL 6
REMARK VINA RESULT:      -5.8      3.049      4.059
REMARK  Name = 135403648_CalciumFolinate.pdbqt.pdb
REMARK  10 active torsions:
REMARK  status: ('A' for Active; 'I' for Inactive)
REMARK    1  A    between atoms: N_1  and  C_3
REMARK    2  A    between atoms: N_1  and  C_24
REMARK    3  A    between atoms: C_6  and  C_11
REMARK    4  A    between atoms: CA_13  and  C_15
REMARK    5  A    between atoms: CA_13  and  CB_18
REMARK    6  A    between atoms: C_15  and  O_16
REMARK    7  A    between atoms: CG_19  and  CD_21
REMARK    8  A    between atoms: CD_21  and  OE1_22
REMARK    9  A    between atoms: C_24  and  C_32
REMARK   10  A    between atoms: N_27  and  C_37
REMARK                            x       y       z     vdW  Elec       q    Type
REMARK                         _______ _______ _______ _____ _____    ______ ____
ROOT
ATOM      1  N   UNL     1      75.184 221.141 344.156  0.00  0.00    +0.000 N 
ATOM      2  H   UNL     1      75.316 220.190 344.498  0.00  0.00    +0.000 HD
ENDROOT
BRANCH   1   3
ATOM      3  C   UNL     1      74.122 221.230 343.231  0.00  0.00    +0.000 A 
ATOM      4  C   UNL     1      72.971 220.463 343.439  0.00  0.00    +0.000 A 
ATOM      5  C   UNL     1      74.245 221.920 342.019  0.00  0.00    +0.000 A 
ATOM      6  C   UNL     1      72.059 221.170 341.318  0.00  0.00    +0.000 A 
ATOM      7  C   UNL     1      71.941 220.444 342.500  0.00  0.00    +0.000 A 
ATOM      8  C   UNL     1      73.219 221.906 341.077  0.00  0.00    +0.000 A 
BRANCH   6  11
ATOM      9  O   UNL     1      70.067 220.380 340.391  0.00  0.00    +0.000 OA
ATOM     10  N   UNL     1      71.120 222.121 339.284  0.00  0.00    +0.000 N 
ATOM     11  C   ACE A   0      70.987 221.184 340.291  0.00  0.00    +0.000 C 
ATOM     12  H   UNL     1      71.924 222.743 339.284  0.00  0.00    +0.000 HD
ATOM     13  CA  UNL     1      70.261 222.329 338.219  0.00  0.00    +0.000 C 
BRANCH  13  15
ATOM     14  OXT UNL     1      71.675 223.390 336.611  0.00  0.00    +0.000 OA
ATOM     15  C   UNL     1      70.650 223.406 337.278  0.00  0.00    +0.000 C 
BRANCH  15  16
ATOM     16  O   UNL     1      69.775 224.421 337.210  0.00  0.00    +0.000 OA
ATOM     17  H   UNL     1      69.297 224.399 338.065  0.00  0.00    +0.000 HD
ENDBRANCH  15  16
ENDBRANCH  13  15
BRANCH  13  18
ATOM     18  CB  UNL     1      69.080 221.562 338.037  0.00  0.00    +0.000 C 
ATOM     19  CG  UNL     1      67.798 220.743 337.845  0.00  0.00    +0.000 C 
BRANCH  19  21
ATOM     20  OE2 UNL     1      65.891 220.063 336.677  0.00  0.00    +0.000 OA
ATOM     21  CD  UNL     1      66.592 219.993 337.672  0.00  0.00    +0.000 C 
BRANCH  21  22
ATOM     22  OE1 UNL     1      66.277 219.210 338.719  0.00  0.00    +0.000 OA
ATOM     23  HE1 UNL     1      65.703 219.784 339.266  0.00  0.00    +0.000 HD
ENDBRANCH  21  22
ENDBRANCH  19  21
ENDBRANCH  13  18
ENDBRANCH   6  11
ENDBRANCH   1   3
BRANCH   1  24
ATOM     24  C   UNL     1      75.343 222.201 345.143  0.00  0.00    +0.000 C 
BRANCH  24  31
ATOM     25  O   UNL     1      78.580 226.212 346.196  0.00  0.00    +0.000 OA
ATOM     26  N   UNL     1      76.493 224.196 346.035  0.00  0.00    +0.000 N 
ATOM     27  N   UNL     1      74.723 224.294 348.352  0.00  0.00    +0.000 N 
ATOM     28  N   UNL     1      76.030 226.025 349.275  0.00  0.00    +0.000 NA
ATOM     29  N   UNL     1      77.786 227.004 348.130  0.00  0.00    +0.000 N 
ATOM     30  N   UNL     1      77.185 227.775 350.215  0.00  0.00    +0.000 N 
ATOM     31  C   UNL     1      75.525 223.202 346.134  0.00  0.00    +0.000 C 
ATOM     32  C   UNL     1      74.753 223.326 347.301  0.00  0.00    +0.000 C 
ATOM     33  C   UNL     1      76.628 225.126 347.103  0.00  0.00    +0.000 A 
ATOM     34  C   UNL     1      75.820 225.165 348.219  0.00  0.00    +0.000 A 
ATOM     35  C   UNL     1      77.734 226.139 347.081  0.00  0.00    +0.000 A 
ATOM     36  C   UNL     1      76.972 226.902 349.202  0.00  0.00    +0.000 A 
ATOM     37  H   UNL     1      74.580 224.043 349.326  0.00  0.00    +0.000 HD
ATOM     38  H   UNL     1      78.559 227.650 348.132  0.00  0.00    +0.000 HD
ATOM     39  H   UNL     1      76.419 227.781 350.882  0.00  0.00    +0.000 HD
ATOM     40  H   UNL     1      77.486 228.706 349.960  0.00  0.00    +0.000 HD
BRANCH  26  42
ATOM     41  O   UNL     1      77.963 224.167 343.982  0.00  0.00    +0.000 OA
ATOM     42  C   UNL     1      77.292 224.216 344.946  0.00  0.00    +0.000 C 
ENDBRANCH  26  42
ENDBRANCH  24  31
ENDBRANCH   1  24
TORSDOF 10
ENDMDL
MODEL 7
REMARK VINA RESULT:      -5.7     25.748     28.189
REMARK  Name = 135403648_CalciumFolinate.pdbqt.pdb
REMARK  10 active torsions:
REMARK  status: ('A' for Active; 'I' for Inactive)
REMARK    1  A    between atoms: N_1  and  C_3
REMARK    2  A    between atoms: N_1  and  C_24
REMARK    3  A    between atoms: C_6  and  C_11
REMARK    4  A    between atoms: CA_13  and  C_15
REMARK    5  A    between atoms: CA_13  and  CB_18
REMARK    6  A    between atoms: C_15  and  O_16
REMARK    7  A    between atoms: CG_19  and  CD_21
REMARK    8  A    between atoms: CD_21  and  OE1_22
REMARK    9  A    between atoms: C_24  and  C_32
REMARK   10  A    between atoms: N_27  and  C_37
REMARK                            x       y       z     vdW  Elec       q    Type
REMARK                         _______ _______ _______ _____ _____    ______ ____
ROOT
ATOM      1  N   UNL     1      43.322 229.891 345.441  0.00  0.00    +0.000 N 
ATOM      2  H   UNL     1      42.334 230.122 345.542  0.00  0.00    +0.000 HD
ENDROOT
BRANCH   1   3
ATOM      3  C   UNL     1      44.153 231.016 345.625  0.00  0.00    +0.000 A 
ATOM      4  C   UNL     1      45.125 230.988 346.630  0.00  0.00    +0.000 A 
ATOM      5  C   UNL     1      43.926 232.227 344.960  0.00  0.00    +0.000 A 
ATOM      6  C   UNL     1      45.691 233.298 346.214  0.00  0.00    +0.000 A 
ATOM      7  C   UNL     1      45.899 232.112 346.913  0.00  0.00    +0.000 A 
ATOM      8  C   UNL     1      44.697 233.354 345.237  0.00  0.00    +0.000 A 
BRANCH   6  11
ATOM      9  O   UNL     1      47.273 234.518 347.423  0.00  0.00    +0.000 OA
ATOM     10  N   UNL     1      46.287 235.581 345.616  0.00  0.00    +0.000 N 
ATOM     11  C   ACE A   0      46.493 234.519 346.477  0.00  0.00    +0.000 C 
ATOM     12  H   UNL     1      45.613 235.488 344.861  0.00  0.00    +0.000 HD
ATOM     13  CA  UNL     1      46.907 236.818 345.654  0.00  0.00    +0.000 C 
BRANCH  13  15
ATOM     14  OXT UNL     1      45.361 238.235 344.507  0.00  0.00    +0.000 OA
ATOM     15  C   UNL     1      46.491 237.779 344.604  0.00  0.00    +0.000 C 
BRANCH  15  16
ATOM     16  O   UNL     1      47.469 238.119 343.750  0.00  0.00    +0.000 OA
ATOM     17  H   UNL     1      47.724 239.029 344.009  0.00  0.00    +0.000 HD
ENDBRANCH  15  16
ENDBRANCH  13  15
BRANCH  13  18
ATOM     18  CB  UNL     1      47.880 237.149 346.633  0.00  0.00    +0.000 C 
ATOM     19  CG  UNL     1      48.924 237.501 347.699  0.00  0.00    +0.000 C 
BRANCH  19  21
ATOM     20  OE2 UNL     1      49.594 238.187 349.830  0.00  0.00    +0.000 OA
ATOM     21  CD  UNL     1      49.889 237.819 348.707  0.00  0.00    +0.000 C 
BRANCH  21  22
ATOM     22  OE1 UNL     1      51.166 237.699 348.301  0.00  0.00    +0.000 OA
ATOM     23  HE1 UNL     1      51.581 237.173 349.014  0.00  0.00    +0.000 HD
ENDBRANCH  21  22
ENDBRANCH  19  21
ENDBRANCH  13  18
ENDBRANCH   6  11
ENDBRANCH   1   3
BRANCH   1  24
ATOM     24  C   UNL     1      43.739 228.614 346.006  0.00  0.00    +0.000 C 
BRANCH  24  31
ATOM     25  O   UNL     1      47.212 224.811 344.931  0.00  0.00    +0.000 OA
ATOM     26  N   UNL     1      45.239 226.653 346.011  0.00  0.00    +0.000 N 
ATOM     27  N   UNL     1      44.044 225.628 348.467  0.00  0.00    +0.000 N 
ATOM     28  N   UNL     1      45.319 223.655 348.262  0.00  0.00    +0.000 NA
ATOM     29  N   UNL     1      46.928 223.378 346.623  0.00  0.00    +0.000 N 
ATOM     30  N   UNL     1      46.581 221.737 348.201  0.00  0.00    +0.000 N 
ATOM     31  C   UNL     1      44.193 227.387 346.560  0.00  0.00    +0.000 C 
ATOM     32  C   UNL     1      43.673 226.788 347.718  0.00  0.00    +0.000 C 
ATOM     33  C   UNL     1      45.591 225.412 346.612  0.00  0.00    +0.000 A 
ATOM     34  C   UNL     1      45.013 224.900 347.753  0.00  0.00    +0.000 A 
ATOM     35  C   UNL     1      46.635 224.541 345.980  0.00  0.00    +0.000 A 
ATOM     36  C   UNL     1      46.245 222.952 347.707  0.00  0.00    +0.000 A 
ATOM     37  H   UNL     1      43.362 225.003 348.886  0.00  0.00    +0.000 HD
ATOM     38  H   UNL     1      47.596 222.777 346.168  0.00  0.00    +0.000 HD
ATOM     39  H   UNL     1      46.185 221.575 349.123  0.00  0.00    +0.000 HD
ATOM     40  H   UNL     1      47.557 221.475 348.146  0.00  0.00    +0.000 HD
BRANCH  26  42
ATOM     41  O   UNL     1      46.327 227.534 343.909  0.00  0.00    +0.000 OA
ATOM     42  C   UNL     1      45.854 227.127 344.906  0.00  0.00    +0.000 C 
ENDBRANCH  26  42
ENDBRANCH  24  31
ENDBRANCH   1  24
TORSDOF 10
ENDMDL
MODEL 8
REMARK VINA RESULT:      -5.7     18.703     23.759
REMARK  Name = 135403648_CalciumFolinate.pdbqt.pdb
REMARK  10 active torsions:
REMARK  status: ('A' for Active; 'I' for Inactive)
REMARK    1  A    between atoms: N_1  and  C_3
REMARK    2  A    between atoms: N_1  and  C_24
REMARK    3  A    between atoms: C_6  and  C_11
REMARK    4  A    between atoms: CA_13  and  C_15
REMARK    5  A    between atoms: CA_13  and  CB_18
REMARK    6  A    between atoms: C_15  and  O_16
REMARK    7  A    between atoms: CG_19  and  CD_21
REMARK    8  A    between atoms: CD_21  and  OE1_22
REMARK    9  A    between atoms: C_24  and  C_32
REMARK   10  A    between atoms: N_27  and  C_37
REMARK                            x       y       z     vdW  Elec       q    Type
REMARK                         _______ _______ _______ _____ _____    ______ ____
ROOT
ATOM      1  N   UNL     1      66.077 240.892 335.387  0.00  0.00    +0.000 N 
ATOM      2  H   UNL     1      65.284 240.356 335.737  0.00  0.00    +0.000 HD
ENDROOT
BRANCH   1   3
ATOM      3  C   UNL     1      67.268 240.135 335.376  0.00  0.00    +0.000 A 
ATOM      4  C   UNL     1      67.767 239.670 334.156  0.00  0.00    +0.000 A 
ATOM      5  C   UNL     1      67.872 239.679 336.553  0.00  0.00    +0.000 A 
ATOM      6  C   UNL     1      69.500 238.424 335.286  0.00  0.00    +0.000 A 
ATOM      7  C   UNL     1      68.883 238.835 334.107  0.00  0.00    +0.000 A 
ATOM      8  C   UNL     1      68.987 238.845 336.513  0.00  0.00    +0.000 A 
BRANCH   6  11
ATOM      9  O   UNL     1      71.218 237.260 336.355  0.00  0.00    +0.000 OA
ATOM     10  N   UNL     1      71.120 237.095 334.047  0.00  0.00    +0.000 N 
ATOM     11  C   ACE A   0      70.692 237.539 335.284  0.00  0.00    +0.000 C 
ATOM     12  H   UNL     1      70.618 237.386 333.211  0.00  0.00    +0.000 HD
ATOM     13  CA  UNL     1      72.199 236.270 333.784  0.00  0.00    +0.000 C 
BRANCH  13  15
ATOM     14  OXT UNL     1      73.541 235.945 331.833  0.00  0.00    +0.000 OA
ATOM     15  C   UNL     1      72.435 235.954 332.354  0.00  0.00    +0.000 C 
BRANCH  15  16
ATOM     16  O   UNL     1      71.322 235.671 331.662  0.00  0.00    +0.000 OA
ATOM     17  H   UNL     1      70.589 235.797 332.300  0.00  0.00    +0.000 HD
ENDBRANCH  15  16
ENDBRANCH  13  15
BRANCH  13  18
ATOM     18  CB  UNL     1      73.029 235.756 334.814  0.00  0.00    +0.000 C 
ATOM     19  CG  UNL     1      73.935 235.208 335.923  0.00  0.00    +0.000 C 
BRANCH  19  21
ATOM     20  OE2 UNL     1      74.457 234.597 338.118  0.00  0.00    +0.000 OA
ATOM     21  CD  UNL     1      74.794 234.707 336.952  0.00  0.00    +0.000 C 
BRANCH  21  22
ATOM     22  OE1 UNL     1      76.028 234.383 336.527  0.00  0.00    +0.000 OA
ATOM     23  HE1 UNL     1      76.260 235.119 335.925  0.00  0.00    +0.000 HD
ENDBRANCH  21  22
ENDBRANCH  19  21
ENDBRANCH  13  18
ENDBRANCH   6  11
ENDBRANCH   1   3
BRANCH   1  24
ATOM     24  C   UNL     1      65.801 241.778 334.263  0.00  0.00    +0.000 C 
BRANCH  24  31
ATOM     25  O   UNL     1      68.494 245.099 331.198  0.00  0.00    +0.000 OA
ATOM     26  N   UNL     1      66.590 243.362 332.540  0.00  0.00    +0.000 N 
ATOM     27  N   UNL     1      63.884 243.739 331.517  0.00  0.00    +0.000 N 
ATOM     28  N   UNL     1      64.666 245.437 330.080  0.00  0.00    +0.000 NA
ATOM     29  N   UNL     1      66.912 245.949 329.866  0.00  0.00    +0.000 N 
ATOM     30  N   UNL     1      65.344 247.040 328.581  0.00  0.00    +0.000 N 
ATOM     31  C   UNL     1      65.568 242.674 333.186  0.00  0.00    +0.000 C 
ATOM     32  C   UNL     1      64.307 242.953 332.634  0.00  0.00    +0.000 C 
ATOM     33  C   UNL     1      66.250 244.273 331.502  0.00  0.00    +0.000 A 
ATOM     34  C   UNL     1      64.973 244.485 331.030  0.00  0.00    +0.000 A 
ATOM     35  C   UNL     1      67.314 245.115 330.863  0.00  0.00    +0.000 A 
ATOM     36  C   UNL     1      65.614 246.117 329.533  0.00  0.00    +0.000 A 
ATOM     37  H   UNL     1      63.039 244.302 331.530  0.00  0.00    +0.000 HD
ATOM     38  H   UNL     1      67.624 246.545 329.475  0.00  0.00    +0.000 HD
ATOM     39  H   UNL     1      64.391 246.965 328.235  0.00  0.00    +0.000 HD
ATOM     40  H   UNL     1      66.021 247.142 327.837  0.00  0.00    +0.000 HD
BRANCH  26  42
ATOM     41  O   UNL     1      68.985 242.974 333.241  0.00  0.00    +0.000 OA
ATOM     42  C   UNL     1      67.862 243.167 332.950  0.00  0.00    +0.000 C 
ENDBRANCH  26  42
ENDBRANCH  24  31
ENDBRANCH   1  24
TORSDOF 10
ENDMDL
MODEL 9
REMARK VINA RESULT:      -5.7     25.255     27.344
REMARK  Name = 135403648_CalciumFolinate.pdbqt.pdb
REMARK  10 active torsions:
REMARK  status: ('A' for Active; 'I' for Inactive)
REMARK    1  A    between atoms: N_1  and  C_3
REMARK    2  A    between atoms: N_1  and  C_24
REMARK    3  A    between atoms: C_6  and  C_11
REMARK    4  A    between atoms: CA_13  and  C_15
REMARK    5  A    between atoms: CA_13  and  CB_18
REMARK    6  A    between atoms: C_15  and  O_16
REMARK    7  A    between atoms: CG_19  and  CD_21
REMARK    8  A    between atoms: CD_21  and  OE1_22
REMARK    9  A    between atoms: C_24  and  C_32
REMARK   10  A    between atoms: N_27  and  C_37
REMARK                            x       y       z     vdW  Elec       q    Type
REMARK                         _______ _______ _______ _____ _____    ______ ____
ROOT
ATOM      1  N   UNL     1      44.453 228.946 347.073  0.00  0.00    +0.000 N 
ATOM      2  H   UNL     1      43.540 228.799 347.504  0.00  0.00    +0.000 HD
ENDROOT
BRANCH   1   3
ATOM      3  C   UNL     1      44.675 228.073 345.987  0.00  0.00    +0.000 A 
ATOM      4  C   UNL     1      45.331 226.859 346.212  0.00  0.00    +0.000 A 
ATOM      5  C   UNL     1      44.426 228.453 344.663  0.00  0.00    +0.000 A 
ATOM      6  C   UNL     1      45.368 226.385 343.844  0.00  0.00    +0.000 A 
ATOM      7  C   UNL     1      45.661 226.013 345.153  0.00  0.00    +0.000 A 
ATOM      8  C   UNL     1      44.752 227.613 343.600  0.00  0.00    +0.000 A 
BRANCH   6  11
ATOM      9  O   UNL     1      45.876 224.320 342.881  0.00  0.00    +0.000 OA
ATOM     10  N   UNL     1      45.776 226.144 341.457  0.00  0.00    +0.000 N 
ATOM     11  C   ACE A   0      45.697 225.517 342.686  0.00  0.00    +0.000 C 
ATOM     12  H   UNL     1      45.615 227.147 341.397  0.00  0.00    +0.000 HD
ATOM     13  CA  UNL     1      46.067 225.558 340.238  0.00  0.00    +0.000 C 
BRANCH  13  15
ATOM     14  OXT UNL     1      45.178 226.571 338.264  0.00  0.00    +0.000 OA
ATOM     15  C   UNL     1      46.091 226.473 339.071  0.00  0.00    +0.000 C 
BRANCH  15  16
ATOM     16  O   UNL     1      47.212 227.203 338.967  0.00  0.00    +0.000 OA
ATOM     17  H   UNL     1      47.864 226.604 338.546  0.00  0.00    +0.000 HD
ENDBRANCH  15  16
ENDBRANCH  13  15
BRANCH  13  18
ATOM     18  CB  UNL     1      46.326 224.168 340.108  0.00  0.00    +0.000 C 
ATOM     19  CG  UNL     1      46.608 222.667 339.979  0.00  0.00    +0.000 C 
BRANCH  19  21
ATOM     20  OE2 UNL     1      46.304 220.525 339.096  0.00  0.00    +0.000 OA
ATOM     21  CD  UNL     1      46.874 221.264 339.878  0.00  0.00    +0.000 C 
BRANCH  21  22
ATOM     22  OE1 UNL     1      47.804 220.819 340.742  0.00  0.00    +0.000 OA
ATOM     23  HE1 UNL     1      47.361 220.898 341.611  0.00  0.00    +0.000 HD
ENDBRANCH  21  22
ENDBRANCH  19  21
ENDBRANCH  13  18
ENDBRANCH   6  11
ENDBRANCH   1   3
BRANCH   1  24
ATOM     24  C   UNL     1      44.886 230.333 346.956  0.00  0.00    +0.000 C 
BRANCH  24  31
ATOM     25  O   UNL     1      44.052 234.648 344.065  0.00  0.00    +0.000 OA
ATOM     26  N   UNL     1      44.797 232.605 345.993  0.00  0.00    +0.000 N 
ATOM     27  N   UNL     1      46.810 233.577 347.867  0.00  0.00    +0.000 N 
ATOM     28  N   UNL     1      46.868 235.642 346.730  0.00  0.00    +0.000 NA
ATOM     29  N   UNL     1      45.419 236.151 344.999  0.00  0.00    +0.000 N 
ATOM     30  N   UNL     1      46.932 237.717 345.747  0.00  0.00    +0.000 N 
ATOM     31  C   UNL     1      45.324 231.682 346.890  0.00  0.00    +0.000 C 
ATOM     32  C   UNL     1      46.304 232.248 347.721  0.00  0.00    +0.000 C 
ATOM     33  C   UNL     1      45.335 233.921 345.973  0.00  0.00    +0.000 A 
ATOM     34  C   UNL     1      46.308 234.386 346.831  0.00  0.00    +0.000 A 
ATOM     35  C   UNL     1      44.870 234.907 344.942  0.00  0.00    +0.000 A 
ATOM     36  C   UNL     1      46.417 236.470 345.851  0.00  0.00    +0.000 A 
ATOM     37  H   UNL     1      47.791 233.777 348.035  0.00  0.00    +0.000 HD
ATOM     38  H   UNL     1      45.138 236.792 344.275  0.00  0.00    +0.000 HD
ATOM     39  H   UNL     1      47.520 237.957 346.541  0.00  0.00    +0.000 HD
ATOM     40  H   UNL     1      46.289 238.459 345.502  0.00  0.00    +0.000 HD
BRANCH  26  42
ATOM     41  O   UNL     1      43.001 231.787 344.417  0.00  0.00    +0.000 OA
ATOM     42  C   UNL     1      43.821 232.203 345.149  0.00  0.00    +0.000 C 
ENDBRANCH  26  42
ENDBRANCH  24  31
ENDBRANCH   1  24
TORSDOF 10
ENDMDL
