MODEL 1
REMARK VINA RESULT:      -5.6      0.000      0.000
REMARK  Name = 135423438_Nintedanib.pdbqt.pdb
REMARK  9 active torsions:
REMARK  status: ('A' for Active; 'I' for Inactive)
REMARK    1  A    between atoms: N_1  and  C_22
REMARK    2  A    between atoms: C_2  and  C_4
REMARK    3  A    between atoms: C_2  and  C_37
REMARK    4  A    between atoms: C_7  and  O_13
REMARK    5  A    between atoms: C_10  and  C_16
REMARK    6  A    between atoms: C_16  and  O_17
REMARK    7  A    between atoms: C_19  and  N_26
REMARK    8  A    between atoms: C_27  and  C_29
REMARK    9  A    between atoms: C_29  and  N_30
REMARK                            x       y       z     vdW  Elec       q    Type
REMARK                         _______ _______ _______ _____ _____    ______ ____
ROOT
ATOM      1  N   UNL     1      67.827 238.082 338.367  0.00  0.00    +0.000 NA
ATOM      2  C   UNL     1      67.319 239.056 337.668  0.00  0.00    +0.000 C 
ENDROOT
BRANCH   2   4
ATOM      3  N   UNL     1      68.491 238.553 334.234  0.00  0.00    +0.000 N 
ATOM      4  C   UNL     1      67.658 239.088 336.240  0.00  0.00    +0.000 A 
ATOM      5  C   UNL     1      67.305 240.110 335.290  0.00  0.00    +0.000 A 
ATOM      6  C   UNL     1      67.836 239.745 334.054  0.00  0.00    +0.000 A 
ATOM      7  C   UNL     1      68.399 238.144 335.540  0.00  0.00    +0.000 A 
ATOM      8  C   UNL     1      66.573 241.313 335.370  0.00  0.00    +0.000 A 
ATOM      9  C   UNL     1      67.679 240.518 332.899  0.00  0.00    +0.000 A 
ATOM     10  C   UNL     1      66.951 241.709 333.012  0.00  0.00    +0.000 A 
ATOM     11  C   UNL     1      66.404 242.100 334.229  0.00  0.00    +0.000 A 
ATOM     12  H   UNL     1      68.975 238.058 333.499  0.00  0.00    +0.000 HD
BRANCH   7  13
ATOM     13  O   UNL     1      68.975 237.021 335.955  0.00  0.00    +0.000 OA
ATOM     14  H   UNL     1      68.840 236.305 335.309  0.00  0.00    +0.000 HD
ENDBRANCH   7  13
BRANCH  10  16
ATOM     15  O   UNL     1      65.633 243.032 331.547  0.00  0.00    +0.000 OA
ATOM     16  C   UNL     1      66.733 242.589 331.843  0.00  0.00    +0.000 C 
BRANCH  16  17
ATOM     17  O   UNL     1      67.928 242.785 331.217  0.00  0.00    +0.000 OA
ATOM     18  C   UNL     1      67.968 242.675 329.817  0.00  0.00    +0.000 C 
ENDBRANCH  16  17
ENDBRANCH  10  16
ENDBRANCH   2   4
BRANCH   1  22
ATOM     19  C   UNL     1      67.155 237.683 342.525  0.00  0.00    +0.000 A 
ATOM     20  C   UNL     1      66.319 237.073 341.587  0.00  0.00    +0.000 A 
ATOM     21  C   UNL     1      68.229 238.435 342.030  0.00  0.00    +0.000 A 
ATOM     22  C   UNL     1      67.589 237.986 339.743  0.00  0.00    +0.000 A 
ATOM     23  C   UNL     1      66.532 237.209 340.216  0.00  0.00    +0.000 A 
ATOM     24  C   UNL     1      68.452 238.579 340.662  0.00  0.00    +0.000 A 
BRANCH  19  26
ATOM     25  O   UNL     1      65.284 239.251 344.080  0.00  0.00    +0.000 OA
ATOM     26  N   UNL     1      66.934 237.550 343.947  0.00  0.00    +0.000 N 
ATOM     27  C   UNL     1      65.985 238.383 344.591  0.00  0.00    +0.000 C 
ATOM     28  C   UNL     1      67.749 236.530 344.614  0.00  0.00    +0.000 C 
BRANCH  27  29
ATOM     29  C   UNL     1      65.823 238.196 346.027  0.00  0.00    +0.000 C 
BRANCH  29  30
ATOM     30  N   UNL     1      65.674 238.035 347.471  0.00  0.00    +0.000 N 
ATOM     31  N   UNL     1      67.683 235.504 348.940  0.00  0.00    +0.000 N 
ATOM     32  C   UNL     1      65.431 236.587 347.720  0.00  0.00    +0.000 C 
ATOM     33  C   UNL     1      67.049 238.060 348.044  0.00  0.00    +0.000 C 
ATOM     34  C   UNL     1      66.312 235.476 348.361  0.00  0.00    +0.000 C 
ATOM     35  C   UNL     1      67.931 236.948 348.685  0.00  0.00    +0.000 C 
ATOM     36  C   UNL     1      68.541 234.760 348.028  0.00  0.00    +0.000 C 
ENDBRANCH  29  30
ENDBRANCH  27  29
ENDBRANCH  19  26
ENDBRANCH   1  22
BRANCH   2  37
ATOM     37  C   UNL     1      66.445 240.114 338.206  0.00  0.00    +0.000 A 
ATOM     38  C   UNL     1      65.065 239.918 338.230  0.00  0.00    +0.000 A 
ATOM     39  C   UNL     1      67.020 241.278 338.713  0.00  0.00    +0.000 A 
ATOM     40  C   UNL     1      64.249 240.910 338.764  0.00  0.00    +0.000 A 
ATOM     41  C   UNL     1      66.196 242.264 339.243  0.00  0.00    +0.000 A 
ATOM     42  C   UNL     1      64.813 242.081 339.269  0.00  0.00    +0.000 A 
ENDBRANCH   2  37
TORSDOF 9
ENDMDL
MODEL 2
REMARK VINA RESULT:      -5.6     17.697     20.971
REMARK  Name = 135423438_Nintedanib.pdbqt.pdb
REMARK  9 active torsions:
REMARK  status: ('A' for Active; 'I' for Inactive)
REMARK    1  A    between atoms: N_1  and  C_22
REMARK    2  A    between atoms: C_2  and  C_4
REMARK    3  A    between atoms: C_2  and  C_37
REMARK    4  A    between atoms: C_7  and  O_13
REMARK    5  A    between atoms: C_10  and  C_16
REMARK    6  A    between atoms: C_16  and  O_17
REMARK    7  A    between atoms: C_19  and  N_26
REMARK    8  A    between atoms: C_27  and  C_29
REMARK    9  A    between atoms: C_29  and  N_30
REMARK                            x       y       z     vdW  Elec       q    Type
REMARK                         _______ _______ _______ _____ _____    ______ ____
ROOT
ATOM      1  N   UNL     1      70.289 221.771 337.764  0.00  0.00    +0.000 NA
ATOM      2  C   UNL     1      71.151 221.644 338.731  0.00  0.00    +0.000 C 
ENDROOT
BRANCH   2   4
ATOM      3  N   UNL     1      73.504 224.428 338.365  0.00  0.00    +0.000 N 
ATOM      4  C   UNL     1      72.189 222.679 338.826  0.00  0.00    +0.000 A 
ATOM      5  C   UNL     1      73.149 222.844 339.886  0.00  0.00    +0.000 A 
ATOM      6  C   UNL     1      73.948 223.942 339.569  0.00  0.00    +0.000 A 
ATOM      7  C   UNL     1      72.451 223.681 337.901  0.00  0.00    +0.000 A 
ATOM      8  C   UNL     1      73.406 222.162 341.093  0.00  0.00    +0.000 A 
ATOM      9  C   UNL     1      74.989 224.389 340.388  0.00  0.00    +0.000 A 
ATOM     10  C   UNL     1      75.222 223.687 341.578  0.00  0.00    +0.000 A 
ATOM     11  C   UNL     1      74.440 222.591 341.926  0.00  0.00    +0.000 A 
ATOM     12  H   UNL     1      73.908 225.225 337.894  0.00  0.00    +0.000 HD
BRANCH   7  13
ATOM     13  O   UNL     1      71.866 223.957 336.740  0.00  0.00    +0.000 OA
ATOM     14  H   UNL     1      71.255 224.708 336.832  0.00  0.00    +0.000 HD
ENDBRANCH   7  13
BRANCH  10  16
ATOM     15  O   UNL     1      77.330 224.628 342.127  0.00  0.00    +0.000 OA
ATOM     16  C   UNL     1      76.301 224.089 342.507  0.00  0.00    +0.000 C 
BRANCH  16  17
ATOM     17  O   UNL     1      75.930 223.756 343.776  0.00  0.00    +0.000 OA
ATOM     18  C   UNL     1      75.622 224.794 344.670  0.00  0.00    +0.000 C 
ENDBRANCH  16  17
ENDBRANCH  10  16
ENDBRANCH   2   4
BRANCH   1  22
ATOM     19  C   UNL     1      67.193 218.963 337.105  0.00  0.00    +0.000 A 
ATOM     20  C   UNL     1      67.020 220.056 337.958  0.00  0.00    +0.000 A 
ATOM     21  C   UNL     1      68.438 218.835 336.475  0.00  0.00    +0.000 A 
ATOM     22  C   UNL     1      69.282 220.817 337.571  0.00  0.00    +0.000 A 
ATOM     23  C   UNL     1      68.041 220.978 338.185  0.00  0.00    +0.000 A 
ATOM     24  C   UNL     1      69.466 219.751 336.693  0.00  0.00    +0.000 A 
BRANCH  19  26
ATOM     25  O   UNL     1      64.665 219.528 335.811  0.00  0.00    +0.000 OA
ATOM     26  N   UNL     1      66.139 218.001 336.873  0.00  0.00    +0.000 N 
ATOM     27  C   UNL     1      64.945 218.408 336.227  0.00  0.00    +0.000 C 
ATOM     28  C   UNL     1      66.415 216.645 337.355  0.00  0.00    +0.000 C 
BRANCH  27  29
ATOM     29  C   UNL     1      63.927 217.384 336.036  0.00  0.00    +0.000 C 
BRANCH  29  30
ATOM     30  N   UNL     1      62.907 216.350 335.874  0.00  0.00    +0.000 N 
ATOM     31  N   UNL     1      59.966 216.793 337.812  0.00  0.00    +0.000 N 
ATOM     32  C   UNL     1      62.536 215.895 337.243  0.00  0.00    +0.000 C 
ATOM     33  C   UNL     1      61.627 217.059 335.596  0.00  0.00    +0.000 C 
ATOM     34  C   UNL     1      61.248 216.091 338.094  0.00  0.00    +0.000 C 
ATOM     35  C   UNL     1      60.339 217.255 336.448  0.00  0.00    +0.000 C 
ATOM     36  C   UNL     1      59.934 217.973 338.665  0.00  0.00    +0.000 C 
ENDBRANCH  29  30
ENDBRANCH  27  29
ENDBRANCH  19  26
ENDBRANCH   1  22
BRANCH   2  37
ATOM     37  C   UNL     1      71.158 220.550 339.717  0.00  0.00    +0.000 A 
ATOM     38  C   UNL     1      70.374 220.655 340.865  0.00  0.00    +0.000 A 
ATOM     39  C   UNL     1      71.924 219.413 339.465  0.00  0.00    +0.000 A 
ATOM     40  C   UNL     1      70.366 219.605 341.778  0.00  0.00    +0.000 A 
ATOM     41  C   UNL     1      71.909 218.370 340.385  0.00  0.00    +0.000 A 
ATOM     42  C   UNL     1      71.132 218.465 341.539  0.00  0.00    +0.000 A 
ENDBRANCH   2  37
TORSDOF 9
ENDMDL
MODEL 3
REMARK VINA RESULT:      -5.6     22.501     24.632
REMARK  Name = 135423438_Nintedanib.pdbqt.pdb
REMARK  9 active torsions:
REMARK  status: ('A' for Active; 'I' for Inactive)
REMARK    1  A    between atoms: N_1  and  C_22
REMARK    2  A    between atoms: C_2  and  C_4
REMARK    3  A    between atoms: C_2  and  C_37
REMARK    4  A    between atoms: C_7  and  O_13
REMARK    5  A    between atoms: C_10  and  C_16
REMARK    6  A    between atoms: C_16  and  O_17
REMARK    7  A    between atoms: C_19  and  N_26
REMARK    8  A    between atoms: C_27  and  C_29
REMARK    9  A    between atoms: C_29  and  N_30
REMARK                            x       y       z     vdW  Elec       q    Type
REMARK                         _______ _______ _______ _____ _____    ______ ____
ROOT
ATOM      1  N   UNL     1      58.440 216.266 333.088  0.00  0.00    +0.000 NA
ATOM      2  C   UNL     1      57.659 216.614 334.070  0.00  0.00    +0.000 C 
ENDROOT
BRANCH   2   4
ATOM      3  N   UNL     1      54.243 215.293 334.022  0.00  0.00    +0.000 N 
ATOM      4  C   UNL     1      56.231 216.312 333.913  0.00  0.00    +0.000 A 
ATOM      5  C   UNL     1      55.250 217.107 333.220  0.00  0.00    +0.000 A 
ATOM      6  C   UNL     1      54.027 216.446 333.310  0.00  0.00    +0.000 A 
ATOM      7  C   UNL     1      55.561 215.193 334.389  0.00  0.00    +0.000 A 
ATOM      8  C   UNL     1      55.293 218.336 332.530  0.00  0.00    +0.000 A 
ATOM      9  C   UNL     1      52.848 216.943 332.744  0.00  0.00    +0.000 A 
ATOM     10  C   UNL     1      52.925 218.164 332.061  0.00  0.00    +0.000 A 
ATOM     11  C   UNL     1      54.129 218.851 331.957  0.00  0.00    +0.000 A 
ATOM     12  H   UNL     1      53.523 214.618 334.235  0.00  0.00    +0.000 HD
BRANCH   7  13
ATOM     13  O   UNL     1      56.010 214.147 335.075  0.00  0.00    +0.000 OA
ATOM     14  H   UNL     1      56.816 213.786 334.665  0.00  0.00    +0.000 HD
ENDBRANCH   7  13
BRANCH  10  16
ATOM     15  O   UNL     1      50.716 219.031 332.062  0.00  0.00    +0.000 OA
ATOM     16  C   UNL     1      51.729 218.767 331.432  0.00  0.00    +0.000 C 
BRANCH  16  17
ATOM     17  O   UNL     1      51.981 218.950 330.105  0.00  0.00    +0.000 OA
ATOM     18  C   UNL     1      51.093 218.381 329.177  0.00  0.00    +0.000 C 
ENDBRANCH  16  17
ENDBRANCH  10  16
ENDBRANCH   2   4
BRANCH   1  22
ATOM     19  C   UNL     1      62.602 217.029 333.120  0.00  0.00    +0.000 A 
ATOM     20  C   UNL     1      62.071 215.844 333.635  0.00  0.00    +0.000 A 
ATOM     21  C   UNL     1      61.695 217.958 332.592  0.00  0.00    +0.000 A 
ATOM     22  C   UNL     1      59.812 216.542 333.130  0.00  0.00    +0.000 A 
ATOM     23  C   UNL     1      60.700 215.593 333.634  0.00  0.00    +0.000 A 
ATOM     24  C   UNL     1      60.322 217.719 332.585  0.00  0.00    +0.000 A 
BRANCH  19  26
ATOM     25  O   UNL     1      64.069 218.232 335.307  0.00  0.00    +0.000 OA
ATOM     26  N   UNL     1      64.022 217.296 333.126  0.00  0.00    +0.000 N 
ATOM     27  C   UNL     1      64.620 217.893 334.264  0.00  0.00    +0.000 C 
ATOM     28  C   UNL     1      64.734 216.917 331.902  0.00  0.00    +0.000 C 
BRANCH  27  29
ATOM     29  C   UNL     1      66.054 218.139 334.193  0.00  0.00    +0.000 C 
BRANCH  29  30
ATOM     30  N   UNL     1      67.487 218.408 334.101  0.00  0.00    +0.000 N 
ATOM     31  N   UNL     1      68.839 220.382 336.723  0.00  0.00    +0.000 N 
ATOM     32  C   UNL     1      67.659 219.879 334.256  0.00  0.00    +0.000 C 
ATOM     33  C   UNL     1      68.071 218.046 335.423  0.00  0.00    +0.000 C 
ATOM     34  C   UNL     1      68.249 220.745 335.406  0.00  0.00    +0.000 C 
ATOM     35  C   UNL     1      68.661 218.913 336.574  0.00  0.00    +0.000 C 
ATOM     36  C   UNL     1      67.896 220.821 337.744  0.00  0.00    +0.000 C 
ENDBRANCH  29  30
ENDBRANCH  27  29
ENDBRANCH  19  26
ENDBRANCH   1  22
BRANCH   2  37
ATOM     37  C   UNL     1      58.104 217.284 335.305  0.00  0.00    +0.000 A 
ATOM     38  C   UNL     1      57.925 218.659 335.442  0.00  0.00    +0.000 A 
ATOM     39  C   UNL     1      58.665 216.520 336.327  0.00  0.00    +0.000 A 
ATOM     40  C   UNL     1      58.324 219.279 336.623  0.00  0.00    +0.000 A 
ATOM     41  C   UNL     1      59.061 217.150 337.503  0.00  0.00    +0.000 A 
ATOM     42  C   UNL     1      58.891 218.526 337.650  0.00  0.00    +0.000 A 
ENDBRANCH   2  37
TORSDOF 9
ENDMDL
MODEL 4
REMARK VINA RESULT:      -5.6      3.079     11.941
REMARK  Name = 135423438_Nintedanib.pdbqt.pdb
REMARK  9 active torsions:
REMARK  status: ('A' for Active; 'I' for Inactive)
REMARK    1  A    between atoms: N_1  and  C_22
REMARK    2  A    between atoms: C_2  and  C_4
REMARK    3  A    between atoms: C_2  and  C_37
REMARK    4  A    between atoms: C_7  and  O_13
REMARK    5  A    between atoms: C_10  and  C_16
REMARK    6  A    between atoms: C_16  and  O_17
REMARK    7  A    between atoms: C_19  and  N_26
REMARK    8  A    between atoms: C_27  and  C_29
REMARK    9  A    between atoms: C_29  and  N_30
REMARK                            x       y       z     vdW  Elec       q    Type
REMARK                         _______ _______ _______ _____ _____    ______ ____
ROOT
ATOM      1  N   UNL     1      67.185 239.920 338.446  0.00  0.00    +0.000 NA
ATOM      2  C   UNL     1      66.491 240.212 339.508  0.00  0.00    +0.000 C 
ENDROOT
BRANCH   2   4
ATOM      3  N   UNL     1      67.276 237.637 341.993  0.00  0.00    +0.000 N 
ATOM      4  C   UNL     1      66.690 239.352 340.682  0.00  0.00    +0.000 A 
ATOM      5  C   UNL     1      66.271 239.621 342.032  0.00  0.00    +0.000 A 
ATOM      6  C   UNL     1      66.654 238.538 342.821  0.00  0.00    +0.000 A 
ATOM      7  C   UNL     1      67.304 238.106 340.704  0.00  0.00    +0.000 A 
ATOM      8  C   UNL     1      65.606 240.696 342.657  0.00  0.00    +0.000 A 
ATOM      9  C   UNL     1      66.404 238.468 344.195  0.00  0.00    +0.000 A 
ATOM     10  C   UNL     1      65.738 239.550 344.785  0.00  0.00    +0.000 A 
ATOM     11  C   UNL     1      65.347 240.649 344.028  0.00  0.00    +0.000 A 
ATOM     12  H   UNL     1      67.653 236.753 342.302  0.00  0.00    +0.000 HD
BRANCH   7  13
ATOM     13  O   UNL     1      67.844 237.394 339.721  0.00  0.00    +0.000 OA
ATOM     14  H   UNL     1      68.804 237.301 339.850  0.00  0.00    +0.000 HD
ENDBRANCH   7  13
BRANCH  10  16
ATOM     15  O   UNL     1      64.916 238.616 346.806  0.00  0.00    +0.000 OA
ATOM     16  C   UNL     1      65.432 239.565 346.233  0.00  0.00    +0.000 C 
BRANCH  16  17
ATOM     17  O   UNL     1      65.817 240.767 346.748  0.00  0.00    +0.000 OA
ATOM     18  C   UNL     1      66.968 240.804 347.552  0.00  0.00    +0.000 C 
ENDBRANCH  16  17
ENDBRANCH  10  16
ENDBRANCH   2   4
BRANCH   1  22
ATOM     19  C   UNL     1      66.663 242.231 334.941  0.00  0.00    +0.000 A 
ATOM     20  C   UNL     1      65.739 241.252 335.316  0.00  0.00    +0.000 A 
ATOM     21  C   UNL     1      67.773 242.416 335.776  0.00  0.00    +0.000 A 
ATOM     22  C   UNL     1      67.039 240.662 337.268  0.00  0.00    +0.000 A 
ATOM     23  C   UNL     1      65.913 240.483 336.465  0.00  0.00    +0.000 A 
ATOM     24  C   UNL     1      67.957 241.654 336.928  0.00  0.00    +0.000 A 
BRANCH  19  26
ATOM     25  O   UNL     1      66.897 241.247 332.229  0.00  0.00    +0.000 OA
ATOM     26  N   UNL     1      66.490 243.026 333.746  0.00  0.00    +0.000 N 
ATOM     27  C   UNL     1      66.634 242.420 332.472  0.00  0.00    +0.000 C 
ATOM     28  C   UNL     1      66.180 244.440 333.975  0.00  0.00    +0.000 C 
BRANCH  27  29
ATOM     29  C   UNL     1      66.454 243.287 331.316  0.00  0.00    +0.000 C 
BRANCH  29  30
ATOM     30  N   UNL     1      66.245 244.163 330.165  0.00  0.00    +0.000 N 
ATOM     31  N   UNL     1      65.679 247.582 330.935  0.00  0.00    +0.000 N 
ATOM     32  C   UNL     1      64.999 244.933 330.431  0.00  0.00    +0.000 C 
ATOM     33  C   UNL     1      67.175 245.314 330.336  0.00  0.00    +0.000 C 
ATOM     34  C   UNL     1      64.750 246.431 330.772  0.00  0.00    +0.000 C 
ATOM     35  C   UNL     1      66.926 246.813 330.677  0.00  0.00    +0.000 C 
ATOM     36  C   UNL     1      65.679 247.927 332.350  0.00  0.00    +0.000 C 
ENDBRANCH  29  30
ENDBRANCH  27  29
ENDBRANCH  19  26
ENDBRANCH   1  22
BRANCH   2  37
ATOM     37  C   UNL     1      65.532 241.327 339.610  0.00  0.00    +0.000 A 
ATOM     38  C   UNL     1      64.166 241.068 339.515  0.00  0.00    +0.000 A 
ATOM     39  C   UNL     1      66.011 242.617 339.834  0.00  0.00    +0.000 A 
ATOM     40  C   UNL     1      63.266 242.122 339.638  0.00  0.00    +0.000 A 
ATOM     41  C   UNL     1      65.103 243.664 339.955  0.00  0.00    +0.000 A 
ATOM     42  C   UNL     1      63.734 243.417 339.858  0.00  0.00    +0.000 A 
ENDBRANCH   2  37
TORSDOF 9
ENDMDL
MODEL 5
REMARK VINA RESULT:      -5.5     18.621     22.794
REMARK  Name = 135423438_Nintedanib.pdbqt.pdb
REMARK  9 active torsions:
REMARK  status: ('A' for Active; 'I' for Inactive)
REMARK    1  A    between atoms: N_1  and  C_22
REMARK    2  A    between atoms: C_2  and  C_4
REMARK    3  A    between atoms: C_2  and  C_37
REMARK    4  A    between atoms: C_7  and  O_13
REMARK    5  A    between atoms: C_10  and  C_16
REMARK    6  A    between atoms: C_16  and  O_17
REMARK    7  A    between atoms: C_19  and  N_26
REMARK    8  A    between atoms: C_27  and  C_29
REMARK    9  A    between atoms: C_29  and  N_30
REMARK                            x       y       z     vdW  Elec       q    Type
REMARK                         _______ _______ _______ _____ _____    ______ ____
ROOT
ATOM      1  N   UNL     1      66.481 219.895 336.333  0.00  0.00    +0.000 NA
ATOM      2  C   UNL     1      67.392 219.045 336.709  0.00  0.00    +0.000 C 
ENDROOT
BRANCH   2   4
ATOM      3  N   UNL     1      68.063 218.940 340.309  0.00  0.00    +0.000 N 
ATOM      4  C   UNL     1      67.872 219.165 338.092  0.00  0.00    +0.000 A 
ATOM      5  C   UNL     1      68.994 219.939 338.554  0.00  0.00    +0.000 A 
ATOM      6  C   UNL     1      69.086 219.774 339.934  0.00  0.00    +0.000 A 
ATOM      7  C   UNL     1      67.320 218.566 339.218  0.00  0.00    +0.000 A 
ATOM      8  C   UNL     1      69.947 220.760 337.918  0.00  0.00    +0.000 A 
ATOM      9  C   UNL     1      70.072 220.389 340.712  0.00  0.00    +0.000 A 
ATOM     10  C   UNL     1      71.002 221.203 340.051  0.00  0.00    +0.000 A 
ATOM     11  C   UNL     1      70.941 221.384 338.674  0.00  0.00    +0.000 A 
ATOM     12  H   UNL     1      67.889 218.652 341.261  0.00  0.00    +0.000 HD
BRANCH   7  13
ATOM     13  O   UNL     1      66.263 217.770 339.341  0.00  0.00    +0.000 OA
ATOM     14  H   UNL     1      65.914 217.524 338.466  0.00  0.00    +0.000 HD
ENDBRANCH   7  13
BRANCH  10  16
ATOM     15  O   UNL     1      72.651 222.882 340.355  0.00  0.00    +0.000 OA
ATOM     16  C   UNL     1      72.081 221.893 340.791  0.00  0.00    +0.000 C 
BRANCH  16  17
ATOM     17  O   UNL     1      72.286 221.241 341.971  0.00  0.00    +0.000 OA
ATOM     18  C   UNL     1      73.596 221.175 342.472  0.00  0.00    +0.000 C 
ENDBRANCH  16  17
ENDBRANCH  10  16
ENDBRANCH   2   4
BRANCH   1  22
ATOM     19  C   UNL     1      65.073 219.782 332.344  0.00  0.00    +0.000 A 
ATOM     20  C   UNL     1      66.169 220.567 332.711  0.00  0.00    +0.000 A 
ATOM     21  C   UNL     1      64.457 219.032 333.355  0.00  0.00    +0.000 A 
ATOM     22  C   UNL     1      65.986 219.882 335.023  0.00  0.00    +0.000 A 
ATOM     23  C   UNL     1      66.630 220.614 334.026  0.00  0.00    +0.000 A 
ATOM     24  C   UNL     1      64.909 219.070 334.673  0.00  0.00    +0.000 A 
BRANCH  19  26
ATOM     25  O   UNL     1      63.230 221.675 331.162  0.00  0.00    +0.000 OA
ATOM     26  N   UNL     1      64.587 219.736 330.983  0.00  0.00    +0.000 N 
ATOM     27  C   UNL     1      63.683 220.728 330.527  0.00  0.00    +0.000 C 
ATOM     28  C   UNL     1      65.091 218.620 330.178  0.00  0.00    +0.000 C 
BRANCH  27  29
ATOM     29  C   UNL     1      63.232 220.610 329.147  0.00  0.00    +0.000 C 
BRANCH  29  30
ATOM     30  N   UNL     1      62.760 220.471 327.771  0.00  0.00    +0.000 N 
ATOM     31  N   UNL     1      61.054 223.290 326.451  0.00  0.00    +0.000 N 
ATOM     32  C   UNL     1      61.321 220.856 327.769  0.00  0.00    +0.000 C 
ATOM     33  C   UNL     1      63.241 221.673 327.035  0.00  0.00    +0.000 C 
ATOM     34  C   UNL     1      60.573 222.093 327.193  0.00  0.00    +0.000 C 
ATOM     35  C   UNL     1      62.492 222.911 326.459  0.00  0.00    +0.000 C 
ATOM     36  C   UNL     1      60.911 224.428 327.348  0.00  0.00    +0.000 C 
ENDBRANCH  29  30
ENDBRANCH  27  29
ENDBRANCH  19  26
ENDBRANCH   1  22
BRANCH   2  37
ATOM     37  C   UNL     1      67.967 217.991 335.855  0.00  0.00    +0.000 A 
ATOM     38  C   UNL     1      69.111 218.262 335.107  0.00  0.00    +0.000 A 
ATOM     39  C   UNL     1      67.373 216.730 335.840  0.00  0.00    +0.000 A 
ATOM     40  C   UNL     1      69.663 217.253 334.324  0.00  0.00    +0.000 A 
ATOM     41  C   UNL     1      67.932 215.728 335.053  0.00  0.00    +0.000 A 
ATOM     42  C   UNL     1      69.075 215.989 334.297  0.00  0.00    +0.000 A 
ENDBRANCH   2  37
TORSDOF 9
ENDMDL
MODEL 6
REMARK VINA RESULT:      -5.5     17.240     19.534
REMARK  Name = 135423438_Nintedanib.pdbqt.pdb
REMARK  9 active torsions:
REMARK  status: ('A' for Active; 'I' for Inactive)
REMARK    1  A    between atoms: N_1  and  C_22
REMARK    2  A    between atoms: C_2  and  C_4
REMARK    3  A    between atoms: C_2  and  C_37
REMARK    4  A    between atoms: C_7  and  O_13
REMARK    5  A    between atoms: C_10  and  C_16
REMARK    6  A    between atoms: C_16  and  O_17
REMARK    7  A    between atoms: C_19  and  N_26
REMARK    8  A    between atoms: C_27  and  C_29
REMARK    9  A    between atoms: C_29  and  N_30
REMARK                            x       y       z     vdW  Elec       q    Type
REMARK                         _______ _______ _______ _____ _____    ______ ____
ROOT
ATOM      1  N   UNL     1      69.344 219.460 339.786  0.00  0.00    +0.000 NA
ATOM      2  C   UNL     1      68.969 220.114 338.725  0.00  0.00    +0.000 C 
ENDROOT
BRANCH   2   4
ATOM      3  N   UNL     1      65.736 218.718 337.714  0.00  0.00    +0.000 N 
ATOM      4  C   UNL     1      67.732 219.660 338.075  0.00  0.00    +0.000 A 
ATOM      5  C   UNL     1      67.361 219.847 336.697  0.00  0.00    +0.000 A 
ATOM      6  C   UNL     1      66.115 219.252 336.508  0.00  0.00    +0.000 A 
ATOM      7  C   UNL     1      66.696 218.948 338.666  0.00  0.00    +0.000 A 
ATOM      8  C   UNL     1      67.971 220.477 335.593  0.00  0.00    +0.000 A 
ATOM      9  C   UNL     1      65.450 219.248 335.277  0.00  0.00    +0.000 A 
ATOM     10  C   UNL     1      66.085 219.879 334.199  0.00  0.00    +0.000 A 
ATOM     11  C   UNL     1      67.326 220.486 334.355  0.00  0.00    +0.000 A 
ATOM     12  H   UNL     1      64.870 218.221 337.864  0.00  0.00    +0.000 HD
BRANCH   7  13
ATOM     13  O   UNL     1      66.554 218.507 339.911  0.00  0.00    +0.000 OA
ATOM     14  H   UNL     1      66.670 217.541 339.950  0.00  0.00    +0.000 HD
ENDBRANCH   7  13
BRANCH  10  16
ATOM     15  O   UNL     1      66.010 220.425 331.891  0.00  0.00    +0.000 OA
ATOM     16  C   UNL     1      65.457 219.926 332.860  0.00  0.00    +0.000 C 
BRANCH  16  17
ATOM     17  O   UNL     1      64.229 219.340 332.934  0.00  0.00    +0.000 OA
ATOM     18  C   UNL     1      63.443 219.299 331.771  0.00  0.00    +0.000 C 
ENDBRANCH  16  17
ENDBRANCH  10  16
ENDBRANCH   2   4
BRANCH   1  22
ATOM     19  C   UNL     1      72.873 220.433 341.907  0.00  0.00    +0.000 A 
ATOM     20  C   UNL     1      71.730 221.232 341.984  0.00  0.00    +0.000 A 
ATOM     21  C   UNL     1      72.803 219.293 341.095  0.00  0.00    +0.000 A 
ATOM     22  C   UNL     1      70.527 219.796 340.454  0.00  0.00    +0.000 A 
ATOM     23  C   UNL     1      70.568 220.919 341.279  0.00  0.00    +0.000 A 
ATOM     24  C   UNL     1      71.648 218.970 340.386  0.00  0.00    +0.000 A 
BRANCH  19  26
ATOM     25  O   UNL     1      73.339 219.899 344.714  0.00  0.00    +0.000 OA
ATOM     26  N   UNL     1      74.082 220.758 342.630  0.00  0.00    +0.000 N 
ATOM     27  C   UNL     1      74.183 220.442 344.008  0.00  0.00    +0.000 C 
ATOM     28  C   UNL     1      75.126 221.416 341.839  0.00  0.00    +0.000 C 
BRANCH  27  29
ATOM     29  C   UNL     1      75.428 220.807 344.670  0.00  0.00    +0.000 C 
BRANCH  29  30
ATOM     30  N   UNL     1      76.684 221.144 345.335  0.00  0.00    +0.000 N 
ATOM     31  N   UNL     1      76.554 223.946 347.512  0.00  0.00    +0.000 N 
ATOM     32  C   UNL     1      76.915 222.598 345.106  0.00  0.00    +0.000 C 
ATOM     33  C   UNL     1      76.375 221.266 346.787  0.00  0.00    +0.000 C 
ATOM     34  C   UNL     1      76.856 223.826 346.059  0.00  0.00    +0.000 C 
ATOM     35  C   UNL     1      76.315 222.495 347.740  0.00  0.00    +0.000 C 
ATOM     36  C   UNL     1      75.263 224.610 347.622  0.00  0.00    +0.000 C 
ENDBRANCH  29  30
ENDBRANCH  27  29
ENDBRANCH  19  26
ENDBRANCH   1  22
BRANCH   2  37
ATOM     37  C   UNL     1      69.691 221.257 338.138  0.00  0.00    +0.000 A 
ATOM     38  C   UNL     1      70.851 221.030 337.400  0.00  0.00    +0.000 A 
ATOM     39  C   UNL     1      69.179 222.542 338.306  0.00  0.00    +0.000 A 
ATOM     40  C   UNL     1      71.512 222.112 336.828  0.00  0.00    +0.000 A 
ATOM     41  C   UNL     1      69.847 223.617 337.730  0.00  0.00    +0.000 A 
ATOM     42  C   UNL     1      71.012 223.403 336.992  0.00  0.00    +0.000 A 
ENDBRANCH   2  37
TORSDOF 9
ENDMDL
MODEL 7
REMARK VINA RESULT:      -5.5     17.095     19.345
REMARK  Name = 135423438_Nintedanib.pdbqt.pdb
REMARK  9 active torsions:
REMARK  status: ('A' for Active; 'I' for Inactive)
REMARK    1  A    between atoms: N_1  and  C_22
REMARK    2  A    between atoms: C_2  and  C_4
REMARK    3  A    between atoms: C_2  and  C_37
REMARK    4  A    between atoms: C_7  and  O_13
REMARK    5  A    between atoms: C_10  and  C_16
REMARK    6  A    between atoms: C_16  and  O_17
REMARK    7  A    between atoms: C_19  and  N_26
REMARK    8  A    between atoms: C_27  and  C_29
REMARK    9  A    between atoms: C_29  and  N_30
REMARK                            x       y       z     vdW  Elec       q    Type
REMARK                         _______ _______ _______ _____ _____    ______ ____
ROOT
ATOM      1  N   UNL     1      72.119 223.761 336.710  0.00  0.00    +0.000 NA
ATOM      2  C   UNL     1      73.249 223.793 337.356  0.00  0.00    +0.000 C 
ENDROOT
BRANCH   2   4
ATOM      3  N   UNL     1      75.595 226.539 336.738  0.00  0.00    +0.000 N 
ATOM      4  C   UNL     1      74.251 224.757 336.881  0.00  0.00    +0.000 A 
ATOM      5  C   UNL     1      75.005 224.687 335.656  0.00  0.00    +0.000 A 
ATOM      6  C   UNL     1      75.831 225.807 335.601  0.00  0.00    +0.000 A 
ATOM      7  C   UNL     1      74.646 225.926 337.517  0.00  0.00    +0.000 A 
ATOM      8  C   UNL     1      75.063 223.765 334.591  0.00  0.00    +0.000 A 
ATOM      9  C   UNL     1      76.706 226.058 334.539  0.00  0.00    +0.000 A 
ATOM     10  C   UNL     1      76.738 225.125 333.494  0.00  0.00    +0.000 A 
ATOM     11  C   UNL     1      75.929 223.994 333.521  0.00  0.00    +0.000 A 
ATOM     12  H   UNL     1      76.059 227.408 336.957  0.00  0.00    +0.000 HD
BRANCH   7  13
ATOM     13  O   UNL     1      74.243 226.462 338.664  0.00  0.00    +0.000 OA
ATOM     14  H   UNL     1      74.240 227.434 338.609  0.00  0.00    +0.000 HD
ENDBRANCH   7  13
BRANCH  10  16
ATOM     15  O   UNL     1      77.258 225.140 331.179  0.00  0.00    +0.000 OA
ATOM     16  C   UNL     1      77.632 225.307 332.331  0.00  0.00    +0.000 C 
BRANCH  16  17
ATOM     17  O   UNL     1      78.866 225.671 332.782  0.00  0.00    +0.000 OA
ATOM     18  C   UNL     1      79.789 224.656 333.080  0.00  0.00    +0.000 C 
ENDBRANCH  16  17
ENDBRANCH  10  16
ENDBRANCH   2   4
BRANCH   1  22
ATOM     19  C   UNL     1      69.164 220.960 337.860  0.00  0.00    +0.000 A 
ATOM     20  C   UNL     1      70.144 220.644 336.916  0.00  0.00    +0.000 A 
ATOM     21  C   UNL     1      69.200 222.248 338.411  0.00  0.00    +0.000 A 
ATOM     22  C   UNL     1      71.115 222.853 337.067  0.00  0.00    +0.000 A 
ATOM     23  C   UNL     1      71.114 221.567 336.528  0.00  0.00    +0.000 A 
ATOM     24  C   UNL     1      70.165 223.180 338.032  0.00  0.00    +0.000 A 
BRANCH  19  26
ATOM     25  O   UNL     1      69.477 218.952 339.921  0.00  0.00    +0.000 OA
ATOM     26  N   UNL     1      68.151 220.008 338.259  0.00  0.00    +0.000 N 
ATOM     27  C   UNL     1      68.434 219.073 339.286  0.00  0.00    +0.000 C 
ATOM     28  C   UNL     1      66.884 220.102 337.529  0.00  0.00    +0.000 C 
BRANCH  27  29
ATOM     29  C   UNL     1      67.368 218.141 339.627  0.00  0.00    +0.000 C 
BRANCH  29  30
ATOM     30  N   UNL     1      66.296 217.219 339.997  0.00  0.00    +0.000 N 
ATOM     31  N   UNL     1      67.077 213.770 339.690  0.00  0.00    +0.000 N 
ATOM     32  C   UNL     1      66.146 216.259 338.869  0.00  0.00    +0.000 C 
ATOM     33  C   UNL     1      66.889 216.242 340.952  0.00  0.00    +0.000 C 
ATOM     34  C   UNL     1      66.491 214.748 338.733  0.00  0.00    +0.000 C 
ATOM     35  C   UNL     1      67.235 214.730 340.815  0.00  0.00    +0.000 C 
ATOM     36  C   UNL     1      68.416 213.459 339.208  0.00  0.00    +0.000 C 
ENDBRANCH  29  30
ENDBRANCH  27  29
ENDBRANCH  19  26
ENDBRANCH   1  22
BRANCH   2  37
ATOM     37  C   UNL     1      73.587 222.940 338.509  0.00  0.00    +0.000 A 
ATOM     38  C   UNL     1      73.170 223.314 339.785  0.00  0.00    +0.000 A 
ATOM     39  C   UNL     1      74.290 221.756 338.294  0.00  0.00    +0.000 A 
ATOM     40  C   UNL     1      73.470 222.489 340.864  0.00  0.00    +0.000 A 
ATOM     41  C   UNL     1      74.586 220.938 339.381  0.00  0.00    +0.000 A 
ATOM     42  C   UNL     1      74.177 221.304 340.663  0.00  0.00    +0.000 A 
ENDBRANCH   2  37
TORSDOF 9
ENDMDL
MODEL 8
REMARK VINA RESULT:      -5.5     16.874     19.872
REMARK  Name = 135423438_Nintedanib.pdbqt.pdb
REMARK  9 active torsions:
REMARK  status: ('A' for Active; 'I' for Inactive)
REMARK    1  A    between atoms: N_1  and  C_22
REMARK    2  A    between atoms: C_2  and  C_4
REMARK    3  A    between atoms: C_2  and  C_37
REMARK    4  A    between atoms: C_7  and  O_13
REMARK    5  A    between atoms: C_10  and  C_16
REMARK    6  A    between atoms: C_16  and  O_17
REMARK    7  A    between atoms: C_19  and  N_26
REMARK    8  A    between atoms: C_27  and  C_29
REMARK    9  A    between atoms: C_29  and  N_30
REMARK                            x       y       z     vdW  Elec       q    Type
REMARK                         _______ _______ _______ _____ _____    ______ ____
ROOT
ATOM      1  N   UNL     1      72.295 223.842 336.804  0.00  0.00    +0.000 NA
ATOM      2  C   UNL     1      73.174 223.756 337.760  0.00  0.00    +0.000 C 
ENDROOT
BRANCH   2   4
ATOM      3  N   UNL     1      75.670 226.354 337.092  0.00  0.00    +0.000 N 
ATOM      4  C   UNL     1      74.260 224.746 337.746  0.00  0.00    +0.000 A 
ATOM      5  C   UNL     1      75.199 225.014 338.804  0.00  0.00    +0.000 A 
ATOM      6  C   UNL     1      76.058 226.019 338.365  0.00  0.00    +0.000 A 
ATOM      7  C   UNL     1      74.594 225.597 336.701  0.00  0.00    +0.000 A 
ATOM      8  C   UNL     1      75.390 224.494 340.100  0.00  0.00    +0.000 A 
ATOM      9  C   UNL     1      77.099 226.529 339.148  0.00  0.00    +0.000 A 
ATOM     10  C   UNL     1      77.266 225.989 340.431  0.00  0.00    +0.000 A 
ATOM     11  C   UNL     1      76.423 224.988 340.900  0.00  0.00    +0.000 A 
ATOM     12  H   UNL     1      76.125 227.058 336.530  0.00  0.00    +0.000 HD
BRANCH   7  13
ATOM     13  O   UNL     1      74.054 225.736 335.495  0.00  0.00    +0.000 OA
ATOM     14  H   UNL     1      74.618 225.327 334.815  0.00  0.00    +0.000 HD
ENDBRANCH   7  13
BRANCH  10  16
ATOM     15  O   UNL     1      78.490 227.647 341.606  0.00  0.00    +0.000 OA
ATOM     16  C   UNL     1      78.339 226.466 341.330  0.00  0.00    +0.000 C 
BRANCH  16  17
ATOM     17  O   UNL     1      79.064 225.392 341.751  0.00  0.00    +0.000 OA
ATOM     18  C   UNL     1      80.213 225.042 341.023  0.00  0.00    +0.000 C 
ENDBRANCH  16  17
ENDBRANCH  10  16
ENDBRANCH   2   4
BRANCH   1  22
ATOM     19  C   UNL     1      69.169 220.997 336.614  0.00  0.00    +0.000 A 
ATOM     20  C   UNL     1      70.399 220.775 335.989  0.00  0.00    +0.000 A 
ATOM     21  C   UNL     1      69.013 222.204 337.308  0.00  0.00    +0.000 A 
ATOM     22  C   UNL     1      71.243 222.922 336.713  0.00  0.00    +0.000 A 
ATOM     23  C   UNL     1      71.428 221.714 336.042  0.00  0.00    +0.000 A 
ATOM     24  C   UNL     1      70.035 223.151 337.368  0.00  0.00    +0.000 A 
BRANCH  19  26
ATOM     25  O   UNL     1      68.625 218.979 338.617  0.00  0.00    +0.000 OA
ATOM     26  N   UNL     1      68.097 220.029 336.555  0.00  0.00    +0.000 N 
ATOM     27  C   UNL     1      67.940 219.090 337.606  0.00  0.00    +0.000 C 
ATOM     28  C   UNL     1      67.247 220.110 335.364  0.00  0.00    +0.000 C 
BRANCH  27  29
ATOM     29  C   UNL     1      66.842 218.142 337.472  0.00  0.00    +0.000 C 
BRANCH  29  30
ATOM     30  N   UNL     1      65.738 217.191 337.368  0.00  0.00    +0.000 N 
ATOM     31  N   UNL     1      64.438 216.715 334.099  0.00  0.00    +0.000 N 
ATOM     32  C   UNL     1      64.649 217.876 336.617  0.00  0.00    +0.000 C 
ATOM     33  C   UNL     1      66.099 216.241 336.279  0.00  0.00    +0.000 C 
ATOM     34  C   UNL     1      64.081 217.670 335.184  0.00  0.00    +0.000 C 
ATOM     35  C   UNL     1      65.531 216.035 334.844  0.00  0.00    +0.000 C 
ATOM     36  C   UNL     1      65.067 217.494 333.041  0.00  0.00    +0.000 C 
ENDBRANCH  29  30
ENDBRANCH  27  29
ENDBRANCH  19  26
ENDBRANCH   1  22
BRANCH   2  37
ATOM     37  C   UNL     1      73.157 222.748 338.835  0.00  0.00    +0.000 A 
ATOM     38  C   UNL     1      72.355 222.954 339.956  0.00  0.00    +0.000 A 
ATOM     39  C   UNL     1      73.921 221.591 338.692  0.00  0.00    +0.000 A 
ATOM     40  C   UNL     1      72.324 221.984 340.953  0.00  0.00    +0.000 A 
ATOM     41  C   UNL     1      73.884 220.628 339.696  0.00  0.00    +0.000 A 
ATOM     42  C   UNL     1      73.087 220.824 340.824  0.00  0.00    +0.000 A 
ENDBRANCH   2  37
TORSDOF 9
ENDMDL
MODEL 9
REMARK VINA RESULT:      -5.4     17.081     21.111
REMARK  Name = 135423438_Nintedanib.pdbqt.pdb
REMARK  9 active torsions:
REMARK  status: ('A' for Active; 'I' for Inactive)
REMARK    1  A    between atoms: N_1  and  C_22
REMARK    2  A    between atoms: C_2  and  C_4
REMARK    3  A    between atoms: C_2  and  C_37
REMARK    4  A    between atoms: C_7  and  O_13
REMARK    5  A    between atoms: C_10  and  C_16
REMARK    6  A    between atoms: C_16  and  O_17
REMARK    7  A    between atoms: C_19  and  N_26
REMARK    8  A    between atoms: C_27  and  C_29
REMARK    9  A    between atoms: C_29  and  N_30
REMARK                            x       y       z     vdW  Elec       q    Type
REMARK                         _______ _______ _______ _____ _____    ______ ____
ROOT
ATOM      1  N   UNL     1      71.899 223.038 338.093  0.00  0.00    +0.000 NA
ATOM      2  C   UNL     1      72.414 222.642 339.221  0.00  0.00    +0.000 C 
ENDROOT
BRANCH   2   4
ATOM      3  N   UNL     1      74.965 225.123 340.091  0.00  0.00    +0.000 N 
ATOM      4  C   UNL     1      73.473 223.484 339.793  0.00  0.00    +0.000 A 
ATOM      5  C   UNL     1      74.194 223.253 341.017  0.00  0.00    +0.000 A 
ATOM      6  C   UNL     1      75.111 224.291 341.173  0.00  0.00    +0.000 A 
ATOM      7  C   UNL     1      73.989 224.653 339.250  0.00  0.00    +0.000 A 
ATOM      8  C   UNL     1      74.145 222.255 342.012  0.00  0.00    +0.000 A 
ATOM      9  C   UNL     1      75.982 224.383 342.264  0.00  0.00    +0.000 A 
ATOM     10  C   UNL     1      75.910 223.373 343.233  0.00  0.00    +0.000 A 
ATOM     11  C   UNL     1      75.004 222.326 343.110  0.00  0.00    +0.000 A 
ATOM     12  H   UNL     1      75.510 225.960 339.945  0.00  0.00    +0.000 HD
BRANCH   7  13
ATOM     13  O   UNL     1      73.683 225.288 338.124  0.00  0.00    +0.000 OA
ATOM     14  H   UNL     1      73.619 224.663 337.381  0.00  0.00    +0.000 HD
ENDBRANCH   7  13
BRANCH  10  16
ATOM     15  O   UNL     1      77.990 223.159 344.355  0.00  0.00    +0.000 OA
ATOM     16  C   UNL     1      76.791 223.388 344.421  0.00  0.00    +0.000 C 
BRANCH  16  17
ATOM     17  O   UNL     1      76.039 223.687 345.518  0.00  0.00    +0.000 OA
ATOM     18  C   UNL     1      76.698 223.859 346.746  0.00  0.00    +0.000 C 
ENDBRANCH  16  17
ENDBRANCH  10  16
ENDBRANCH   2   4
BRANCH   1  22
ATOM     19  C   UNL     1      68.942 220.662 336.219  0.00  0.00    +0.000 A 
ATOM     20  C   UNL     1      70.272 220.646 335.792  0.00  0.00    +0.000 A 
ATOM     21  C   UNL     1      68.626 221.501 337.296  0.00  0.00    +0.000 A 
ATOM     22  C   UNL     1      70.908 222.284 337.454  0.00  0.00    +0.000 A 
ATOM     23  C   UNL     1      71.247 221.434 336.402  0.00  0.00    +0.000 A 
ATOM     24  C   UNL     1      69.592 222.294 337.914  0.00  0.00    +0.000 A 
BRANCH  19  26
ATOM     25  O   UNL     1      68.230 217.965 336.991  0.00  0.00    +0.000 OA
ATOM     26  N   UNL     1      67.926 219.852 335.585  0.00  0.00    +0.000 N 
ATOM     27  C   UNL     1      67.675 218.541 336.061  0.00  0.00    +0.000 C 
ATOM     28  C   UNL     1      67.232 220.487 334.461  0.00  0.00    +0.000 C 
BRANCH  27  29
ATOM     29  C   UNL     1      66.643 217.783 335.367  0.00  0.00    +0.000 C 
BRANCH  29  30
ATOM     30  N   UNL     1      65.587 217.043 334.679  0.00  0.00    +0.000 N 
ATOM     31  N   UNL     1      64.445 218.483 331.642  0.00  0.00    +0.000 N 
ATOM     32  C   UNL     1      64.501 218.019 334.383  0.00  0.00    +0.000 C 
ATOM     33  C   UNL     1      66.034 216.880 333.268  0.00  0.00    +0.000 C 
ATOM     34  C   UNL     1      64.002 218.653 333.052  0.00  0.00    +0.000 C 
ATOM     35  C   UNL     1      65.535 217.515 331.937  0.00  0.00    +0.000 C 
ATOM     36  C   UNL     1      65.083 219.731 331.247  0.00  0.00    +0.000 C 
ENDBRANCH  29  30
ENDBRANCH  27  29
ENDBRANCH  19  26
ENDBRANCH   1  22
BRANCH   2  37
ATOM     37  C   UNL     1      72.016 221.423 339.949  0.00  0.00    +0.000 A 
ATOM     38  C   UNL     1      71.024 221.500 340.925  0.00  0.00    +0.000 A 
ATOM     39  C   UNL     1      72.618 220.209 339.622  0.00  0.00    +0.000 A 
ATOM     40  C   UNL     1      70.636 220.341 341.589  0.00  0.00    +0.000 A 
ATOM     41  C   UNL     1      72.223 219.056 340.292  0.00  0.00    +0.000 A 
ATOM     42  C   UNL     1      71.234 219.121 341.273  0.00  0.00    +0.000 A 
ENDBRANCH   2  37
TORSDOF 9
ENDMDL
