MODEL 1
REMARK VINA RESULT:      -6.7      0.000      0.000
REMARK  Name = 14132199_RiccardinD.pdbqt.pdb
REMARK  3 active torsions:
REMARK  status: ('A' for Active; 'I' for Inactive)
REMARK    1  A    between atoms: C_11  and  O_30
REMARK    2  A    between atoms: C_16  and  O_32
REMARK    3  A    between atoms: C_28  and  O_34
REMARK                            x       y       z     vdW  Elec       q    Type
REMARK                         _______ _______ _______ _____ _____    ______ ____
ROOT
ATOM      1  O   UNL     1      74.047 220.175 345.267  0.00  0.00    +0.000 OA
ATOM      2  C   UNL     1      69.098 219.525 340.424  0.00  0.00    +0.000 C 
ATOM      3  C   UNL     1      68.457 219.761 339.163  0.00  0.00    +0.000 A 
ATOM      4  C   UNL     1      69.001 220.660 338.209  0.00  0.00    +0.000 A 
ATOM      5  C   UNL     1      69.921 219.365 341.713  0.00  0.00    +0.000 C 
ATOM      6  C   UNL     1      73.631 223.085 340.296  0.00  0.00    +0.000 C 
ATOM      7  C   UNL     1      70.185 221.486 338.535  0.00  0.00    +0.000 A 
ATOM      8  C   UNL     1      72.476 222.803 339.510  0.00  0.00    +0.000 A 
ATOM      9  C   UNL     1      74.634 223.031 341.451  0.00  0.00    +0.000 C 
ATOM     10  C   UNL     1      70.829 219.354 342.813  0.00  0.00    +0.000 A 
ATOM     11  C   UNL     1      71.430 221.344 337.904  0.00  0.00    +0.000 A 
ATOM     12  C   UNL     1      75.166 222.605 342.698  0.00  0.00    +0.000 A 
ATOM     13  C   UNL     1      70.100 222.402 339.593  0.00  0.00    +0.000 A 
ATOM     14  C   UNL     1      72.574 221.976 338.396  0.00  0.00    +0.000 A 
ATOM     15  C   UNL     1      71.231 223.048 340.084  0.00  0.00    +0.000 A 
ATOM     16  C   UNL     1      68.353 220.736 336.963  0.00  0.00    +0.000 A 
ATOM     17  C   UNL     1      67.300 219.030 338.884  0.00  0.00    +0.000 A 
ATOM     18  C   UNL     1      67.187 220.018 336.697  0.00  0.00    +0.000 A 
ATOM     19  C   UNL     1      66.655 219.172 337.662  0.00  0.00    +0.000 A 
ATOM     20  C   UNL     1      74.416 221.642 343.364  0.00  0.00    +0.000 A 
ATOM     21  C   UNL     1      70.694 220.302 343.828  0.00  0.00    +0.000 A 
ATOM     22  C   UNL     1      71.963 218.542 342.756  0.00  0.00    +0.000 A 
ATOM     23  C   UNL     1      74.795 221.133 344.600  0.00  0.00    +0.000 A 
ATOM     24  C   UNL     1      76.336 223.084 343.269  0.00  0.00    +0.000 A 
ATOM     25  C   UNL     1      72.908 219.762 344.600  0.00  0.00    +0.000 A 
ATOM     26  C   UNL     1      71.732 220.502 344.736  0.00  0.00    +0.000 A 
ATOM     27  C   UNL     1      73.006 218.736 343.660  0.00  0.00    +0.000 A 
ATOM     28  C   UNL     1      75.967 221.613 345.172  0.00  0.00    +0.000 A 
ATOM     29  C   UNL     1      76.735 222.581 344.514  0.00  0.00    +0.000 A 
ENDROOT
BRANCH  11  30
ATOM     30  O   UNL     1      71.532 220.552 336.791  0.00  0.00    +0.000 OA
ATOM     31  H   UNL     1      70.699 220.627 336.287  0.00  0.00    +0.000 HD
ENDBRANCH  11  30
BRANCH  16  32
ATOM     32  O   UNL     1      68.835 221.499 335.933  0.00  0.00    +0.000 OA
ATOM     33  H   UNL     1      68.264 222.289 335.876  0.00  0.00    +0.000 HD
ENDBRANCH  16  32
BRANCH  28  34
ATOM     34  O   UNL     1      76.404 221.160 346.384  0.00  0.00    +0.000 OA
ATOM     35  H   UNL     1      75.933 221.666 347.070  0.00  0.00    +0.000 HD
ENDBRANCH  28  34
TORSDOF 3
ENDMDL
MODEL 2
REMARK VINA RESULT:      -6.5      1.373      1.992
REMARK  Name = 14132199_RiccardinD.pdbqt.pdb
REMARK  3 active torsions:
REMARK  status: ('A' for Active; 'I' for Inactive)
REMARK    1  A    between atoms: C_11  and  O_30
REMARK    2  A    between atoms: C_16  and  O_32
REMARK    3  A    between atoms: C_28  and  O_34
REMARK                            x       y       z     vdW  Elec       q    Type
REMARK                         _______ _______ _______ _____ _____    ______ ____
ROOT
ATOM      1  O   UNL     1      73.488 220.484 343.440  0.00  0.00    +0.000 OA
ATOM      2  C   UNL     1      68.191 219.123 339.145  0.00  0.00    +0.000 C 
ATOM      3  C   UNL     1      67.399 219.252 337.955  0.00  0.00    +0.000 A 
ATOM      4  C   UNL     1      67.722 220.194 336.945  0.00  0.00    +0.000 A 
ATOM      5  C   UNL     1      69.156 219.092 340.341  0.00  0.00    +0.000 C 
ATOM      6  C   UNL     1      72.196 223.222 338.522  0.00  0.00    +0.000 C 
ATOM      7  C   UNL     1      68.819 221.169 337.140  0.00  0.00    +0.000 A 
ATOM      8  C   UNL     1      71.011 222.782 337.863  0.00  0.00    +0.000 A 
ATOM      9  C   UNL     1      73.311 223.318 339.566  0.00  0.00    +0.000 C 
ATOM     10  C   UNL     1      70.166 219.217 341.340  0.00  0.00    +0.000 A 
ATOM     11  C   UNL     1      70.000 221.172 336.384  0.00  0.00    +0.000 A 
ATOM     12  C   UNL     1      74.018 222.987 340.753  0.00  0.00    +0.000 A 
ATOM     13  C   UNL     1      68.727 222.087 338.196  0.00  0.00    +0.000 A 
ATOM     14  C   UNL     1      71.099 221.953 336.749  0.00  0.00    +0.000 A 
ATOM     15  C   UNL     1      69.811 222.879 338.563  0.00  0.00    +0.000 A 
ATOM     16  C   UNL     1      66.945 220.164 335.773  0.00  0.00    +0.000 A 
ATOM     17  C   UNL     1      66.322 218.375 337.803  0.00  0.00    +0.000 A 
ATOM     18  C   UNL     1      65.859 219.300 335.634  0.00  0.00    +0.000 A 
ATOM     19  C   UNL     1      65.541 218.411 336.655  0.00  0.00    +0.000 A 
ATOM     20  C   UNL     1      73.469 221.949 341.500  0.00  0.00    +0.000 A 
ATOM     21  C   UNL     1      70.017 220.160 342.358  0.00  0.00    +0.000 A 
ATOM     22  C   UNL     1      71.382 218.554 341.170  0.00  0.00    +0.000 A 
ATOM     23  C   UNL     1      74.035 221.515 342.693  0.00  0.00    +0.000 A 
ATOM     24  C   UNL     1      75.170 223.619 341.196  0.00  0.00    +0.000 A 
ATOM     25  C   UNL     1      72.349 219.919 342.898  0.00  0.00    +0.000 A 
ATOM     26  C   UNL     1      71.108 220.507 343.151  0.00  0.00    +0.000 A 
ATOM     27  C   UNL     1      72.479 218.895 341.959  0.00  0.00    +0.000 A 
ATOM     28  C   UNL     1      75.190 222.151 343.136  0.00  0.00    +0.000 A 
ATOM     29  C   UNL     1      75.756 223.195 342.396  0.00  0.00    +0.000 A 
ENDROOT
BRANCH  11  30
ATOM     30  O   UNL     1      70.087 220.378 335.271  0.00  0.00    +0.000 OA
ATOM     31  H   UNL     1      70.926 219.880 335.318  0.00  0.00    +0.000 HD
ENDBRANCH  11  30
BRANCH  16  32
ATOM     32  O   UNL     1      67.217 220.962 334.693  0.00  0.00    +0.000 OA
ATOM     33  H   UNL     1      67.718 220.415 334.059  0.00  0.00    +0.000 HD
ENDBRANCH  16  32
BRANCH  28  34
ATOM     34  O   UNL     1      75.803 221.780 344.299  0.00  0.00    +0.000 OA
ATOM     35  H   UNL     1      76.670 221.402 344.061  0.00  0.00    +0.000 HD
ENDBRANCH  28  34
TORSDOF 3
ENDMDL
MODEL 3
REMARK VINA RESULT:      -6.2     33.167     35.254
REMARK  Name = 14132199_RiccardinD.pdbqt.pdb
REMARK  3 active torsions:
REMARK  status: ('A' for Active; 'I' for Inactive)
REMARK    1  A    between atoms: C_11  and  O_30
REMARK    2  A    between atoms: C_16  and  O_32
REMARK    3  A    between atoms: C_28  and  O_34
REMARK                            x       y       z     vdW  Elec       q    Type
REMARK                         _______ _______ _______ _____ _____    ______ ____
ROOT
ATOM      1  O   UNL     1      51.903 239.207 318.132  0.00  0.00    +0.000 OA
ATOM      2  C   UNL     1      52.616 242.862 324.005  0.00  0.00    +0.000 C 
ATOM      3  C   UNL     1      52.283 243.289 325.334  0.00  0.00    +0.000 A 
ATOM      4  C   UNL     1      51.134 242.799 326.006  0.00  0.00    +0.000 A 
ATOM      5  C   UNL     1      52.845 242.283 322.599  0.00  0.00    +0.000 C 
ATOM      6  C   UNL     1      48.268 239.340 322.617  0.00  0.00    +0.000 C 
ATOM      7  C   UNL     1      50.164 241.923 325.311  0.00  0.00    +0.000 A 
ATOM      8  C   UNL     1      48.623 240.228 323.673  0.00  0.00    +0.000 A 
ATOM      9  C   UNL     1      48.334 238.589 321.284  0.00  0.00    +0.000 C 
ATOM     10  C   UNL     1      52.879 241.622 321.336  0.00  0.00    +0.000 A 
ATOM     11  C   UNL     1      49.939 240.583 325.659  0.00  0.00    +0.000 A 
ATOM     12  C   UNL     1      48.868 238.218 320.021  0.00  0.00    +0.000 A 
ATOM     13  C   UNL     1      49.494 242.417 324.183  0.00  0.00    +0.000 A 
ATOM     14  C   UNL     1      49.194 239.731 324.840  0.00  0.00    +0.000 A 
ATOM     15  C   UNL     1      48.739 241.581 323.365  0.00  0.00    +0.000 A 
ATOM     16  C   UNL     1      50.959 243.200 327.344  0.00  0.00    +0.000 A 
ATOM     17  C   UNL     1      53.164 244.171 325.964  0.00  0.00    +0.000 A 
ATOM     18  C   UNL     1      51.831 244.095 327.962  0.00  0.00    +0.000 A 
ATOM     19  C   UNL     1      52.930 244.588 327.268  0.00  0.00    +0.000 A 
ATOM     20  C   UNL     1      50.067 238.836 319.681  0.00  0.00    +0.000 A 
ATOM     21  C   UNL     1      52.180 242.163 320.256  0.00  0.00    +0.000 A 
ATOM     22  C   UNL     1      53.425 240.341 321.248  0.00  0.00    +0.000 A 
ATOM     23  C   UNL     1      50.711 238.590 318.474  0.00  0.00    +0.000 A 
ATOM     24  C   UNL     1      48.282 237.322 319.140  0.00  0.00    +0.000 A 
ATOM     25  C   UNL     1      52.403 240.072 319.088  0.00  0.00    +0.000 A 
ATOM     26  C   UNL     1      51.949 241.391 319.119  0.00  0.00    +0.000 A 
ATOM     27  C   UNL     1      53.198 239.562 320.115  0.00  0.00    +0.000 A 
ATOM     28  C   UNL     1      50.121 237.691 317.592  0.00  0.00    +0.000 A 
ATOM     29  C   UNL     1      48.916 237.059 317.920  0.00  0.00    +0.000 A 
ENDROOT
BRANCH  11  30
ATOM     30  O   UNL     1      50.475 240.091 326.820  0.00  0.00    +0.000 OA
ATOM     31  H   UNL     1      51.021 240.793 327.224  0.00  0.00    +0.000 HD
ENDBRANCH  11  30
BRANCH  16  32
ATOM     32  O   UNL     1      49.939 242.722 328.123  0.00  0.00    +0.000 OA
ATOM     33  H   UNL     1      50.156 242.956 329.045  0.00  0.00    +0.000 HD
ENDBRANCH  16  32
BRANCH  28  34
ATOM     34  O   UNL     1      50.695 237.398 316.387  0.00  0.00    +0.000 OA
ATOM     35  H   UNL     1      50.977 238.241 315.988  0.00  0.00    +0.000 HD
ENDBRANCH  28  34
TORSDOF 3
ENDMDL
MODEL 4
REMARK VINA RESULT:      -5.8     17.675     20.436
REMARK  Name = 14132199_RiccardinD.pdbqt.pdb
REMARK  3 active torsions:
REMARK  status: ('A' for Active; 'I' for Inactive)
REMARK    1  A    between atoms: C_11  and  O_30
REMARK    2  A    between atoms: C_16  and  O_32
REMARK    3  A    between atoms: C_28  and  O_34
REMARK                            x       y       z     vdW  Elec       q    Type
REMARK                         _______ _______ _______ _____ _____    ______ ____
ROOT
ATOM      1  O   UNL     1      72.958 234.981 332.036  0.00  0.00    +0.000 OA
ATOM      2  C   UNL     1      69.382 239.346 336.100  0.00  0.00    +0.000 C 
ATOM      3  C   UNL     1      68.526 240.459 336.399  0.00  0.00    +0.000 A 
ATOM      4  C   UNL     1      68.038 241.316 335.379  0.00  0.00    +0.000 A 
ATOM      5  C   UNL     1      70.264 238.186 335.610  0.00  0.00    +0.000 C 
ATOM      6  C   UNL     1      70.151 239.756 330.401  0.00  0.00    +0.000 C 
ATOM      7  C   UNL     1      68.498 241.168 333.980  0.00  0.00    +0.000 A 
ATOM      8  C   UNL     1      69.550 240.509 331.452  0.00  0.00    +0.000 A 
ATOM      9  C   UNL     1      70.936 238.652 329.690  0.00  0.00    +0.000 C 
ATOM     10  C   UNL     1      71.039 237.186 334.953  0.00  0.00    +0.000 A 
ATOM     11  C   UNL     1      67.662 240.777 332.923  0.00  0.00    +0.000 A 
ATOM     12  C   UNL     1      71.708 237.463 329.580  0.00  0.00    +0.000 A 
ATOM     13  C   UNL     1      69.861 241.336 333.695  0.00  0.00    +0.000 A 
ATOM     14  C   UNL     1      68.179 240.427 331.674  0.00  0.00    +0.000 A 
ATOM     15  C   UNL     1      70.386 241.002 332.450  0.00  0.00    +0.000 A 
ATOM     16  C   UNL     1      67.120 242.310 335.766  0.00  0.00    +0.000 A 
ATOM     17  C   UNL     1      68.147 240.638 337.731  0.00  0.00    +0.000 A 
ATOM     18  C   UNL     1      66.760 242.496 337.101  0.00  0.00    +0.000 A 
ATOM     19  C   UNL     1      67.281 241.665 338.085  0.00  0.00    +0.000 A 
ATOM     20  C   UNL     1      71.956 236.805 330.779  0.00  0.00    +0.000 A 
ATOM     21  C   UNL     1      72.389 237.422 334.690  0.00  0.00    +0.000 A 
ATOM     22  C   UNL     1      70.397 236.082 334.390  0.00  0.00    +0.000 A 
ATOM     23  C   UNL     1      72.707 235.637 330.841  0.00  0.00    +0.000 A 
ATOM     24  C   UNL     1      72.216 236.951 328.395  0.00  0.00    +0.000 A 
ATOM     25  C   UNL     1      72.394 235.573 333.151  0.00  0.00    +0.000 A 
ATOM     26  C   UNL     1      73.077 236.607 333.794  0.00  0.00    +0.000 A 
ATOM     27  C   UNL     1      71.078 235.262 333.493  0.00  0.00    +0.000 A 
ATOM     28  C   UNL     1      73.215 235.125 329.653  0.00  0.00    +0.000 A 
ATOM     29  C   UNL     1      72.973 235.774 328.437  0.00  0.00    +0.000 A 
ENDROOT
BRANCH  11  30
ATOM     30  O   UNL     1      66.308 240.718 333.125  0.00  0.00    +0.000 OA
ATOM     31  H   UNL     1      66.150 240.470 334.056  0.00  0.00    +0.000 HD
ENDBRANCH  11  30
BRANCH  16  32
ATOM     32  O   UNL     1      66.512 243.138 334.860  0.00  0.00    +0.000 OA
ATOM     33  H   UNL     1      65.902 243.707 335.365  0.00  0.00    +0.000 HD
ENDBRANCH  16  32
BRANCH  28  34
ATOM     34  O   UNL     1      73.961 233.980 329.635  0.00  0.00    +0.000 OA
ATOM     35  H   UNL     1      73.352 233.234 329.783  0.00  0.00    +0.000 HD
ENDBRANCH  28  34
TORSDOF 3
ENDMDL
MODEL 5
REMARK VINA RESULT:      -5.8     32.924     35.128
REMARK  Name = 14132199_RiccardinD.pdbqt.pdb
REMARK  3 active torsions:
REMARK  status: ('A' for Active; 'I' for Inactive)
REMARK    1  A    between atoms: C_11  and  O_30
REMARK    2  A    between atoms: C_16  and  O_32
REMARK    3  A    between atoms: C_28  and  O_34
REMARK                            x       y       z     vdW  Elec       q    Type
REMARK                         _______ _______ _______ _____ _____    ______ ____
ROOT
ATOM      1  O   UNL     1      51.035 239.176 319.520  0.00  0.00    +0.000 OA
ATOM      2  C   UNL     1      52.571 244.416 323.826  0.00  0.00    +0.000 C 
ATOM      3  C   UNL     1      52.571 245.140 325.065  0.00  0.00    +0.000 A 
ATOM      4  C   UNL     1      51.860 244.672 326.200  0.00  0.00    +0.000 A 
ATOM      5  C   UNL     1      52.490 243.510 322.587  0.00  0.00    +0.000 C 
ATOM      6  C   UNL     1      49.085 239.952 324.900  0.00  0.00    +0.000 C 
ATOM      7  C   UNL     1      50.986 243.481 326.109  0.00  0.00    +0.000 A 
ATOM      8  C   UNL     1      49.508 241.151 325.543  0.00  0.00    +0.000 A 
ATOM      9  C   UNL     1      48.923 238.876 323.823  0.00  0.00    +0.000 C 
ATOM     10  C   UNL     1      52.298 242.533 321.565  0.00  0.00    +0.000 A 
ATOM     11  C   UNL     1      51.238 242.277 326.783  0.00  0.00    +0.000 A 
ATOM     12  C   UNL     1      49.113 238.259 322.557  0.00  0.00    +0.000 A 
ATOM     13  C   UNL     1      49.892 243.511 325.232  0.00  0.00    +0.000 A 
ATOM     14  C   UNL     1      50.525 241.113 326.492  0.00  0.00    +0.000 A 
ATOM     15  C   UNL     1      49.165 242.360 324.942  0.00  0.00    +0.000 A 
ATOM     16  C   UNL     1      52.015 245.400 327.394  0.00  0.00    +0.000 A 
ATOM     17  C   UNL     1      53.343 246.302 325.128  0.00  0.00    +0.000 A 
ATOM     18  C   UNL     1      52.771 246.570 327.447  0.00  0.00    +0.000 A 
ATOM     19  C   UNL     1      53.429 247.027 326.311  0.00  0.00    +0.000 A 
ATOM     20  C   UNL     1      49.940 238.951 321.679  0.00  0.00    +0.000 A 
ATOM     21  C   UNL     1      51.181 242.615 320.733  0.00  0.00    +0.000 A 
ATOM     22  C   UNL     1      53.104 241.393 321.548  0.00  0.00    +0.000 A 
ATOM     23  C   UNL     1      50.214 238.486 320.398  0.00  0.00    +0.000 A 
ATOM     24  C   UNL     1      48.535 237.062 322.161  0.00  0.00    +0.000 A 
ATOM     25  C   UNL     1      51.565 240.349 320.024  0.00  0.00    +0.000 A 
ATOM     26  C   UNL     1      50.815 241.525 319.948  0.00  0.00    +0.000 A 
ATOM     27  C   UNL     1      52.745 240.297 320.765  0.00  0.00    +0.000 A 
ATOM     28  C   UNL     1      49.634 237.286 320.002  0.00  0.00    +0.000 A 
ATOM     29  C   UNL     1      48.801 236.576 320.874  0.00  0.00    +0.000 A 
ENDROOT
BRANCH  11  30
ATOM     30  O   UNL     1      52.220 242.236 327.738  0.00  0.00    +0.000 OA
ATOM     31  H   UNL     1      52.761 241.437 327.583  0.00  0.00    +0.000 HD
ENDBRANCH  11  30
BRANCH  16  32
ATOM     32  O   UNL     1      51.452 244.996 328.575  0.00  0.00    +0.000 OA
ATOM     33  H   UNL     1      51.210 244.057 328.465  0.00  0.00    +0.000 HD
ENDBRANCH  16  32
BRANCH  28  34
ATOM     34  O   UNL     1      49.857 236.765 318.758  0.00  0.00    +0.000 OA
ATOM     35  H   UNL     1      50.725 236.323 318.781  0.00  0.00    +0.000 HD
ENDBRANCH  28  34
TORSDOF 3
ENDMDL
MODEL 6
REMARK VINA RESULT:      -5.6     14.784     18.235
REMARK  Name = 14132199_RiccardinD.pdbqt.pdb
REMARK  3 active torsions:
REMARK  status: ('A' for Active; 'I' for Inactive)
REMARK    1  A    between atoms: C_11  and  O_30
REMARK    2  A    between atoms: C_16  and  O_32
REMARK    3  A    between atoms: C_28  and  O_34
REMARK                            x       y       z     vdW  Elec       q    Type
REMARK                         _______ _______ _______ _____ _____    ______ ____
ROOT
ATOM      1  O   UNL     1      71.857 240.771 337.129  0.00  0.00    +0.000 OA
ATOM      2  C   UNL     1      76.549 236.959 340.567  0.00  0.00    +0.000 C 
ATOM      3  C   UNL     1      77.346 235.800 340.849  0.00  0.00    +0.000 A 
ATOM      4  C   UNL     1      77.219 234.608 340.091  0.00  0.00    +0.000 A 
ATOM      5  C   UNL     1      75.642 238.117 340.119  0.00  0.00    +0.000 C 
ATOM      6  C   UNL     1      73.140 235.208 336.260  0.00  0.00    +0.000 C 
ATOM      7  C   UNL     1      76.165 234.473 339.061  0.00  0.00    +0.000 A 
ATOM      8  C   UNL     1      74.100 234.649 337.153  0.00  0.00    +0.000 A 
ATOM      9  C   UNL     1      72.207 236.230 335.606  0.00  0.00    +0.000 C 
ATOM     10  C   UNL     1      74.735 239.055 339.542  0.00  0.00    +0.000 A 
ATOM     11  C   UNL     1      76.430 234.352 337.688  0.00  0.00    +0.000 A 
ATOM     12  C   UNL     1      71.579 237.491 335.420  0.00  0.00    +0.000 A 
ATOM     13  C   UNL     1      74.821 234.562 339.451  0.00  0.00    +0.000 A 
ATOM     14  C   UNL     1      75.414 234.461 336.736  0.00  0.00    +0.000 A 
ATOM     15  C   UNL     1      73.798 234.659 338.512  0.00  0.00    +0.000 A 
ATOM     16  C   UNL     1      78.122 233.569 340.380  0.00  0.00    +0.000 A 
ATOM     17  C   UNL     1      78.295 235.907 341.868  0.00  0.00    +0.000 A 
ATOM     18  C   UNL     1      79.055 233.673 341.412  0.00  0.00    +0.000 A 
ATOM     19  C   UNL     1      79.135 234.840 342.163  0.00  0.00    +0.000 A 
ATOM     20  C   UNL     1      71.986 238.490 336.297  0.00  0.00    +0.000 A 
ATOM     21  C   UNL     1      73.407 239.083 339.970  0.00  0.00    +0.000 A 
ATOM     22  C   UNL     1      75.124 239.779 338.414  0.00  0.00    +0.000 A 
ATOM     23  C   UNL     1      71.456 239.775 336.254  0.00  0.00    +0.000 A 
ATOM     24  C   UNL     1      70.616 237.767 334.461  0.00  0.00    +0.000 A 
ATOM     25  C   UNL     1      72.830 240.389 338.034  0.00  0.00    +0.000 A 
ATOM     26  C   UNL     1      72.448 239.762 339.222  0.00  0.00    +0.000 A 
ATOM     27  C   UNL     1      74.172 240.461 337.660  0.00  0.00    +0.000 A 
ATOM     28  C   UNL     1      70.490 240.050 335.292  0.00  0.00    +0.000 A 
ATOM     29  C   UNL     1      70.071 239.056 334.400  0.00  0.00    +0.000 A 
ENDROOT
BRANCH  11  30
ATOM     30  O   UNL     1      77.717 234.141 337.269  0.00  0.00    +0.000 OA
ATOM     31  H   UNL     1      77.684 233.707 336.395  0.00  0.00    +0.000 HD
ENDBRANCH  11  30
BRANCH  16  32
ATOM     32  O   UNL     1      78.156 232.406 339.657  0.00  0.00    +0.000 OA
ATOM     33  H   UNL     1      78.706 232.580 338.870  0.00  0.00    +0.000 HD
ENDBRANCH  16  32
BRANCH  28  34
ATOM     34  O   UNL     1      69.924 241.289 335.187  0.00  0.00    +0.000 OA
ATOM     35  H   UNL     1      69.868 241.503 334.238  0.00  0.00    +0.000 HD
ENDBRANCH  28  34
TORSDOF 3
ENDMDL
MODEL 7
REMARK VINA RESULT:      -5.5     26.254     29.813
REMARK  Name = 14132199_RiccardinD.pdbqt.pdb
REMARK  3 active torsions:
REMARK  status: ('A' for Active; 'I' for Inactive)
REMARK    1  A    between atoms: C_11  and  O_30
REMARK    2  A    between atoms: C_16  and  O_32
REMARK    3  A    between atoms: C_28  and  O_34
REMARK                            x       y       z     vdW  Elec       q    Type
REMARK                         _______ _______ _______ _____ _____    ______ ____
ROOT
ATOM      1  O   UNL     1      55.423 234.670 316.145  0.00  0.00    +0.000 OA
ATOM      2  C   UNL     1      54.894 228.113 318.399  0.00  0.00    +0.000 C 
ATOM      3  C   UNL     1      55.355 226.879 318.969  0.00  0.00    +0.000 A 
ATOM      4  C   UNL     1      56.714 226.687 319.326  0.00  0.00    +0.000 A 
ATOM      5  C   UNL     1      54.559 229.500 317.827  0.00  0.00    +0.000 C 
ATOM      6  C   UNL     1      59.711 231.246 317.944  0.00  0.00    +0.000 C 
ATOM      7  C   UNL     1      57.734 227.710 319.004  0.00  0.00    +0.000 A 
ATOM      8  C   UNL     1      59.335 229.916 318.294  0.00  0.00    +0.000 A 
ATOM      9  C   UNL     1      59.597 232.696 317.468  0.00  0.00    +0.000 C 
ATOM     10  C   UNL     1      54.461 230.835 317.335  0.00  0.00    +0.000 A 
ATOM     11  C   UNL     1      58.430 228.447 319.974  0.00  0.00    +0.000 A 
ATOM     12  C   UNL     1      58.945 233.863 316.984  0.00  0.00    +0.000 A 
ATOM     13  C   UNL     1      57.963 228.038 317.660  0.00  0.00    +0.000 A 
ATOM     14  C   UNL     1      59.207 229.556 319.631  0.00  0.00    +0.000 A 
ATOM     15  C   UNL     1      58.745 229.133 317.305  0.00  0.00    +0.000 A 
ATOM     16  C   UNL     1      57.039 225.482 319.976  0.00  0.00    +0.000 A 
ATOM     17  C   UNL     1      54.401 225.887 319.210  0.00  0.00    +0.000 A 
ATOM     18  C   UNL     1      56.087 224.487 320.196  0.00  0.00    +0.000 A 
ATOM     19  C   UNL     1      54.768 224.687 319.804  0.00  0.00    +0.000 A 
ATOM     20  C   UNL     1      57.571 233.742 316.806  0.00  0.00    +0.000 A 
ATOM     21  C   UNL     1      54.712 231.093 315.987  0.00  0.00    +0.000 A 
ATOM     22  C   UNL     1      54.329 231.890 318.239  0.00  0.00    +0.000 A 
ATOM     23  C   UNL     1      56.792 234.789 316.326  0.00  0.00    +0.000 A 
ATOM     24  C   UNL     1      59.577 235.060 316.681  0.00  0.00    +0.000 A 
ATOM     25  C   UNL     1      54.898 233.438 316.490  0.00  0.00    +0.000 A 
ATOM     26  C   UNL     1      54.921 232.401 315.555  0.00  0.00    +0.000 A 
ATOM     27  C   UNL     1      54.537 233.201 317.816  0.00  0.00    +0.000 A 
ATOM     28  C   UNL     1      57.426 235.988 316.023  0.00  0.00    +0.000 A 
ATOM     29  C   UNL     1      58.808 236.126 316.198  0.00  0.00    +0.000 A 
ENDROOT
BRANCH  11  30
ATOM     30  O   UNL     1      58.331 228.085 321.292  0.00  0.00    +0.000 OA
ATOM     31  H   UNL     1      57.397 228.174 321.562  0.00  0.00    +0.000 HD
ENDBRANCH  11  30
BRANCH  16  32
ATOM     32  O   UNL     1      58.298 225.222 320.447  0.00  0.00    +0.000 OA
ATOM     33  H   UNL     1      58.838 224.958 319.678  0.00  0.00    +0.000 HD
ENDBRANCH  16  32
BRANCH  28  34
ATOM     34  O   UNL     1      56.727 237.062 315.548  0.00  0.00    +0.000 OA
ATOM     35  H   UNL     1      55.796 236.938 315.806  0.00  0.00    +0.000 HD
ENDBRANCH  28  34
TORSDOF 3
ENDMDL
MODEL 8
REMARK VINA RESULT:      -5.5     20.281     23.372
REMARK  Name = 14132199_RiccardinD.pdbqt.pdb
REMARK  3 active torsions:
REMARK  status: ('A' for Active; 'I' for Inactive)
REMARK    1  A    between atoms: C_11  and  O_30
REMARK    2  A    between atoms: C_16  and  O_32
REMARK    3  A    between atoms: C_28  and  O_34
REMARK                            x       y       z     vdW  Elec       q    Type
REMARK                         _______ _______ _______ _____ _____    ______ ____
ROOT
ATOM      1  O   UNL     1      49.551 225.094 351.836  0.00  0.00    +0.000 OA
ATOM      2  C   UNL     1      55.388 221.936 353.912  0.00  0.00    +0.000 C 
ATOM      3  C   UNL     1      56.353 220.877 353.984  0.00  0.00    +0.000 A 
ATOM      4  C   UNL     1      56.155 219.643 353.312  0.00  0.00    +0.000 A 
ATOM      5  C   UNL     1      54.273 222.974 353.712  0.00  0.00    +0.000 C 
ATOM      6  C   UNL     1      51.146 219.652 350.747  0.00  0.00    +0.000 C 
ATOM      7  C   UNL     1      54.881 219.355 352.615  0.00  0.00    +0.000 A 
ATOM      8  C   UNL     1      52.368 219.234 351.349  0.00  0.00    +0.000 A 
ATOM      9  C   UNL     1      49.965 220.543 350.357  0.00  0.00    +0.000 C 
ATOM     10  C   UNL     1      53.146 223.788 353.391  0.00  0.00    +0.000 A 
ATOM     11  C   UNL     1      54.773 219.197 351.226  0.00  0.00    +0.000 A 
ATOM     12  C   UNL     1      49.176 221.725 350.329  0.00  0.00    +0.000 A 
ATOM     13  C   UNL     1      53.693 219.328 353.360  0.00  0.00    +0.000 A 
ATOM     14  C   UNL     1      53.531 219.159 350.589  0.00  0.00    +0.000 A 
ATOM     15  C   UNL     1      52.449 219.278 352.738  0.00  0.00    +0.000 A 
ATOM     16  C   UNL     1      57.211 218.714 353.359  0.00  0.00    +0.000 A 
ATOM     17  C   UNL     1      57.527 221.125 354.700  0.00  0.00    +0.000 A 
ATOM     18  C   UNL     1      58.372 218.959 354.091  0.00  0.00    +0.000 A 
ATOM     19  C   UNL     1      58.526 220.162 354.770  0.00  0.00    +0.000 A 
ATOM     20  C   UNL     1      49.695 222.800 351.042  0.00  0.00    +0.000 A 
ATOM     21  C   UNL     1      51.990 223.704 354.169  0.00  0.00    +0.000 A 
ATOM     22  C   UNL     1      53.132 224.494 352.187  0.00  0.00    +0.000 A 
ATOM     23  C   UNL     1      49.037 224.022 351.123  0.00  0.00    +0.000 A 
ATOM     24  C   UNL     1      47.964 221.858 349.668  0.00  0.00    +0.000 A 
ATOM     25  C   UNL     1      50.769 224.854 352.444  0.00  0.00    +0.000 A 
ATOM     26  C   UNL     1      50.796 224.248 353.702  0.00  0.00    +0.000 A 
ATOM     27  C   UNL     1      51.942 225.041 351.713  0.00  0.00    +0.000 A 
ATOM     28  C   UNL     1      47.822 224.153 350.461  0.00  0.00    +0.000 A 
ATOM     29  C   UNL     1      47.286 223.082 349.737  0.00  0.00    +0.000 A 
ENDROOT
BRANCH  11  30
ATOM     30  O   UNL     1      55.913 219.096 350.471  0.00  0.00    +0.000 OA
ATOM     31  H   UNL     1      55.684 219.309 349.546  0.00  0.00    +0.000 HD
ENDBRANCH  11  30
BRANCH  16  32
ATOM     32  O   UNL     1      57.172 217.527 352.676  0.00  0.00    +0.000 OA
ATOM     33  H   UNL     1      57.028 216.826 353.339  0.00  0.00    +0.000 HD
ENDBRANCH  16  32
BRANCH  28  34
ATOM     34  O   UNL     1      47.117 225.323 350.494  0.00  0.00    +0.000 OA
ATOM     35  H   UNL     1      47.223 225.701 351.386  0.00  0.00    +0.000 HD
ENDBRANCH  28  34
TORSDOF 3
ENDMDL
MODEL 9
REMARK VINA RESULT:      -5.4     32.698     35.364
REMARK  Name = 14132199_RiccardinD.pdbqt.pdb
REMARK  3 active torsions:
REMARK  status: ('A' for Active; 'I' for Inactive)
REMARK    1  A    between atoms: C_11  and  O_30
REMARK    2  A    between atoms: C_16  and  O_32
REMARK    3  A    between atoms: C_28  and  O_34
REMARK                            x       y       z     vdW  Elec       q    Type
REMARK                         _______ _______ _______ _____ _____    ______ ____
ROOT
ATOM      1  O   UNL     1      46.045 230.173 320.032  0.00  0.00    +0.000 OA
ATOM      2  C   UNL     1      48.106 235.748 323.642  0.00  0.00    +0.000 C 
ATOM      3  C   UNL     1      47.953 236.878 324.512  0.00  0.00    +0.000 A 
ATOM      4  C   UNL     1      46.684 237.259 325.020  0.00  0.00    +0.000 A 
ATOM      5  C   UNL     1      48.102 234.498 322.747  0.00  0.00    +0.000 C 
ATOM      6  C   UNL     1      42.697 233.888 322.919  0.00  0.00    +0.000 C 
ATOM      7  C   UNL     1      45.451 236.578 324.567  0.00  0.00    +0.000 A 
ATOM      8  C   UNL     1      43.374 234.988 323.523  0.00  0.00    +0.000 A 
ATOM      9  C   UNL     1      42.468 232.602 322.122  0.00  0.00    +0.000 C 
ATOM     10  C   UNL     1      47.881 233.328 321.961  0.00  0.00    +0.000 A 
ATOM     11  C   UNL     1      44.644 235.793 325.404  0.00  0.00    +0.000 A 
ATOM     12  C   UNL     1      42.825 231.474 321.334  0.00  0.00    +0.000 A 
ATOM     13  C   UNL     1      45.106 236.634 323.209  0.00  0.00    +0.000 A 
ATOM     14  C   UNL     1      43.627 234.986 324.891  0.00  0.00    +0.000 A 
ATOM     15  C   UNL     1      44.087 235.843 322.687  0.00  0.00    +0.000 A 
ATOM     16  C   UNL     1      46.661 238.316 325.949  0.00  0.00    +0.000 A 
ATOM     17  C   UNL     1      49.112 237.563 324.884  0.00  0.00    +0.000 A 
ATOM     18  C   UNL     1      47.818 239.009 326.302  0.00  0.00    +0.000 A 
ATOM     19  C   UNL     1      49.044 238.638 325.762  0.00  0.00    +0.000 A 
ATOM     20  C   UNL     1      44.184 231.344 321.068  0.00  0.00    +0.000 A 
ATOM     21  C   UNL     1      47.530 233.456 320.617  0.00  0.00    +0.000 A 
ATOM     22  C   UNL     1      47.807 232.084 322.591  0.00  0.00    +0.000 A 
ATOM     23  C   UNL     1      44.692 230.303 320.300  0.00  0.00    +0.000 A 
ATOM     24  C   UNL     1      41.932 230.543 320.827  0.00  0.00    +0.000 A 
ATOM     25  C   UNL     1      46.844 231.150 320.596  0.00  0.00    +0.000 A 
ATOM     26  C   UNL     1      47.019 232.361 319.923  0.00  0.00    +0.000 A 
ATOM     27  C   UNL     1      47.297 230.984 321.905  0.00  0.00    +0.000 A 
ATOM     28  C   UNL     1      43.795 229.369 319.793  0.00  0.00    +0.000 A 
ATOM     29  C   UNL     1      42.425 229.485 320.053  0.00  0.00    +0.000 A 
ENDROOT
BRANCH  11  30
ATOM     30  O   UNL     1      44.869 235.804 326.756  0.00  0.00    +0.000 OA
ATOM     31  H   UNL     1      45.398 236.596 326.970  0.00  0.00    +0.000 HD
ENDBRANCH  11  30
BRANCH  16  32
ATOM     32  O   UNL     1      45.509 238.714 326.575  0.00  0.00    +0.000 OA
ATOM     33  H   UNL     1      44.773 238.253 326.129  0.00  0.00    +0.000 HD
ENDBRANCH  16  32
BRANCH  28  34
ATOM     34  O   UNL     1      44.219 228.318 319.030  0.00  0.00    +0.000 OA
ATOM     35  H   UNL     1      43.601 227.581 319.183  0.00  0.00    +0.000 HD
ENDBRANCH  28  34
TORSDOF 3
ENDMDL
