MODEL 1
REMARK VINA RESULT:      -3.9      0.000      0.000
REMARK  Name = 146026348_FluorouracilMononitrate.pdbqt.pdb
REMARK  2 active torsions:
REMARK  status: ('A' for Active; 'I' for Inactive)
REMARK    1  A    between atoms: N_4  and  O_10
REMARK    2  A    between atoms: O_10  and  N_13
REMARK                            x       y       z     vdW  Elec       q    Type
REMARK                         _______ _______ _______ _____ _____    ______ ____
ROOT
ATOM      1  F   UNL     1      58.055 224.765 325.430  0.00  0.00    +0.000 F 
ATOM      2  O   UNL     1      60.787 225.211 325.045  0.00  0.00    +0.000 OA
ATOM      3  O   UNL     1      61.553 222.296 328.621  0.00  0.00    +0.000 OA
ATOM      4  N   UNL     1      61.211 223.888 326.928  0.00  0.00    +0.000 N 
ATOM      5  N   UNL     1      58.993 224.301 326.270  0.00  0.00    +0.000 N 
ATOM      6  C   UNL     1      60.369 224.546 325.988  0.00  0.00    +0.000 A 
ATOM      7  C   UNL     1      60.829 222.982 327.918  0.00  0.00    +0.000 A 
ATOM      8  C   UNL     1      59.389 222.896 327.993  0.00  0.00    +0.000 A 
ATOM      9  C   UNL     1      58.635 223.475 327.271  0.00  0.00    +0.000 A 
ENDROOT
BRANCH   4  10
ATOM     10  O   UNL     1      62.593 223.992 326.682  0.00  0.00    +0.000 OA
BRANCH  10  13
ATOM     11  O   UNL     1      63.506 224.805 328.569  0.00  0.00    +0.000 OA
ATOM     12  O   UNL     1      63.436 226.041 326.707  0.00  0.00    +0.000 OA
ATOM     13  N   UNL     1      63.234 225.039 327.389  0.00  0.00    +0.000 N 
ENDBRANCH  10  13
ENDBRANCH   4  10
TORSDOF 2
ENDMDL
MODEL 2
REMARK VINA RESULT:      -3.8     14.432     15.786
REMARK  Name = 146026348_FluorouracilMononitrate.pdbqt.pdb
REMARK  2 active torsions:
REMARK  status: ('A' for Active; 'I' for Inactive)
REMARK    1  A    between atoms: N_4  and  O_10
REMARK    2  A    between atoms: O_10  and  N_13
REMARK                            x       y       z     vdW  Elec       q    Type
REMARK                         _______ _______ _______ _____ _____    ______ ____
ROOT
ATOM      1  F   UNL     1      69.235 221.963 337.039  0.00  0.00    +0.000 F 
ATOM      2  O   UNL     1      71.710 222.771 336.022  0.00  0.00    +0.000 OA
ATOM      3  O   UNL     1      73.055 223.491 340.443  0.00  0.00    +0.000 OA
ATOM      4  N   UNL     1      72.372 223.298 338.204  0.00  0.00    +0.000 N 
ATOM      5  N   UNL     1      70.199 222.494 337.808  0.00  0.00    +0.000 N 
ATOM      6  C   UNL     1      71.446 222.855 337.218  0.00  0.00    +0.000 A 
ATOM      7  C   UNL     1      72.213 223.262 339.590  0.00  0.00    +0.000 A 
ATOM      8  C   UNL     1      70.872 222.849 339.934  0.00  0.00    +0.000 A 
ATOM      9  C   UNL     1      70.038 222.527 339.144  0.00  0.00    +0.000 A 
ENDROOT
BRANCH   4  10
ATOM     10  O   UNL     1      73.665 223.590 337.735  0.00  0.00    +0.000 OA
BRANCH  10  13
ATOM     11  O   UNL     1      73.564 225.303 336.282  0.00  0.00    +0.000 OA
ATOM     12  O   UNL     1      74.344 225.606 338.355  0.00  0.00    +0.000 OA
ATOM     13  N   UNL     1      73.878 224.955 337.423  0.00  0.00    +0.000 N 
ENDBRANCH  10  13
ENDBRANCH   4  10
TORSDOF 2
ENDMDL
MODEL 3
REMARK VINA RESULT:      -3.6     20.580     21.455
REMARK  Name = 146026348_FluorouracilMononitrate.pdbqt.pdb
REMARK  2 active torsions:
REMARK  status: ('A' for Active; 'I' for Inactive)
REMARK    1  A    between atoms: N_4  and  O_10
REMARK    2  A    between atoms: O_10  and  N_13
REMARK                            x       y       z     vdW  Elec       q    Type
REMARK                         _______ _______ _______ _____ _____    ______ ____
ROOT
ATOM      1  F   UNL     1      48.709 244.996 324.524  0.00  0.00    +0.000 F 
ATOM      2  O   UNL     1      51.401 244.594 325.159  0.00  0.00    +0.000 OA
ATOM      3  O   UNL     1      50.184 240.352 326.709  0.00  0.00    +0.000 OA
ATOM      4  N   UNL     1      50.815 242.530 326.093  0.00  0.00    +0.000 N 
ATOM      5  N   UNL     1      49.144 243.922 325.201  0.00  0.00    +0.000 N 
ATOM      6  C   UNL     1      50.538 243.774 325.462  0.00  0.00    +0.000 A 
ATOM      7  C   UNL     1      49.925 241.477 326.314  0.00  0.00    +0.000 A 
ATOM      8  C   UNL     1      48.581 241.869 325.955  0.00  0.00    +0.000 A 
ATOM      9  C   UNL     1      48.285 242.923 325.481  0.00  0.00    +0.000 A 
ENDROOT
BRANCH   4  10
ATOM     10  O   UNL     1      52.176 242.247 326.308  0.00  0.00    +0.000 OA
BRANCH  10  13
ATOM     11  O   UNL     1      53.772 243.486 327.296  0.00  0.00    +0.000 OA
ATOM     12  O   UNL     1      52.053 242.679 328.478  0.00  0.00    +0.000 OA
ATOM     13  N   UNL     1      52.722 242.859 327.463  0.00  0.00    +0.000 N 
ENDBRANCH  10  13
ENDBRANCH   4  10
TORSDOF 2
ENDMDL
MODEL 4
REMARK VINA RESULT:      -3.5     14.157     15.267
REMARK  Name = 146026348_FluorouracilMononitrate.pdbqt.pdb
REMARK  2 active torsions:
REMARK  status: ('A' for Active; 'I' for Inactive)
REMARK    1  A    between atoms: N_4  and  O_10
REMARK    2  A    between atoms: O_10  and  N_13
REMARK                            x       y       z     vdW  Elec       q    Type
REMARK                         _______ _______ _______ _____ _____    ______ ____
ROOT
ATOM      1  F   UNL     1      70.519 220.522 341.799  0.00  0.00    +0.000 F 
ATOM      2  O   UNL     1      70.919 222.655 340.038  0.00  0.00    +0.000 OA
ATOM      3  O   UNL     1      67.855 220.587 337.172  0.00  0.00    +0.000 OA
ATOM      4  N   UNL     1      69.517 221.578 338.504  0.00  0.00    +0.000 N 
ATOM      5  N   UNL     1      70.002 220.549 340.561  0.00  0.00    +0.000 N 
ATOM      6  C   UNL     1      70.228 221.687 339.732  0.00  0.00    +0.000 A 
ATOM      7  C   UNL     1      68.582 220.603 338.152  0.00  0.00    +0.000 A 
ATOM      8  C   UNL     1      68.525 219.570 339.161  0.00  0.00    +0.000 A 
ATOM      9  C   UNL     1      69.147 219.581 340.179  0.00  0.00    +0.000 A 
ENDROOT
BRANCH   4  10
ATOM     10  O   UNL     1      69.599 222.695 337.653  0.00  0.00    +0.000 OA
BRANCH  10  13
ATOM     11  O   UNL     1      70.859 221.707 336.073  0.00  0.00    +0.000 OA
ATOM     12  O   UNL     1      71.425 223.704 336.907  0.00  0.00    +0.000 OA
ATOM     13  N   UNL     1      70.731 222.696 336.801  0.00  0.00    +0.000 N 
ENDBRANCH  10  13
ENDBRANCH   4  10
TORSDOF 2
ENDMDL
MODEL 5
REMARK VINA RESULT:      -3.5      1.909      3.419
REMARK  Name = 146026348_FluorouracilMononitrate.pdbqt.pdb
REMARK  2 active torsions:
REMARK  status: ('A' for Active; 'I' for Inactive)
REMARK    1  A    between atoms: N_4  and  O_10
REMARK    2  A    between atoms: O_10  and  N_13
REMARK                            x       y       z     vdW  Elec       q    Type
REMARK                         _______ _______ _______ _____ _____    ______ ____
ROOT
ATOM      1  F   UNL     1      58.771 224.944 327.055  0.00  0.00    +0.000 F 
ATOM      2  O   UNL     1      59.629 222.803 328.633  0.00  0.00    +0.000 OA
ATOM      3  O   UNL     1      64.008 224.011 327.520  0.00  0.00    +0.000 OA
ATOM      4  N   UNL     1      61.825 223.271 327.975  0.00  0.00    +0.000 N 
ATOM      5  N   UNL     1      60.053 224.552 327.114  0.00  0.00    +0.000 N 
ATOM      6  C   UNL     1      60.416 223.468 327.966  0.00  0.00    +0.000 A 
ATOM      7  C   UNL     1      62.797 224.082 327.387  0.00  0.00    +0.000 A 
ATOM      8  C   UNL     1      62.176 225.116 326.591  0.00  0.00    +0.000 A 
ATOM      9  C   UNL     1      60.999 225.287 326.499  0.00  0.00    +0.000 A 
ENDROOT
BRANCH   4  10
ATOM     10  O   UNL     1      62.295 222.283 328.859  0.00  0.00    +0.000 OA
BRANCH  10  13
ATOM     11  O   UNL     1      61.546 220.170 329.047  0.00  0.00    +0.000 OA
ATOM     12  O   UNL     1      62.783 220.795 327.291  0.00  0.00    +0.000 OA
ATOM     13  N   UNL     1      62.199 220.960 328.360  0.00  0.00    +0.000 N 
ENDBRANCH  10  13
ENDBRANCH   4  10
TORSDOF 2
ENDMDL
MODEL 6
REMARK VINA RESULT:      -3.4      3.272      4.425
REMARK  Name = 146026348_FluorouracilMononitrate.pdbqt.pdb
REMARK  2 active torsions:
REMARK  status: ('A' for Active; 'I' for Inactive)
REMARK    1  A    between atoms: N_4  and  O_10
REMARK    2  A    between atoms: O_10  and  N_13
REMARK                            x       y       z     vdW  Elec       q    Type
REMARK                         _______ _______ _______ _____ _____    ______ ____
ROOT
ATOM      1  F   UNL     1      57.286 224.261 324.264  0.00  0.00    +0.000 F 
ATOM      2  O   UNL     1      57.018 221.580 325.005  0.00  0.00    +0.000 OA
ATOM      3  O   UNL     1      59.815 222.523 328.634  0.00  0.00    +0.000 OA
ATOM      4  N   UNL     1      58.540 221.966 326.741  0.00  0.00    +0.000 N 
ATOM      5  N   UNL     1      57.995 223.708 325.260  0.00  0.00    +0.000 N 
ATOM      6  C   UNL     1      57.780 222.339 325.598  0.00  0.00    +0.000 A 
ATOM      7  C   UNL     1      59.290 222.803 327.568  0.00  0.00    +0.000 A 
ATOM      8  C   UNL     1      59.342 224.139 327.020  0.00  0.00    +0.000 A 
ATOM      9  C   UNL     1      58.775 224.489 326.031  0.00  0.00    +0.000 A 
ENDROOT
BRANCH   4  10
ATOM     10  O   UNL     1      58.327 220.658 327.211  0.00  0.00    +0.000 OA
BRANCH  10  13
ATOM     11  O   UNL     1      60.078 220.121 325.906  0.00  0.00    +0.000 OA
ATOM     12  O   UNL     1      59.128 218.591 327.232  0.00  0.00    +0.000 OA
ATOM     13  N   UNL     1      59.263 219.707 326.734  0.00  0.00    +0.000 N 
ENDBRANCH  10  13
ENDBRANCH   4  10
TORSDOF 2
ENDMDL
MODEL 7
REMARK VINA RESULT:      -3.2     12.328     13.542
REMARK  Name = 146026348_FluorouracilMononitrate.pdbqt.pdb
REMARK  2 active torsions:
REMARK  status: ('A' for Active; 'I' for Inactive)
REMARK    1  A    between atoms: N_4  and  O_10
REMARK    2  A    between atoms: O_10  and  N_13
REMARK                            x       y       z     vdW  Elec       q    Type
REMARK                         _______ _______ _______ _____ _____    ______ ____
ROOT
ATOM      1  F   UNL     1      66.737 216.079 339.368  0.00  0.00    +0.000 F 
ATOM      2  O   UNL     1      67.571 218.736 339.599  0.00  0.00    +0.000 OA
ATOM      3  O   UNL     1      64.854 219.689 335.913  0.00  0.00    +0.000 OA
ATOM      4  N   UNL     1      66.352 219.228 337.662  0.00  0.00    +0.000 N 
ATOM      5  N   UNL     1      66.427 217.020 338.463  0.00  0.00    +0.000 N 
ATOM      6  C   UNL     1      66.866 218.361 338.667  0.00  0.00    +0.000 A 
ATOM      7  C   UNL     1      65.415 218.919 336.675  0.00  0.00    +0.000 A 
ATOM      8  C   UNL     1      65.122 217.505 336.684  0.00  0.00    +0.000 A 
ATOM      9  C   UNL     1      65.573 216.722 337.464  0.00  0.00    +0.000 A 
ENDROOT
BRANCH   4  10
ATOM     10  O   UNL     1      66.653 220.593 337.827  0.00  0.00    +0.000 OA
BRANCH  10  13
ATOM     11  O   UNL     1      68.684 221.508 338.135  0.00  0.00    +0.000 OA
ATOM     12  O   UNL     1      68.080 220.708 336.136  0.00  0.00    +0.000 OA
ATOM     13  N   UNL     1      67.921 220.976 337.324  0.00  0.00    +0.000 N 
ENDBRANCH  10  13
ENDBRANCH   4  10
TORSDOF 2
ENDMDL
MODEL 8
REMARK VINA RESULT:      -3.2     24.860     25.811
REMARK  Name = 146026348_FluorouracilMononitrate.pdbqt.pdb
REMARK  2 active torsions:
REMARK  status: ('A' for Active; 'I' for Inactive)
REMARK    1  A    between atoms: N_4  and  O_10
REMARK    2  A    between atoms: O_10  and  N_13
REMARK                            x       y       z     vdW  Elec       q    Type
REMARK                         _______ _______ _______ _____ _____    ______ ____
ROOT
ATOM      1  F   UNL     1      60.220 215.810 352.414  0.00  0.00    +0.000 F 
ATOM      2  O   UNL     1      58.971 216.286 349.960  0.00  0.00    +0.000 OA
ATOM      3  O   UNL     1      56.019 219.101 352.248  0.00  0.00    +0.000 OA
ATOM      4  N   UNL     1      57.375 217.575 351.086  0.00  0.00    +0.000 N 
ATOM      5  N   UNL     1      59.079 216.507 352.302  0.00  0.00    +0.000 N 
ATOM      6  C   UNL     1      58.518 216.732 351.011  0.00  0.00    +0.000 A 
ATOM      7  C   UNL     1      56.899 218.257 352.207  0.00  0.00    +0.000 A 
ATOM      8  C   UNL     1      57.641 217.872 353.385  0.00  0.00    +0.000 A 
ATOM      9  C   UNL     1      58.568 217.121 353.387  0.00  0.00    +0.000 A 
ENDROOT
BRANCH   4  10
ATOM     10  O   UNL     1      56.802 217.933 349.852  0.00  0.00    +0.000 OA
BRANCH  10  13
ATOM     11  O   UNL     1      54.570 217.941 349.580  0.00  0.00    +0.000 OA
ATOM     12  O   UNL     1      55.752 216.065 349.291  0.00  0.00    +0.000 OA
ATOM     13  N   UNL     1      55.595 217.256 349.551  0.00  0.00    +0.000 N 
ENDBRANCH  10  13
ENDBRANCH   4  10
TORSDOF 2
ENDMDL
MODEL 9
REMARK VINA RESULT:      -3.2      2.193      2.890
REMARK  Name = 146026348_FluorouracilMononitrate.pdbqt.pdb
REMARK  2 active torsions:
REMARK  status: ('A' for Active; 'I' for Inactive)
REMARK    1  A    between atoms: N_4  and  O_10
REMARK    2  A    between atoms: O_10  and  N_13
REMARK                            x       y       z     vdW  Elec       q    Type
REMARK                         _______ _______ _______ _____ _____    ______ ____
ROOT
ATOM      1  F   UNL     1      60.901 220.130 327.562  0.00  0.00    +0.000 F 
ATOM      2  O   UNL     1      63.027 221.888 328.008  0.00  0.00    +0.000 OA
ATOM      3  O   UNL     1      59.935 225.380 327.656  0.00  0.00    +0.000 OA
ATOM      4  N   UNL     1      61.547 223.672 327.680  0.00  0.00    +0.000 N 
ATOM      5  N   UNL     1      60.776 221.462 327.462  0.00  0.00    +0.000 N 
ATOM      6  C   UNL     1      61.901 222.294 327.734  0.00  0.00    +0.000 A 
ATOM      7  C   UNL     1      60.266 224.211 327.546  0.00  0.00    +0.000 A 
ATOM      8  C   UNL     1      59.302 223.165 327.297  0.00  0.00    +0.000 A 
ATOM      9  C   UNL     1      59.556 222.000 327.269  0.00  0.00    +0.000 A 
ENDROOT
BRANCH   4  10
ATOM     10  O   UNL     1      62.568 224.575 328.026  0.00  0.00    +0.000 OA
BRANCH  10  13
ATOM     11  O   UNL     1      64.444 224.497 326.789  0.00  0.00    +0.000 OA
ATOM     12  O   UNL     1      62.782 225.897 326.260  0.00  0.00    +0.000 OA
ATOM     13  N   UNL     1      63.340 225.030 326.928  0.00  0.00    +0.000 N 
ENDBRANCH  10  13
ENDBRANCH   4  10
TORSDOF 2
ENDMDL
