MODEL 1
REMARK VINA RESULT:      -6.3      0.000      0.000
REMARK  Name = 179268_Nortopsentin.pdbqt.pdb
REMARK  2 active torsions:
REMARK  status: ('A' for Active; 'I' for Inactive)
REMARK    1  A    between atoms: C_3  and  C_9
REMARK    2  A    between atoms: C_4  and  C_20
REMARK                            x       y       z     vdW  Elec       q    Type
REMARK                         _______ _______ _______ _____ _____    ______ ____
ROOT
ATOM      1  N   UNL     1      66.399 217.754 340.354  0.00  0.00    +0.000 N 
ATOM      2  N   UNL     1      67.332 215.748 340.316  0.00  0.00    +0.000 NA
ATOM      3  C   UNL     1      67.572 217.903 339.668  0.00  0.00    +0.000 A 
ATOM      4  C   UNL     1      66.290 216.438 340.729  0.00  0.00    +0.000 A 
ATOM      5  C   UNL     1      68.136 216.646 339.657  0.00  0.00    +0.000 A 
ATOM      6  H   UNL     1      65.723 218.474 340.556  0.00  0.00    +0.000 HD
ENDROOT
BRANCH   3   9
ATOM      7 BR   UNL     1      72.453 223.256 340.072  0.00  0.00    +0.000 Br
ATOM      8  N   UNL     1      68.328 220.848 337.669  0.00  0.00    +0.000 N 
ATOM      9  C   UNL     1      68.107 219.144 339.074  0.00  0.00    +0.000 A 
ATOM     10  C   UNL     1      69.187 219.954 339.528  0.00  0.00    +0.000 A 
ATOM     11  C   UNL     1      69.302 221.017 338.626  0.00  0.00    +0.000 A 
ATOM     12  C   UNL     1      67.603 219.720 337.932  0.00  0.00    +0.000 A 
ATOM     13  C   UNL     1      70.082 219.898 340.614  0.00  0.00    +0.000 A 
ATOM     14  C   UNL     1      70.265 222.025 338.753  0.00  0.00    +0.000 A 
ATOM     15  C   UNL     1      71.051 220.892 340.760  0.00  0.00    +0.000 A 
ATOM     16  C   UNL     1      71.132 221.931 339.842  0.00  0.00    +0.000 A 
ATOM     17  H   UNL     1      68.170 221.467 336.885  0.00  0.00    +0.000 HD
ENDBRANCH   3   9
BRANCH   4  20
ATOM     18 BR   UNL     1      63.430 215.175 347.266  0.00  0.00    +0.000 Br
ATOM     19  N   UNL     1      63.209 214.892 341.931  0.00  0.00    +0.000 N 
ATOM     20  C   UNL     1      65.149 215.876 341.495  0.00  0.00    +0.000 A 
ATOM     21  C   UNL     1      64.983 215.835 342.908  0.00  0.00    +0.000 A 
ATOM     22  C   UNL     1      63.756 215.212 343.153  0.00  0.00    +0.000 A 
ATOM     23  C   UNL     1      64.044 215.289 340.922  0.00  0.00    +0.000 A 
ATOM     24  C   UNL     1      65.752 216.266 344.006  0.00  0.00    +0.000 A 
ATOM     25  C   UNL     1      63.256 214.996 344.440  0.00  0.00    +0.000 A 
ATOM     26  C   UNL     1      65.272 216.059 345.301  0.00  0.00    +0.000 A 
ATOM     27  C   UNL     1      64.047 215.436 345.503  0.00  0.00    +0.000 A 
ATOM     28  H   UNL     1      62.319 214.431 341.801  0.00  0.00    +0.000 HD
ENDBRANCH   4  20
TORSDOF 2
ENDMDL
MODEL 2
REMARK VINA RESULT:      -6.3      0.503      8.197
REMARK  Name = 179268_Nortopsentin.pdbqt.pdb
REMARK  2 active torsions:
REMARK  status: ('A' for Active; 'I' for Inactive)
REMARK    1  A    between atoms: C_3  and  C_9
REMARK    2  A    between atoms: C_4  and  C_20
REMARK                            x       y       z     vdW  Elec       q    Type
REMARK                         _______ _______ _______ _____ _____    ______ ____
ROOT
ATOM      1  N   UNL     1      66.205 217.591 340.352  0.00  0.00    +0.000 N 
ATOM      2  N   UNL     1      67.753 216.434 339.276  0.00  0.00    +0.000 NA
ATOM      3  C   UNL     1      65.992 216.283 340.689  0.00  0.00    +0.000 A 
ATOM      4  C   UNL     1      67.277 217.641 339.497  0.00  0.00    +0.000 A 
ATOM      5  C   UNL     1      66.963 215.582 340.010  0.00  0.00    +0.000 A 
ATOM      6  H   UNL     1      65.675 218.389 340.669  0.00  0.00    +0.000 HD
ENDROOT
BRANCH   3   9
ATOM      7 BR   UNL     1      63.702 215.314 347.505  0.00  0.00    +0.000 Br
ATOM      8  N   UNL     1      63.067 214.758 342.225  0.00  0.00    +0.000 N 
ATOM      9  C   UNL     1      64.946 215.751 341.585  0.00  0.00    +0.000 A 
ATOM     10  C   UNL     1      64.893 215.780 343.008  0.00  0.00    +0.000 A 
ATOM     11  C   UNL     1      63.702 215.149 343.381  0.00  0.00    +0.000 A 
ATOM     12  C   UNL     1      63.810 215.118 341.137  0.00  0.00    +0.000 A 
ATOM     13  C   UNL     1      65.735 216.277 344.022  0.00  0.00    +0.000 A 
ATOM     14  C   UNL     1      63.310 214.989 344.715  0.00  0.00    +0.000 A 
ATOM     15  C   UNL     1      65.363 216.129 345.359  0.00  0.00    +0.000 A 
ATOM     16  C   UNL     1      64.171 215.496 345.688  0.00  0.00    +0.000 A 
ATOM     17  H   UNL     1      62.179 214.275 342.185  0.00  0.00    +0.000 HD
ENDBRANCH   3   9
BRANCH   4  20
ATOM     18 BR   UNL     1      72.051 223.054 340.140  0.00  0.00    +0.000 Br
ATOM     19  N   UNL     1      68.111 220.582 337.502  0.00  0.00    +0.000 N 
ATOM     20  C   UNL     1      67.822 218.889 338.906  0.00  0.00    +0.000 A 
ATOM     21  C   UNL     1      68.861 219.715 339.419  0.00  0.00    +0.000 A 
ATOM     22  C   UNL     1      69.021 220.770 338.517  0.00  0.00    +0.000 A 
ATOM     23  C   UNL     1      67.380 219.447 337.728  0.00  0.00    +0.000 A 
ATOM     24  C   UNL     1      69.685 219.672 340.560  0.00  0.00    +0.000 A 
ATOM     25  C   UNL     1      69.963 221.788 338.696  0.00  0.00    +0.000 A 
ATOM     26  C   UNL     1      70.632 220.679 340.759  0.00  0.00    +0.000 A 
ATOM     27  C   UNL     1      70.760 221.711 339.839  0.00  0.00    +0.000 A 
ATOM     28  H   UNL     1      68.000 221.196 336.706  0.00  0.00    +0.000 HD
ENDBRANCH   4  20
TORSDOF 2
ENDMDL
MODEL 3
REMARK VINA RESULT:      -6.1     17.813     20.601
REMARK  Name = 179268_Nortopsentin.pdbqt.pdb
REMARK  2 active torsions:
REMARK  status: ('A' for Active; 'I' for Inactive)
REMARK    1  A    between atoms: C_3  and  C_9
REMARK    2  A    between atoms: C_4  and  C_20
REMARK                            x       y       z     vdW  Elec       q    Type
REMARK                         _______ _______ _______ _____ _____    ______ ____
ROOT
ATOM      1  N   UNL     1      61.358 226.629 324.546  0.00  0.00    +0.000 N 
ATOM      2  N   UNL     1      63.190 225.398 324.690  0.00  0.00    +0.000 NA
ATOM      3  C   UNL     1      62.239 227.167 323.649  0.00  0.00    +0.000 A 
ATOM      4  C   UNL     1      61.969 225.563 325.156  0.00  0.00    +0.000 A 
ATOM      5  C   UNL     1      63.369 226.388 323.755  0.00  0.00    +0.000 A 
ATOM      6  H   UNL     1      60.421 226.949 324.737  0.00  0.00    +0.000 HD
ENDROOT
BRANCH   3   9
ATOM      7 BR   UNL     1      58.241 230.155 318.382  0.00  0.00    +0.000 Br
ATOM      8  N   UNL     1      62.311 230.327 321.846  0.00  0.00    +0.000 N 
ATOM      9  C   UNL     1      62.014 228.329 322.766  0.00  0.00    +0.000 A 
ATOM     10  C   UNL     1      61.008 228.513 321.776  0.00  0.00    +0.000 A 
ATOM     11  C   UNL     1      61.220 229.777 321.215  0.00  0.00    +0.000 A 
ATOM     12  C   UNL     1      62.797 229.460 322.784  0.00  0.00    +0.000 A 
ATOM     13  C   UNL     1      59.935 227.738 321.294  0.00  0.00    +0.000 A 
ATOM     14  C   UNL     1      60.415 230.304 320.198  0.00  0.00    +0.000 A 
ATOM     15  C   UNL     1      59.120 228.244 320.281  0.00  0.00    +0.000 A 
ATOM     16  C   UNL     1      59.364 229.504 319.750  0.00  0.00    +0.000 A 
ATOM     17  H   UNL     1      62.699 231.239 321.647  0.00  0.00    +0.000 HD
ENDBRANCH   3   9
BRANCH   4  20
ATOM     18 BR   UNL     1      56.757 220.773 326.703  0.00  0.00    +0.000 Br
ATOM     19  N   UNL     1      60.940 223.766 328.163  0.00  0.00    +0.000 N 
ATOM     20  C   UNL     1      61.336 224.713 326.195  0.00  0.00    +0.000 A 
ATOM     21  C   UNL     1      60.222 223.840 326.049  0.00  0.00    +0.000 A 
ATOM     22  C   UNL     1      59.996 223.260 327.299  0.00  0.00    +0.000 A 
ATOM     23  C   UNL     1      61.756 224.647 327.505  0.00  0.00    +0.000 A 
ATOM     24  C   UNL     1      59.381 223.483 324.977  0.00  0.00    +0.000 A 
ATOM     25  C   UNL     1      58.971 222.338 327.536  0.00  0.00    +0.000 A 
ATOM     26  C   UNL     1      58.351 222.566 325.191  0.00  0.00    +0.000 A 
ATOM     27  C   UNL     1      58.159 222.010 326.450  0.00  0.00    +0.000 A 
ATOM     28  H   UNL     1      61.018 223.522 329.141  0.00  0.00    +0.000 HD
ENDBRANCH   4  20
TORSDOF 2
ENDMDL
MODEL 4
REMARK VINA RESULT:      -6.0     12.606     16.026
REMARK  Name = 179268_Nortopsentin.pdbqt.pdb
REMARK  2 active torsions:
REMARK  status: ('A' for Active; 'I' for Inactive)
REMARK    1  A    between atoms: C_3  and  C_9
REMARK    2  A    between atoms: C_4  and  C_20
REMARK                            x       y       z     vdW  Elec       q    Type
REMARK                         _______ _______ _______ _____ _____    ______ ____
ROOT
ATOM      1  N   UNL     1      62.144 222.768 328.668  0.00  0.00    +0.000 N 
ATOM      2  N   UNL     1      64.060 223.838 328.384  0.00  0.00    +0.000 NA
ATOM      3  C   UNL     1      61.899 223.726 327.723  0.00  0.00    +0.000 A 
ATOM      4  C   UNL     1      63.461 222.869 329.043  0.00  0.00    +0.000 A 
ATOM      5  C   UNL     1      63.100 224.378 327.562  0.00  0.00    +0.000 A 
ATOM      6  H   UNL     1      61.485 222.100 329.035  0.00  0.00    +0.000 HD
ENDROOT
BRANCH   3   9
ATOM      7 BR   UNL     1      57.069 221.557 322.762  0.00  0.00    +0.000 Br
ATOM      8  N   UNL     1      58.730 225.016 326.485  0.00  0.00    +0.000 N 
ATOM      9  C   UNL     1      60.620 223.991 327.034  0.00  0.00    +0.000 A 
ATOM     10  C   UNL     1      59.980 223.224 326.019  0.00  0.00    +0.000 A 
ATOM     11  C   UNL     1      58.795 223.892 325.695  0.00  0.00    +0.000 A 
ATOM     12  C   UNL     1      59.827 225.084 327.296  0.00  0.00    +0.000 A 
ATOM     13  C   UNL     1      60.282 222.028 325.340  0.00  0.00    +0.000 A 
ATOM     14  C   UNL     1      57.898 223.427 324.726  0.00  0.00    +0.000 A 
ATOM     15  C   UNL     1      59.402 221.545 324.371  0.00  0.00    +0.000 A 
ATOM     16  C   UNL     1      58.235 222.239 324.077  0.00  0.00    +0.000 A 
ATOM     17  H   UNL     1      57.980 225.695 326.470  0.00  0.00    +0.000 HD
ENDBRANCH   3   9
BRANCH   4  20
ATOM     18 BR   UNL     1      69.511 219.420 331.045  0.00  0.00    +0.000 Br
ATOM     19  N   UNL     1      64.400 220.759 331.871  0.00  0.00    +0.000 N 
ATOM     20  C   UNL     1      64.115 221.999 330.053  0.00  0.00    +0.000 A 
ATOM     21  C   UNL     1      65.452 221.514 330.051  0.00  0.00    +0.000 A 
ATOM     22  C   UNL     1      65.603 220.739 331.203  0.00  0.00    +0.000 A 
ATOM     23  C   UNL     1      63.493 221.518 331.183  0.00  0.00    +0.000 A 
ATOM     24  C   UNL     1      66.554 221.657 329.184  0.00  0.00    +0.000 A 
ATOM     25  C   UNL     1      66.800 220.097 331.536  0.00  0.00    +0.000 A 
ATOM     26  C   UNL     1      67.758 221.023 329.498  0.00  0.00    +0.000 A 
ATOM     27  C   UNL     1      67.868 220.261 330.653  0.00  0.00    +0.000 A 
ATOM     28  H   UNL     1      64.216 220.281 332.742  0.00  0.00    +0.000 HD
ENDBRANCH   4  20
TORSDOF 2
ENDMDL
MODEL 5
REMARK VINA RESULT:      -6.0     32.683     35.738
REMARK  Name = 179268_Nortopsentin.pdbqt.pdb
REMARK  2 active torsions:
REMARK  status: ('A' for Active; 'I' for Inactive)
REMARK    1  A    between atoms: C_3  and  C_9
REMARK    2  A    between atoms: C_4  and  C_20
REMARK                            x       y       z     vdW  Elec       q    Type
REMARK                         _______ _______ _______ _____ _____    ______ ____
ROOT
ATOM      1  N   UNL     1      54.479 244.707 323.758  0.00  0.00    +0.000 N 
ATOM      2  N   UNL     1      54.496 243.996 321.664  0.00  0.00    +0.000 NA
ATOM      3  C   UNL     1      53.619 243.644 323.719  0.00  0.00    +0.000 A 
ATOM      4  C   UNL     1      54.988 244.889 322.497  0.00  0.00    +0.000 A 
ATOM      5  C   UNL     1      53.645 243.219 322.411  0.00  0.00    +0.000 A 
ATOM      6  H   UNL     1      54.708 245.268 324.564  0.00  0.00    +0.000 HD
ENDROOT
BRANCH   3   9
ATOM      7 BR   UNL     1      47.447 240.527 325.919  0.00  0.00    +0.000 Br
ATOM      8  N   UNL     1      52.333 242.459 326.911  0.00  0.00    +0.000 N 
ATOM      9  C   UNL     1      52.841 243.085 324.843  0.00  0.00    +0.000 A 
ATOM     10  C   UNL     1      51.534 242.520 324.825  0.00  0.00    +0.000 A 
ATOM     11  C   UNL     1      51.242 242.136 326.138  0.00  0.00    +0.000 A 
ATOM     12  C   UNL     1      53.303 243.033 326.137  0.00  0.00    +0.000 A 
ATOM     13  C   UNL     1      50.563 242.293 323.830  0.00  0.00    +0.000 A 
ATOM     14  C   UNL     1      50.031 241.537 326.506  0.00  0.00    +0.000 A 
ATOM     15  C   UNL     1      49.350 241.697 324.174  0.00  0.00    +0.000 A 
ATOM     16  C   UNL     1      49.098 241.330 325.490  0.00  0.00    +0.000 A 
ATOM     17  H   UNL     1      52.409 242.297 327.906  0.00  0.00    +0.000 HD
ENDBRANCH   3   9
BRANCH   4  20
ATOM     18 BR   UNL     1      57.554 251.511 323.936  0.00  0.00    +0.000 Br
ATOM     19  N   UNL     1      57.594 247.003 321.060  0.00  0.00    +0.000 N 
ATOM     20  C   UNL     1      55.961 245.947 322.129  0.00  0.00    +0.000 A 
ATOM     21  C   UNL     1      56.139 247.220 322.740  0.00  0.00    +0.000 A 
ATOM     22  C   UNL     1      57.170 247.861 322.049  0.00  0.00    +0.000 A 
ATOM     23  C   UNL     1      56.869 245.843 321.100  0.00  0.00    +0.000 A 
ATOM     24  C   UNL     1      55.526 247.894 323.815  0.00  0.00    +0.000 A 
ATOM     25  C   UNL     1      57.622 249.142 322.375  0.00  0.00    +0.000 A 
ATOM     26  C   UNL     1      55.962 249.175 324.157  0.00  0.00    +0.000 A 
ATOM     27  C   UNL     1      56.990 249.778 323.445  0.00  0.00    +0.000 A 
ATOM     28  H   UNL     1      58.334 247.203 320.401  0.00  0.00    +0.000 HD
ENDBRANCH   4  20
TORSDOF 2
ENDMDL
MODEL 6
REMARK VINA RESULT:      -5.8      5.102      7.892
REMARK  Name = 179268_Nortopsentin.pdbqt.pdb
REMARK  2 active torsions:
REMARK  status: ('A' for Active; 'I' for Inactive)
REMARK    1  A    between atoms: C_3  and  C_9
REMARK    2  A    between atoms: C_4  and  C_20
REMARK                            x       y       z     vdW  Elec       q    Type
REMARK                         _______ _______ _______ _____ _____    ______ ____
ROOT
ATOM      1  N   UNL     1      69.638 220.601 339.207  0.00  0.00    +0.000 N 
ATOM      2  N   UNL     1      70.347 222.599 338.576  0.00  0.00    +0.000 NA
ATOM      3  C   UNL     1      68.763 221.019 338.243  0.00  0.00    +0.000 A 
ATOM      4  C   UNL     1      70.581 221.583 339.380  0.00  0.00    +0.000 A 
ATOM      5  C   UNL     1      69.221 222.260 337.865  0.00  0.00    +0.000 A 
ATOM      6  H   UNL     1      69.609 219.728 339.710  0.00  0.00    +0.000 HD
ENDROOT
BRANCH   3   9
ATOM      7 BR   UNL     1      64.744 219.195 332.483  0.00  0.00    +0.000 Br
ATOM      8  N   UNL     1      65.765 219.021 337.729  0.00  0.00    +0.000 N 
ATOM      9  C   UNL     1      67.587 220.288 337.729  0.00  0.00    +0.000 A 
ATOM     10  C   UNL     1      67.118 220.188 336.388  0.00  0.00    +0.000 A 
ATOM     11  C   UNL     1      65.973 219.386 336.419  0.00  0.00    +0.000 A 
ATOM     12  C   UNL     1      66.735 219.561 338.526  0.00  0.00    +0.000 A 
ATOM     13  C   UNL     1      67.547 220.695 335.146  0.00  0.00    +0.000 A 
ATOM     14  C   UNL     1      65.234 219.066 335.274  0.00  0.00    +0.000 A 
ATOM     15  C   UNL     1      66.826 220.389 333.991  0.00  0.00    +0.000 A 
ATOM     16  C   UNL     1      65.693 219.588 334.065  0.00  0.00    +0.000 A 
ATOM     17  H   UNL     1      65.006 218.438 338.057  0.00  0.00    +0.000 HD
ENDBRANCH   3   9
BRANCH   4  20
ATOM     18 BR   UNL     1      72.723 219.720 346.047  0.00  0.00    +0.000 Br
ATOM     19  N   UNL     1      73.755 221.683 341.181  0.00  0.00    +0.000 N 
ATOM     20  C   UNL     1      71.708 221.505 340.343  0.00  0.00    +0.000 A 
ATOM     21  C   UNL     1      71.680 221.024 341.681  0.00  0.00    +0.000 A 
ATOM     22  C   UNL     1      72.978 221.148 342.183  0.00  0.00    +0.000 A 
ATOM     23  C   UNL     1      72.996 221.903 340.064  0.00  0.00    +0.000 A 
ATOM     24  C   UNL     1      70.680 220.494 342.520  0.00  0.00    +0.000 A 
ATOM     25  C   UNL     1      73.330 220.769 343.482  0.00  0.00    +0.000 A 
ATOM     26  C   UNL     1      71.010 220.111 343.821  0.00  0.00    +0.000 A 
ATOM     27  C   UNL     1      72.312 220.249 344.283  0.00  0.00    +0.000 A 
ATOM     28  H   UNL     1      74.742 221.884 341.262  0.00  0.00    +0.000 HD
ENDBRANCH   4  20
TORSDOF 2
ENDMDL
MODEL 7
REMARK VINA RESULT:      -5.7     19.586     22.900
REMARK  Name = 179268_Nortopsentin.pdbqt.pdb
REMARK  2 active torsions:
REMARK  status: ('A' for Active; 'I' for Inactive)
REMARK    1  A    between atoms: C_3  and  C_9
REMARK    2  A    between atoms: C_4  and  C_20
REMARK                            x       y       z     vdW  Elec       q    Type
REMARK                         _______ _______ _______ _____ _____    ______ ____
ROOT
ATOM      1  N   UNL     1      60.787 228.369 322.442  0.00  0.00    +0.000 N 
ATOM      2  N   UNL     1      62.669 229.499 322.715  0.00  0.00    +0.000 NA
ATOM      3  C   UNL     1      60.856 229.236 321.387  0.00  0.00    +0.000 A 
ATOM      4  C   UNL     1      61.900 228.558 323.222  0.00  0.00    +0.000 A 
ATOM      5  C   UNL     1      62.031 229.928 321.576  0.00  0.00    +0.000 A 
ATOM      6  H   UNL     1      60.053 227.702 322.628  0.00  0.00    +0.000 HD
ENDROOT
BRANCH   3   9
ATOM      7 BR   UNL     1      54.695 226.917 318.335  0.00  0.00    +0.000 Br
ATOM      8  N   UNL     1      58.922 230.190 318.456  0.00  0.00    +0.000 N 
ATOM      9  C   UNL     1      59.878 229.388 320.292  0.00  0.00    +0.000 A 
ATOM     10  C   UNL     1      58.688 228.643 320.051  0.00  0.00    +0.000 A 
ATOM     11  C   UNL     1      58.109 229.169 318.892  0.00  0.00    +0.000 A 
ATOM     12  C   UNL     1      59.991 230.329 319.295  0.00  0.00    +0.000 A 
ATOM     13  C   UNL     1      58.039 227.573 320.698  0.00  0.00    +0.000 A 
ATOM     14  C   UNL     1      56.916 228.681 318.346  0.00  0.00    +0.000 A 
ATOM     15  C   UNL     1      56.848 227.071 320.172  0.00  0.00    +0.000 A 
ATOM     16  C   UNL     1      56.306 227.622 319.017  0.00  0.00    +0.000 A 
ATOM     17  H   UNL     1      58.755 230.756 317.635  0.00  0.00    +0.000 HD
ENDBRANCH   3   9
BRANCH   4  20
ATOM     18 BR   UNL     1      61.658 222.154 326.604  0.00  0.00    +0.000 Br
ATOM     19  N   UNL     1      62.875 227.361 326.530  0.00  0.00    +0.000 N 
ATOM     20  C   UNL     1      62.193 227.802 324.465  0.00  0.00    +0.000 A 
ATOM     21  C   UNL     1      61.960 226.422 324.722  0.00  0.00    +0.000 A 
ATOM     22  C   UNL     1      62.398 226.173 326.025  0.00  0.00    +0.000 A 
ATOM     23  C   UNL     1      62.755 228.353 325.594  0.00  0.00    +0.000 A 
ATOM     24  C   UNL     1      61.421 225.355 323.976  0.00  0.00    +0.000 A 
ATOM     25  C   UNL     1      62.325 224.912 326.624  0.00  0.00    +0.000 A 
ATOM     26  C   UNL     1      61.338 224.088 324.555  0.00  0.00    +0.000 A 
ATOM     27  C   UNL     1      61.785 223.881 325.854  0.00  0.00    +0.000 A 
ATOM     28  H   UNL     1      63.258 227.480 327.458  0.00  0.00    +0.000 HD
ENDBRANCH   4  20
TORSDOF 2
ENDMDL
MODEL 8
REMARK VINA RESULT:      -5.6      4.975      8.367
REMARK  Name = 179268_Nortopsentin.pdbqt.pdb
REMARK  2 active torsions:
REMARK  status: ('A' for Active; 'I' for Inactive)
REMARK    1  A    between atoms: C_3  and  C_9
REMARK    2  A    between atoms: C_4  and  C_20
REMARK                            x       y       z     vdW  Elec       q    Type
REMARK                         _______ _______ _______ _____ _____    ______ ____
ROOT
ATOM      1  N   UNL     1      62.879 215.933 339.484  0.00  0.00    +0.000 N 
ATOM      2  N   UNL     1      62.176 213.889 339.014  0.00  0.00    +0.000 NA
ATOM      3  C   UNL     1      63.452 215.119 340.421  0.00  0.00    +0.000 A 
ATOM      4  C   UNL     1      62.116 215.153 338.652  0.00  0.00    +0.000 A 
ATOM      5  C   UNL     1      63.002 213.855 340.111  0.00  0.00    +0.000 A 
ATOM      6  H   UNL     1      62.989 216.933 339.405  0.00  0.00    +0.000 HD
ENDROOT
BRANCH   3   9
ATOM      7 BR   UNL     1      64.496 215.637 347.583  0.00  0.00    +0.000 Br
ATOM      8  N   UNL     1      66.156 216.310 342.544  0.00  0.00    +0.000 N 
ATOM      9  C   UNL     1      64.353 215.519 341.520  0.00  0.00    +0.000 A 
ATOM     10  C   UNL     1      64.134 215.437 342.925  0.00  0.00    +0.000 A 
ATOM     11  C   UNL     1      65.284 215.941 343.542  0.00  0.00    +0.000 A 
ATOM     12  C   UNL     1      65.602 216.058 341.321  0.00  0.00    +0.000 A 
ATOM     13  C   UNL     1      63.078 214.987 343.741  0.00  0.00    +0.000 A 
ATOM     14  C   UNL     1      65.431 216.018 344.932  0.00  0.00    +0.000 A 
ATOM     15  C   UNL     1      63.204 215.054 345.129  0.00  0.00    +0.000 A 
ATOM     16  C   UNL     1      64.362 215.562 345.703  0.00  0.00    +0.000 A 
ATOM     17  H   UNL     1      67.074 216.709 342.692  0.00  0.00    +0.000 HD
ENDBRANCH   3   9
BRANCH   4  20
ATOM     18 BR   UNL     1      57.219 219.971 336.345  0.00  0.00    +0.000 Br
ATOM     19  N   UNL     1      60.551 215.888 335.436  0.00  0.00    +0.000 N 
ATOM     20  C   UNL     1      61.332 215.670 337.502  0.00  0.00    +0.000 A 
ATOM     21  C   UNL     1      60.391 216.737 337.496  0.00  0.00    +0.000 A 
ATOM     22  C   UNL     1      59.917 216.852 336.187  0.00  0.00    +0.000 A 
ATOM     23  C   UNL     1      61.409 215.168 336.222  0.00  0.00    +0.000 A 
ATOM     24  C   UNL     1      59.894 217.621 338.474  0.00  0.00    +0.000 A 
ATOM     25  C   UNL     1      58.969 217.805 335.802  0.00  0.00    +0.000 A 
ATOM     26  C   UNL     1      58.946 218.580 338.111  0.00  0.00    +0.000 A 
ATOM     27  C   UNL     1      58.500 218.661 336.799  0.00  0.00    +0.000 A 
ATOM     28  H   UNL     1      60.402 215.737 334.448  0.00  0.00    +0.000 HD
ENDBRANCH   4  20
TORSDOF 2
ENDMDL
MODEL 9
REMARK VINA RESULT:      -5.6      5.009      7.490
REMARK  Name = 179268_Nortopsentin.pdbqt.pdb
REMARK  2 active torsions:
REMARK  status: ('A' for Active; 'I' for Inactive)
REMARK    1  A    between atoms: C_3  and  C_9
REMARK    2  A    between atoms: C_4  and  C_20
REMARK                            x       y       z     vdW  Elec       q    Type
REMARK                         _______ _______ _______ _____ _____    ______ ____
ROOT
ATOM      1  N   UNL     1      63.048 215.936 339.676  0.00  0.00    +0.000 N 
ATOM      2  N   UNL     1      63.380 213.826 340.252  0.00  0.00    +0.000 NA
ATOM      3  C   UNL     1      62.359 215.188 338.761  0.00  0.00    +0.000 A 
ATOM      4  C   UNL     1      63.652 215.077 340.559  0.00  0.00    +0.000 A 
ATOM      5  C   UNL     1      62.579 213.882 339.137  0.00  0.00    +0.000 A 
ATOM      6  H   UNL     1      63.110 216.942 339.708  0.00  0.00    +0.000 HD
ENDROOT
BRANCH   3   9
ATOM      7 BR   UNL     1      57.326 219.857 336.412  0.00  0.00    +0.000 Br
ATOM      8  N   UNL     1      60.776 215.863 335.555  0.00  0.00    +0.000 N 
ATOM      9  C   UNL     1      61.558 215.685 337.624  0.00  0.00    +0.000 A 
ATOM     10  C   UNL     1      60.587 216.726 337.607  0.00  0.00    +0.000 A 
ATOM     11  C   UNL     1      60.113 216.815 336.294  0.00  0.00    +0.000 A 
ATOM     12  C   UNL     1      61.650 215.176 336.350  0.00  0.00    +0.000 A 
ATOM     13  C   UNL     1      60.058 217.606 338.571  0.00  0.00    +0.000 A 
ATOM     14  C   UNL     1      59.138 217.737 335.896  0.00  0.00    +0.000 A 
ATOM     15  C   UNL     1      59.086 218.534 338.197  0.00  0.00    +0.000 A 
ATOM     16  C   UNL     1      58.641 218.590 336.882  0.00  0.00    +0.000 A 
ATOM     17  H   UNL     1      60.638 215.694 334.568  0.00  0.00    +0.000 HD
ENDBRANCH   3   9
BRANCH   4  20
ATOM     18 BR   UNL     1      64.237 215.634 347.760  0.00  0.00    +0.000 Br
ATOM     19  N   UNL     1      66.212 216.330 342.840  0.00  0.00    +0.000 N 
ATOM     20  C   UNL     1      64.493 215.506 341.705  0.00  0.00    +0.000 A 
ATOM     21  C   UNL     1      64.187 215.423 343.091  0.00  0.00    +0.000 A 
ATOM     22  C   UNL     1      65.283 215.947 343.780  0.00  0.00    +0.000 A 
ATOM     23  C   UNL     1      65.744 216.067 341.581  0.00  0.00    +0.000 A 
ATOM     24  C   UNL     1      63.085 214.953 343.833  0.00  0.00    +0.000 A 
ATOM     25  C   UNL     1      65.337 216.028 345.175  0.00  0.00    +0.000 A 
ATOM     26  C   UNL     1      63.118 215.025 345.227  0.00  0.00    +0.000 A 
ATOM     27  C   UNL     1      64.227 215.553 345.875  0.00  0.00    +0.000 A 
ATOM     28  H   UNL     1      67.110 216.745 343.052  0.00  0.00    +0.000 HD
ENDBRANCH   4  20
TORSDOF 2
ENDMDL
