MODEL 1
REMARK VINA RESULT:      -4.1      0.000      0.000
REMARK  Name = 21574552_Mertensene.pdbqt.pdb
REMARK  1 active torsions:
REMARK  status: ('A' for Active; 'I' for Inactive)
REMARK    1  A    between atoms: C_4  and  C_13
REMARK                            x       y       z     vdW  Elec       q    Type
REMARK                         _______ _______ _______ _____ _____    ______ ____
ROOT
ATOM      1 BR   UNL     1      67.262 229.451 351.267  0.00  0.00    +0.000 Br
ATOM      2 CL   UNL     1      62.523 226.433 353.216  0.00  0.00    +0.000 Cl
ATOM      3 CL   UNL     1      65.124 226.621 355.407  0.00  0.00    +0.000 Cl
ATOM      4  C   UNL     1      65.246 227.332 350.649  0.00  0.00    +0.000 C 
ATOM      5  C   UNL     1      64.440 226.410 351.456  0.00  0.00    +0.000 C 
ATOM      6  C   UNL     1      64.181 225.926 352.810  0.00  0.00    +0.000 C 
ATOM      7  C   UNL     1      66.201 227.996 351.674  0.00  0.00    +0.000 C 
ATOM      8  C   UNL     1      65.209 226.638 353.699  0.00  0.00    +0.000 C 
ATOM      9  C   UNL     1      66.053 227.568 353.026  0.00  0.00    +0.000 C 
ATOM     10  C   UNL     1      66.077 226.544 349.613  0.00  0.00    +0.000 C 
ATOM     11  C   UNL     1      64.274 224.401 352.927  0.00  0.00    +0.000 C 
ENDROOT
BRANCH   4  13
ATOM     12 CL   UNL     1      62.687 230.392 348.738  0.00  0.00    +0.000 Cl
ATOM     13  C   UNL     1      64.390 228.350 350.019  0.00  0.00    +0.000 C 
ATOM     14  C   UNL     1      63.694 229.180 349.502  0.00  0.00    +0.000 C 
ENDBRANCH   4  13
TORSDOF 1
ENDMDL
MODEL 2
REMARK VINA RESULT:      -3.9     14.774     16.441
REMARK  Name = 21574552_Mertensene.pdbqt.pdb
REMARK  1 active torsions:
REMARK  status: ('A' for Active; 'I' for Inactive)
REMARK    1  A    between atoms: C_4  and  C_13
REMARK                            x       y       z     vdW  Elec       q    Type
REMARK                         _______ _______ _______ _____ _____    ______ ____
ROOT
ATOM      1 BR   UNL     1      68.813 218.001 340.092  0.00  0.00    +0.000 Br
ATOM      2 CL   UNL     1      71.081 222.429 336.835  0.00  0.00    +0.000 Cl
ATOM      3 CL   UNL     1      71.627 222.669 340.188  0.00  0.00    +0.000 Cl
ATOM      4  C   UNL     1      68.296 220.016 337.946  0.00  0.00    +0.000 C 
ATOM      5  C   UNL     1      68.853 221.331 337.612  0.00  0.00    +0.000 C 
ATOM      6  C   UNL     1      69.774 222.380 338.043  0.00  0.00    +0.000 C 
ATOM      7  C   UNL     1      68.938 219.670 339.314  0.00  0.00    +0.000 C 
ATOM      8  C   UNL     1      70.303 221.920 339.408  0.00  0.00    +0.000 C 
ATOM      9  C   UNL     1      69.833 220.646 339.843  0.00  0.00    +0.000 C 
ATOM     10  C   UNL     1      66.763 220.115 338.112  0.00  0.00    +0.000 C 
ATOM     11  C   UNL     1      69.115 223.761 338.115  0.00  0.00    +0.000 C 
ENDROOT
BRANCH   4  13
ATOM     12 CL   UNL     1      69.472 217.036 334.897  0.00  0.00    +0.000 Cl
ATOM     13  C   UNL     1      68.684 219.019 336.936  0.00  0.00    +0.000 C 
ATOM     14  C   UNL     1      69.002 218.209 336.110  0.00  0.00    +0.000 C 
ENDBRANCH   4  13
TORSDOF 1
ENDMDL
MODEL 3
REMARK VINA RESULT:      -3.8     19.182     20.353
REMARK  Name = 21574552_Mertensene.pdbqt.pdb
REMARK  1 active torsions:
REMARK  status: ('A' for Active; 'I' for Inactive)
REMARK    1  A    between atoms: C_4  and  C_13
REMARK                            x       y       z     vdW  Elec       q    Type
REMARK                         _______ _______ _______ _____ _____    ______ ____
ROOT
ATOM      1 BR   UNL     1      57.745 214.761 334.228  0.00  0.00    +0.000 Br
ATOM      2 CL   UNL     1      57.910 219.978 337.076  0.00  0.00    +0.000 Cl
ATOM      3 CL   UNL     1      60.381 217.789 337.916  0.00  0.00    +0.000 Cl
ATOM      4  C   UNL     1      56.189 216.793 335.772  0.00  0.00    +0.000 C 
ATOM      5  C   UNL     1      56.526 217.793 336.790  0.00  0.00    +0.000 C 
ATOM      6  C   UNL     1      57.594 218.318 337.637  0.00  0.00    +0.000 C 
ATOM      7  C   UNL     1      57.498 215.982 335.589  0.00  0.00    +0.000 C 
ATOM      8  C   UNL     1      58.803 217.409 337.376  0.00  0.00    +0.000 C 
ATOM      9  C   UNL     1      58.599 216.393 336.397  0.00  0.00    +0.000 C 
ATOM     10  C   UNL     1      55.077 215.856 336.295  0.00  0.00    +0.000 C 
ATOM     11  C   UNL     1      57.214 218.361 339.121  0.00  0.00    +0.000 C 
ENDROOT
BRANCH   4  13
ATOM     12 CL   UNL     1      55.051 218.750 331.973  0.00  0.00    +0.000 Cl
ATOM     13  C   UNL     1      55.817 217.448 334.508  0.00  0.00    +0.000 C 
ATOM     14  C   UNL     1      55.510 217.980 333.477  0.00  0.00    +0.000 C 
ENDBRANCH   4  13
TORSDOF 1
ENDMDL
MODEL 4
REMARK VINA RESULT:      -3.8     15.385     17.401
REMARK  Name = 21574552_Mertensene.pdbqt.pdb
REMARK  1 active torsions:
REMARK  status: ('A' for Active; 'I' for Inactive)
REMARK    1  A    between atoms: C_4  and  C_13
REMARK                            x       y       z     vdW  Elec       q    Type
REMARK                         _______ _______ _______ _____ _____    ______ ____
ROOT
ATOM      1 BR   UNL     1      71.485 219.479 334.542  0.00  0.00    +0.000 Br
ATOM      2 CL   UNL     1      69.332 224.268 337.333  0.00  0.00    +0.000 Cl
ATOM      3 CL   UNL     1      72.728 224.110 337.135  0.00  0.00    +0.000 Cl
ATOM      4  C   UNL     1      69.594 220.495 336.622  0.00  0.00    +0.000 C 
ATOM      5  C   UNL     1      69.552 221.679 337.486  0.00  0.00    +0.000 C 
ATOM      6  C   UNL     1      70.279 222.874 337.906  0.00  0.00    +0.000 C 
ATOM      7  C   UNL     1      70.987 220.569 335.946  0.00  0.00    +0.000 C 
ATOM      8  C   UNL     1      71.635 222.797 337.190  0.00  0.00    +0.000 C 
ATOM      9  C   UNL     1      71.796 221.684 336.314  0.00  0.00    +0.000 C 
ATOM     10  C   UNL     1      69.509 219.210 337.477  0.00  0.00    +0.000 C 
ATOM     11  C   UNL     1      70.436 222.974 339.427  0.00  0.00    +0.000 C 
ENDROOT
BRANCH   4  13
ATOM     12 CL   UNL     1      66.397 220.667 333.571  0.00  0.00    +0.000 Cl
ATOM     13  C   UNL     1      68.532 220.559 335.605  0.00  0.00    +0.000 C 
ATOM     14  C   UNL     1      67.665 220.608 334.777  0.00  0.00    +0.000 C 
ENDBRANCH   4  13
TORSDOF 1
ENDMDL
MODEL 5
REMARK VINA RESULT:      -3.7     16.550     17.890
REMARK  Name = 21574552_Mertensene.pdbqt.pdb
REMARK  1 active torsions:
REMARK  status: ('A' for Active; 'I' for Inactive)
REMARK    1  A    between atoms: C_4  and  C_13
REMARK                            x       y       z     vdW  Elec       q    Type
REMARK                         _______ _______ _______ _____ _____    ______ ____
ROOT
ATOM      1 BR   UNL     1      59.825 213.541 340.777  0.00  0.00    +0.000 Br
ATOM      2 CL   UNL     1      57.017 218.206 338.388  0.00  0.00    +0.000 Cl
ATOM      3 CL   UNL     1      60.264 217.823 337.432  0.00  0.00    +0.000 Cl
ATOM      4  C   UNL     1      58.105 215.930 341.294  0.00  0.00    +0.000 C 
ATOM      5  C   UNL     1      57.907 217.221 340.626  0.00  0.00    +0.000 C 
ATOM      6  C   UNL     1      58.367 218.085 339.543  0.00  0.00    +0.000 C 
ATOM      7  C   UNL     1      59.304 215.296 340.544  0.00  0.00    +0.000 C 
ATOM      8  C   UNL     1      59.562 217.351 338.918  0.00  0.00    +0.000 C 
ATOM      9  C   UNL     1      59.854 216.076 339.483  0.00  0.00    +0.000 C 
ATOM     10  C   UNL     1      58.488 216.151 342.775  0.00  0.00    +0.000 C 
ATOM     11  C   UNL     1      58.739 219.493 340.019  0.00  0.00    +0.000 C 
ENDROOT
BRANCH   4  13
ATOM     12 CL   UNL     1      54.510 213.388 340.878  0.00  0.00    +0.000 Cl
ATOM     13  C   UNL     1      56.910 215.084 341.148  0.00  0.00    +0.000 C 
ATOM     14  C   UNL     1      55.935 214.394 341.033  0.00  0.00    +0.000 C 
ENDBRANCH   4  13
TORSDOF 1
ENDMDL
MODEL 6
REMARK VINA RESULT:      -3.6     14.785     16.260
REMARK  Name = 21574552_Mertensene.pdbqt.pdb
REMARK  1 active torsions:
REMARK  status: ('A' for Active; 'I' for Inactive)
REMARK    1  A    between atoms: C_4  and  C_13
REMARK                            x       y       z     vdW  Elec       q    Type
REMARK                         _______ _______ _______ _____ _____    ______ ____
ROOT
ATOM      1 BR   UNL     1      70.483 217.631 337.494  0.00  0.00    +0.000 Br
ATOM      2 CL   UNL     1      69.440 223.479 337.757  0.00  0.00    +0.000 Cl
ATOM      3 CL   UNL     1      72.670 222.610 337.114  0.00  0.00    +0.000 Cl
ATOM      4  C   UNL     1      69.225 219.857 339.041  0.00  0.00    +0.000 C 
ATOM      5  C   UNL     1      69.483 221.295 339.172  0.00  0.00    +0.000 C 
ATOM      6  C   UNL     1      70.382 222.384 338.798  0.00  0.00    +0.000 C 
ATOM      7  C   UNL     1      70.420 219.333 338.205  0.00  0.00    +0.000 C 
ATOM      8  C   UNL     1      71.519 221.718 338.010  0.00  0.00    +0.000 C 
ATOM      9  C   UNL     1      71.380 220.313 337.813  0.00  0.00    +0.000 C 
ATOM     10  C   UNL     1      69.242 219.186 340.433  0.00  0.00    +0.000 C 
ATOM     11  C   UNL     1      70.901 223.172 340.005  0.00  0.00    +0.000 C 
ENDROOT
BRANCH   4  13
ATOM     12 CL   UNL     1      65.439 219.149 336.869  0.00  0.00    +0.000 Cl
ATOM     13  C   UNL     1      67.962 219.623 338.325  0.00  0.00    +0.000 C 
ATOM     14  C   UNL     1      66.933 219.431 337.737  0.00  0.00    +0.000 C 
ENDBRANCH   4  13
TORSDOF 1
ENDMDL
MODEL 7
REMARK VINA RESULT:      -3.6     28.414     30.162
REMARK  Name = 21574552_Mertensene.pdbqt.pdb
REMARK  1 active torsions:
REMARK  status: ('A' for Active; 'I' for Inactive)
REMARK    1  A    between atoms: C_4  and  C_13
REMARK                            x       y       z     vdW  Elec       q    Type
REMARK                         _______ _______ _______ _____ _____    ______ ____
ROOT
ATOM      1 BR   UNL     1      41.296 238.850 332.529  0.00  0.00    +0.000 Br
ATOM      2 CL   UNL     1      40.723 235.896 337.657  0.00  0.00    +0.000 Cl
ATOM      3 CL   UNL     1      40.070 239.235 337.827  0.00  0.00    +0.000 Cl
ATOM      4  C   UNL     1      42.546 236.904 334.421  0.00  0.00    +0.000 C 
ATOM      5  C   UNL     1      42.447 236.661 335.865  0.00  0.00    +0.000 C 
ATOM      6  C   UNL     1      41.872 237.144 337.117  0.00  0.00    +0.000 C 
ATOM      7  C   UNL     1      41.744 238.211 334.202  0.00  0.00    +0.000 C 
ATOM      8  C   UNL     1      41.143 238.444 336.754  0.00  0.00    +0.000 C 
ATOM      9  C   UNL     1      41.166 238.788 335.371  0.00  0.00    +0.000 C 
ATOM     10  C   UNL     1      44.021 237.135 334.022  0.00  0.00    +0.000 C 
ATOM     11  C   UNL     1      42.922 237.357 338.213  0.00  0.00    +0.000 C 
ENDROOT
BRANCH   4  13
ATOM     12 CL   UNL     1      40.688 233.597 332.147  0.00  0.00    +0.000 Cl
ATOM     13  C   UNL     1      41.932 235.799 333.669  0.00  0.00    +0.000 C 
ATOM     14  C   UNL     1      41.429 234.900 333.053  0.00  0.00    +0.000 C 
ENDBRANCH   4  13
TORSDOF 1
ENDMDL
MODEL 8
REMARK VINA RESULT:      -3.4     17.459     19.026
REMARK  Name = 21574552_Mertensene.pdbqt.pdb
REMARK  1 active torsions:
REMARK  status: ('A' for Active; 'I' for Inactive)
REMARK    1  A    between atoms: C_4  and  C_13
REMARK                            x       y       z     vdW  Elec       q    Type
REMARK                         _______ _______ _______ _____ _____    ______ ____
ROOT
ATOM      1 BR   UNL     1      79.122 235.716 337.960  0.00  0.00    +0.000 Br
ATOM      2 CL   UNL     1      73.615 233.829 339.171  0.00  0.00    +0.000 Cl
ATOM      3 CL   UNL     1      73.830 236.215 336.750  0.00  0.00    +0.000 Cl
ATOM      4  C   UNL     1      77.115 235.134 340.097  0.00  0.00    +0.000 C 
ATOM      5  C   UNL     1      75.650 235.117 340.157  0.00  0.00    +0.000 C 
ATOM      6  C   UNL     1      74.423 235.396 339.415  0.00  0.00    +0.000 C 
ATOM      7  C   UNL     1      77.430 235.718 338.696  0.00  0.00    +0.000 C 
ATOM      8  C   UNL     1      74.885 235.991 338.077  0.00  0.00    +0.000 C 
ATOM      9  C   UNL     1      76.298 236.058 337.898  0.00  0.00    +0.000 C 
ATOM     10  C   UNL     1      77.681 236.077 341.182  0.00  0.00    +0.000 C 
ATOM     11  C   UNL     1      73.471 236.333 340.165  0.00  0.00    +0.000 C 
ENDROOT
BRANCH   4  13
ATOM     12 CL   UNL     1      78.742 231.037 340.454  0.00  0.00    +0.000 Cl
ATOM     13  C   UNL     1      77.652 233.769 340.210  0.00  0.00    +0.000 C 
ATOM     14  C   UNL     1      78.092 232.656 340.305  0.00  0.00    +0.000 C 
ENDBRANCH   4  13
TORSDOF 1
ENDMDL
MODEL 9
REMARK VINA RESULT:      -3.4      3.273      4.929
REMARK  Name = 21574552_Mertensene.pdbqt.pdb
REMARK  1 active torsions:
REMARK  status: ('A' for Active; 'I' for Inactive)
REMARK    1  A    between atoms: C_4  and  C_13
REMARK                            x       y       z     vdW  Elec       q    Type
REMARK                         _______ _______ _______ _____ _____    ______ ____
ROOT
ATOM      1 BR   UNL     1      66.570 228.728 350.578  0.00  0.00    +0.000 Br
ATOM      2 CL   UNL     1      61.859 232.255 351.427  0.00  0.00    +0.000 Cl
ATOM      3 CL   UNL     1      61.431 229.012 352.376  0.00  0.00    +0.000 Cl
ATOM      4  C   UNL     1      64.753 230.770 349.370  0.00  0.00    +0.000 C 
ATOM      5  C   UNL     1      63.361 231.175 349.598  0.00  0.00    +0.000 C 
ATOM      6  C   UNL     1      62.139 230.874 350.338  0.00  0.00    +0.000 C 
ATOM      7  C   UNL     1      64.929 229.509 350.253  0.00  0.00    +0.000 C 
ATOM      8  C   UNL     1      62.450 229.600 351.135  0.00  0.00    +0.000 C 
ATOM      9  C   UNL     1      63.781 229.107 350.997  0.00  0.00    +0.000 C 
ATOM     10  C   UNL     1      64.959 230.389 347.887  0.00  0.00    +0.000 C 
ATOM     11  C   UNL     1      60.916 230.704 349.431  0.00  0.00    +0.000 C 
ENDROOT
BRANCH   4  13
ATOM     12 CL   UNL     1      67.545 233.945 350.670  0.00  0.00    +0.000 Cl
ATOM     13  C   UNL     1      65.676 231.829 349.807  0.00  0.00    +0.000 C 
ATOM     14  C   UNL     1      66.432 232.692 350.160  0.00  0.00    +0.000 C 
ENDBRANCH   4  13
TORSDOF 1
ENDMDL
